data_mof_unit_18632.cif
_audit_creation_date              2012-12-11T15:21:33-0500
_audit_creation_method            fapswitch 2.2
_symmetry_space_group_name_H-M    P1
_symmetry_Int_Tables_number       1
_space_group_crystal_system       triclinic
_cell_length_a                    8.213783
_cell_length_b                    12.590538
_cell_length_c                    19.019331
_cell_angle_alpha                 94.421947
_cell_angle_beta                  94.309557
_cell_angle_gamma                 97.694026
_cell_volume                      1936.10787325

loop_
_atom_site_label
_atom_site_type_symbol
_atom_type_description
_atom_site_fract_x
_atom_site_fract_y
_atom_site_fract_z
_atom_type_partial_charge
Ba1   Ba    Ba6+2 0.160910 0.552960 0.466220 1.636860
Ba2   Ba    Ba6+2 0.649260 0.447030 0.533730 1.637302
C1    C     C_3   0.390233 0.821080 0.197514 -0.363172
C2    C     C_3   0.417938 0.789368 0.272528 0.356090
C3    C     C_3   0.599842 0.774429 0.646644 0.281548
C4    C     C_3   0.535317 0.873712 0.621030 -0.371086
C5    C     C_3   0.852272 0.150995 0.698170 0.369552
C6    C     C_3   0.826089 0.043776 0.730160 -0.375489
C7    C     C_3   0.340093 0.155416 0.727224 0.457116
C8    C     C_3   0.436503 0.206180 0.796346 -0.302101
C9    C     C_R   0.072746 0.184895 0.531024 -0.288416
C10   C     C_R   0.732694 0.816444 0.474002 -0.277755
C11   C     C_R   0.703941 0.997921 0.447460 -0.092185
C12   C     C_3   0.926822 0.844882 0.304026 0.341772
C13   C     C_R   0.639302 0.889027 0.444767 -0.002879
C14   C     C_R   0.885843 0.850882 0.511138 0.050514
C15   C     C_R   0.949552 0.963181 0.518469 -0.061737
C16   C     C_R   0.857794 0.037834 0.485184 -0.061649
C17   C     C_R   0.921842 0.150089 0.491885 0.059521
C18   C     C_R   0.166545 0.112250 0.560288 -0.019781
C19   C     C_R   0.103353 0.002943 0.556334 -0.083171
C20   C     C_R   0.616491 0.543741 0.298759 -0.290188
C21   C     C_R   0.461159 0.487466 0.276666 0.067360
C22   C     C_R   0.405457 0.475699 0.204570 -0.123587
C23   C     C_3   0.876913 0.937512 0.264455 -0.407697
C24   C     C_R   0.506483 0.519278 0.154082 -0.017991
C25   C     C_R   0.666211 0.572036 0.177276 -0.140759
C26   C     C_R   0.721353 0.582184 0.249284 0.014914
C27   C     C_R   0.484839 0.591825 0.034709 -0.079138
C28   C     C_R   0.431721 0.580405 0.962569 -0.077676
C29   C     C_R   0.341055 0.483533 0.930925 0.061107
C30   C     C_R   0.302946 0.398860 0.973657 -0.078680
C31   C     C_R   0.355718 0.410429 0.045986 -0.076812
C32   C     C_R   0.447920 0.506986 0.077378 0.064108
C33   C     C_R   0.130703 0.417152 0.827648 -0.137496
C34   C     C_3   0.759893 0.315786 0.320936 0.312542
C35   C     C_R   0.081683 0.408561 0.754901 0.009005
C36   C     C_R   0.342682 0.507705 0.732881 0.048572
C37   C     C_R   0.393301 0.516876 0.805233 -0.122342
C38   C     C_R   0.288461 0.470836 0.853603 -0.008305
C39   C     C_R   0.190541 0.449848 0.707839 -0.267511
C40   C     C_3   0.730169 0.285975 0.241529 -0.400380
C41   C     C_3   0.043709 0.679408 0.678275 0.303158
C42   C     C_3   0.078062 0.707624 0.757713 -0.402063
C43   C     C_3   0.254273 0.229407 0.383725 0.280234
C44   C     C_3   0.243616 0.108326 0.369380 -0.339836
H1    H     H_    0.335293 0.713261 0.276960 0.093837
H2    H     H_    0.622504 0.221890 0.229942 0.126472
H3    H     H_    0.705409 0.356943 0.213737 0.065175
H4    H     H_    0.840822 0.256465 0.221243 0.124457
H5    H     H_    0.150755 0.647668 0.657112 0.021546
H6    H     H_    0.933875 0.617141 0.668582 0.069742
H7    H     H_    0.193976 0.764851 0.769103 0.132049
H8    H     H_    0.090413 0.634300 0.785096 0.065454
H9    H     H_    0.974629 0.745209 0.778671 0.117909
H10   H     H_    0.130936 0.249908 0.393300 0.007226
H11   H     H_    0.341299 0.255077 0.431389 0.074482
H12   H     H_    0.259345 0.832058 0.185895 0.153667
H13   H     H_    0.164558 0.080872 0.319918 0.115680
H14   H     H_    0.190223 0.067286 0.413467 0.077518
H15   H     H_    0.368568 0.086413 0.363424 0.142149
H16   H     H_    0.548332 0.776006 0.281816 -0.064726
H17   H     H_    0.420392 0.756951 0.159309 0.067999
H18   H     H_    0.718899 0.799589 0.678816 0.040736
H19   H     H_    0.622547 0.722729 0.599260 0.024875
H20   H     H_    0.478334 0.916322 0.663881 0.143433
H21   H     H_    0.637028 0.929231 0.602908 0.064553
H22   H     H_    0.441256 0.849836 0.576070 0.145650
H23   H     H_    0.470134 0.897506 0.191111 0.106894
H24   H     H_    0.769722 0.907868 0.225663 0.113059
H25   H     H_    0.779966 0.143541 0.645796 0.083240
H26   H     H_    0.985103 0.170545 0.690741 -0.068267
H27   H     H_    0.875117 0.981563 0.696469 0.087260
H28   H     H_    0.889836 0.050955 0.784165 0.111788
H29   H     H_    0.693040 0.019353 0.734914 0.132199
H30   H     H_    0.260191 0.214967 0.709926 -0.027955
H31   H     H_    0.350603 0.222819 0.836917 0.040902
H32   H     H_    0.509380 0.283744 0.787030 0.152389
H33   H     H_    0.027080 0.876452 0.345828 0.081571
H34   H     H_    0.521203 0.151735 0.816833 0.124706
H35   H     H_    0.630616 0.050188 0.421054 0.105407
H36   H     H_    0.178262 0.950173 0.581434 0.111862
H37   H     H_    0.123377 0.269191 0.534572 0.066710
H38   H     H_    0.682117 0.732129 0.470282 0.073946
H39   H     H_    0.513055 0.561192 0.823566 0.072731
H40   H     H_    0.460272 0.648179 0.931707 0.058965
H41   H     H_    0.553431 0.667771 0.057288 0.060576
H42   H     H_    0.284052 0.432283 0.188097 0.083769
H43   H     H_    0.235092 0.322792 0.950874 0.059767
H44   H     H_    0.817596 0.810129 0.329993 -0.053723
H45   H     H_    0.327248 0.342844 0.077022 0.058889
H46   H     H_    0.044217 0.385935 0.863799 0.073542
H47   H     H_    0.749231 0.602319 0.139515 0.076882
H48   H     H_    0.151521 0.444586 0.651894 0.057726
H49   H     H_    0.659935 0.551540 0.354301 0.070002
H50   H     H_    0.842444 0.000630 0.302341 0.094622
H51   H     H_    0.980300 0.972728 0.235349 0.129502
H52   H     H_    0.646836 0.340905 0.340820 0.012346
H53   H     H_    0.863190 0.383028 0.331010 0.063690
O1    O     O_2   0.160820 0.763040 0.533820 -0.458266
O2    O     O_3   0.307628 0.277099 0.323930 -0.635385
O3    O     O_3   0.985012 0.770824 0.256059 -0.595506
O4    O     O_2   0.649470 0.236890 0.466160 -0.467558
O5    O     O_3   0.919320 0.371390 0.464540 -0.494983
O6    O     O_3   0.424350 0.301430 0.591880 -0.465772
O7    O     O_3   0.798087 0.225279 0.353265 -0.643568
O8    O     O_3   0.382770 0.553920 0.582990 -0.464674
O9    O     O_3   0.848220 0.355290 0.626830 -0.482501
O10   O     O_2   0.749869 0.428562 0.750153 -0.483468
O11   O     O_3   0.798330 0.229001 0.744104 -0.590589
O12   O     O_3   0.890970 0.628600 0.535400 -0.495260
O13   O     O_3   0.427530 0.446070 0.416950 -0.491131
O14   O     O_2   0.637430 0.550200 0.669460 -0.464879
O15   O     O_3   0.487326 0.724266 0.690254 -0.645856
O16   O     O_2   0.499957 0.113233 0.544407 -0.487273
O17   O     O_3   0.452806 0.132164 0.677889 -0.582387
O18   O     O_3   0.385950 0.698560 0.408070 -0.484934
O19   O     O_2   0.300016 0.887131 0.450166 -0.488787
O20   O     O_3   0.016229 0.772769 0.646769 -0.645732
O21   O     O_3   0.381631 0.871703 0.320489 -0.605346
O22   O     O_2   0.172860 0.449730 0.330520 -0.463808
O23   O     O_3   0.962080 0.644700 0.373110 -0.481088
O24   O     O_2   0.060099 0.575274 0.248782 -0.491736
P1    P     P_3+3 0.986780 0.745970 0.554690 0.969252
P2    P     P_3+3 0.341450 0.417130 0.341310 0.983018
P3    P     P_3+3 0.932866 0.640596 0.280956 0.954945
P4    P     P_3+3 0.823520 0.254020 0.445250 0.968696
P5    P     P_3+3 0.869897 0.356401 0.719317 0.957440
P6    P     P_3+3 0.427573 0.838117 0.406672 0.946792
P7    P     P_3+3 0.461302 0.584523 0.671246 0.954749
P8    P     P_3+3 0.382673 0.162043 0.593480 0.965296
N1    N     N_3   0.237085 0.055464 0.739203 -0.515116
H54   H     H_    0.313428 0.999211 0.753731 0.179286
H55   H     H_    0.168790 0.070181 0.782162 0.139855

loop_
_geom_bond_atom_site_label_1
_geom_bond_atom_site_label_2
_ccdc_geom_bond_type
C2    H16   S    
C44   H13   S    
C20   H49   S    
C34   C40   S    
C8    H32   S    
C5    C6    S    
O6    P8    S    
O16   P8    D    
C43   C44   S    
O5    P4    S    
C43   H11   S    
C24   C25   A    
C11   C16   A    
C36   P7    S    
C1    H23   S    
Ba1   P2    S    
C16   C17   A    
C31   H45   S    
Ba1   O13   S    
C5    H25   S    
C28   C29   A    
C3    O15   S    
Ba2   O14   S    
C41   H6    S    
C12   O3    S    
C11   H35   S    
Ba2   O8    S    
C29   C38   S    
C10   H38   S    
Ba1   Ba2   S    
Ba2   O9    S    
Ba1   O23   S    
C12   H44   S    
C42   H7    S    
C24   C32   S    
C30   H43   S    
C43   H10   S    
C14   C15   A    
O2    P2    S    
C21   C22   A    
C7    H30   S    
C28   H40   S    
O18   P6    S    
C7    C8    S    
C21   P2    S    
C35   P5    S    
C44   H14   S    
Ba2   P4    S    
C4    H22   S    
C20   C26   A    
Ba2   O13   S    
O15   P7    S    
O8    P7    S    
Ba1   O1    S    
C8    H31   S    
C26   P3    S    
C31   C32   A    
C36   C37   A    
C9    C18   A    
Ba2   O12   S    
O14   P7    D    
C44   H15   S    
C34   O7    S    
O21   P6    S    
C10   C14   A    
C36   C39   A    
C3    H19   S    
C37   C38   A    
C8    H34   S    
N1    H54   S    
O24   P3    D    
C40   H2    S    
C9    H37   S    
O20   P1    S    
O7    P4    S    
C6    H29   S    
C15   C19   A    
C3    H18   S    
O1    P1    D    
O23   P3    S    
C41   C42   S    
O22   P2    D    
C27   C28   A    
O10   P5    D    
C39   H48   S    
C13   P6    S    
C10   C13   A    
Ba2   O5    S    
C9    C17   A    
C6    H28   S    
C15   C16   A    
Ba1   O18   S    
C12   H33   S    
O9    P5    S    
C22   H42   S    
Ba1   O5    S    
O13   P2    S    
C43   O2    S    
C40   H4    S    
C23   H51   S    
C4    H21   S    
Ba1   O8    S    
C11   C13   A    
C25   H47   S    
C37   H39   S    
C18   P8    S    
C1    C2    S    
C5    H26   S    
O4    P4    D    
C7    N1    S    
C33   C35   A    
O12   P1    S    
C7    O17   S    
C29   C30   A    
C22   C24   A    
O3    P3    S    
C1    H17   S    
Ba2   O6    S    
C5    O11   S    
C30   C31   A    
C33   C38   A    
C14   P1    S    
Ba1   P1    S    
O19   P6    D    
C33   H46   S    
C19   H36   S    
C42   H9    S    
C41   H5    S    
C3    C4    S    
O17   P8    S    
Ba2   O4    S    
C27   C32   A    
C17   P4    S    
C6    H27   S    
C34   H53   S    
C12   C23   S    
C35   C39   A    
Ba1   O22   S    
C27   H41   S    
C40   H3    S    
C1    H12   S    
C42   H8    S    
C4    H20   S    
C18   C19   A    
C23   H50   S    
N1    H55   S    
O11   P5    S    
C25   C26   A    
C20   C21   A    
C2    O21   S    
C34   H52   S    
C23   H24   S    
Ba1   O12   S    
C41   O20   S    
C2    H1    S    
