data_mof_unit_62612.cif
_audit_creation_date              2012-12-10T16:57:53-0500
_audit_creation_method            fapswitch 2.2
_symmetry_space_group_name_H-M    P1
_symmetry_Int_Tables_number       1
_space_group_crystal_system       triclinic
_cell_length_a                    13.131588
_cell_length_b                    13.071597
_cell_length_c                    15.110704
_cell_angle_alpha                 86.729086
_cell_angle_beta                  100.103049
_cell_angle_gamma                 91.396837
_cell_volume                      2549.11315165

loop_
_atom_site_label
_atom_site_type_symbol
_atom_type_description
_atom_site_fract_x
_atom_site_fract_y
_atom_site_fract_z
_atom_type_partial_charge
Br1   Br    Br    0.596644 0.328385 0.861487 -0.315034
Br2   Br    Br    0.564475 0.054294 0.664156 -0.297894
Br3   Br    Br    0.113643 0.659781 0.513823 -0.499763
Br4   Br    Br    0.058655 0.312880 0.446996 -0.465750
Br5   Br    Br    0.465781 0.221471 0.999879 -0.292802
Br6   Br    Br    0.462944 0.770065 0.994475 -0.377671
C1    C     C_R   0.466364 0.773705 0.465456 0.542228
C2    C     C_2   0.531172 0.059491 0.470651 -0.146691
C3    C     C_2   0.462483 0.885901 0.448295 -0.038555
C4    C     C_R   0.535187 0.226958 0.532808 0.527735
C5    C     C_2   0.543980 0.947044 0.479127 0.267961
C6    C     C_2   0.112275 0.449798 0.466550 0.177294
C7    C     C_2   0.053356 0.527301 0.482562 0.134257
C8    C     C_2   0.887814 0.558289 0.531091 -0.074599
C9    C     C_2   0.941406 0.511097 0.478105 -0.087141
C10   C     C_R   0.776823 0.537705 0.525364 0.512612
C11   C     C_R   0.223642 0.463237 0.474055 0.567324
C12   C     C_R   0.479959 0.370216 0.130933 0.281124
C13   C     C_R   0.513717 0.517795 0.741234 0.554871
C14   C     C_R   0.485948 0.481507 0.259205 0.517521
C15   C     C_R   0.510886 0.529011 0.836377 0.008360
C16   C     C_R   0.478733 0.468627 0.163261 -0.001713
C17   C     C_R   0.488289 0.358902 0.040836 0.222469
C18   C     C_3   0.374684 0.719435 0.764312 -0.032720
C19   C     C_3   0.375622 0.263066 0.200456 -0.067951
C20   C     C_3   0.722379 0.953485 0.499955 -0.050026
C21   C     C_R   0.474731 0.554879 0.104735 -0.144062
C22   C     C_R   0.483557 0.546010 0.014500 -0.065730
C23   C     C_R   0.498106 0.447296 0.983142 -0.030121
C24   C     C_R   0.522303 0.441893 0.895913 0.136697
C25   C     C_R   0.487681 0.624519 0.865412 0.256618
C26   C     C_R   0.480425 0.634293 0.955710 0.182343
C27   C     C_2   0.544747 0.115758 0.543623 0.172340
H1    H     H_    0.902246 0.456513 0.431599 0.189062
H2    H     H_    0.323047 0.253488 0.135055 0.157255
H3    H     H_    0.346156 0.323620 0.237695 0.106299
H4    H     H_    0.736606 0.029436 0.529649 0.160247
H5    H     H_    0.715063 0.961402 0.425312 0.121774
H6    H     H_    0.791202 0.906030 0.525897 0.169465
H7    H     H_    0.925258 0.612611 0.578611 0.167253
H8    H     H_    0.469532 0.628996 0.131873 0.188074
H9    H     H_    0.508998 0.095990 0.403768 0.099587
H10   H     H_    0.392216 0.919093 0.409721 0.084537
H11   H     H_    0.367615 0.788865 0.718010 0.187579
H12   H     H_    0.322912 0.728893 0.814138 0.156910
H13   H     H_    0.348435 0.652660 0.723239 0.099340
H14   H     H_    0.374069 0.189972 0.241315 0.153745
O1    O     O_3   0.500000 0.500000 0.500000 -0.483363
O2    O     O_R   0.563230 0.581310 0.697440 -0.489074
O3    O     O_R   0.421030 0.536630 0.288090 -0.548464
O4    O     O_R   0.459330 0.447650 0.700640 -0.512838
O5    O     O_R   0.556410 0.434400 0.313840 -0.497515
O6    O     O_3   0.478989 0.710317 0.806657 -0.491649
O7    O     O_3   0.478463 0.283977 0.188485 -0.518231
O8    O     O_3   0.634991 0.904054 0.526549 -0.498235
O9    O     O_R   0.733070 0.467190 0.476550 -0.530383
O10   O     O_R   0.261010 0.525210 0.419080 -0.511870
O11   O     O_R   0.532760 0.736590 0.530220 -0.467062
O12   O     O_R   0.473150 0.271000 0.574150 -0.490940
O13   O     O_R   0.407210 0.713280 0.414580 -0.528009
O14   O     O_R   0.586880 0.279120 0.481060 -0.540443
O15   O     O_R   0.723250 0.592730 0.566440 -0.519789
O16   O     O_R   0.282660 0.414860 0.537920 -0.515232
Zn1   Zn    Zn3+2 0.592480 0.421540 0.443840 0.987698
Zn2   Zn    Zn3+2 0.578450 0.600910 0.572270 1.033853
Zn3   Zn    Zn3+2 0.430000 0.409940 0.576840 1.025552
Zn4   Zn    Zn3+2 0.399070 0.567610 0.407050 0.981338

loop_
_geom_bond_atom_site_label_1
_geom_bond_atom_site_label_2
_ccdc_geom_bond_type
C6    C11   S    
O14   Zn1   S    
Br6   C26   S    
O9    Zn1   S    
C20   H4    S    
C23   C24   A    
C25   O6    S    
O1    Zn2   S    
Br4   C6    S    
C3    C5    D    
O3    Zn4   S    
C21   H8    S    
C9    H1    S    
C25   C26   A    
Br3   C7    S    
C2    H9    S    
C2    C27   D    
C18   H13   S    
C20   O8    S    
C10   O9    A    
C4    O12   A    
O16   Zn3   S    
C15   C24   A    
C14   O5    A    
C11   O16   A    
C6    C7    D    
C15   C25   A    
O2    Zn2   S    
C19   H2    S    
C2    C5    S    
C18   H12   S    
C17   C23   A    
Br2   C27   S    
C22   C23   A    
C13   C15   S    
O10   Zn4   S    
C4    C27   S    
C16   C21   A    
C7    C9    S    
O12   Zn3   S    
C18   H11   S    
C8    C10   S    
C20   H6    S    
O1    Zn1   S    
C4    O14   A    
C3    H10   S    
C12   O7    S    
C19   H3    S    
C8    H7    S    
C12   C17   A    
C1    O11   A    
C13   O4    A    
C1    O13   A    
C22   C26   A    
C5    O8    S    
C19   O7    S    
O5    Zn1   S    
C11   O10   A    
C21   C22   A    
C1    C3    S    
C13   O2    A    
C8    C9    D    
Br1   C24   S    
C14   O3    A    
C19   H14   S    
O11   Zn2   S    
O15   Zn2   S    
O1    Zn3   S    
C18   O6    S    
C12   C16   A    
C10   O15   A    
C20   H5    S    
O4    Zn3   S    
O13   Zn4   S    
C14   C16   S    
O1    Zn4   S    
Br5   C17   S    
