data_mof_unit_37503.cif
_audit_creation_date              2012-12-10T17:52:26-0500
_audit_creation_method            fapswitch 2.2
_symmetry_space_group_name_H-M    P1
_symmetry_Int_Tables_number       1
_space_group_crystal_system       triclinic
_cell_length_a                    18.736787
_cell_length_b                    10.604418
_cell_length_c                    10.013291
_cell_angle_alpha                 87.329221
_cell_angle_beta                  88.599003
_cell_angle_gamma                 94.529159
_cell_volume                      1980.41017851

loop_
_atom_site_label
_atom_site_type_symbol
_atom_type_description
_atom_site_fract_x
_atom_site_fract_y
_atom_site_fract_z
_atom_type_partial_charge
C1    C     C_R   0.512794 0.264095 0.502576 0.925125
C2    C     C_R   0.861861 0.600018 0.482743 -0.100964
C3    C     C_R   0.538559 0.093861 0.756739 0.394190
C4    C     C_R   0.366278 0.518102 0.499848 0.952922
C5    C     C_R   0.504780 0.022328 0.868446 0.003548
C6    C     C_R   0.453041 0.922131 0.845447 0.350107
C7    C     C_R   0.442377 0.885701 0.712694 0.344753
C8    C     C_R   0.488744 0.939956 0.609534 -0.113670
C9    C     C_R   0.521448 0.058843 0.626639 -0.100526
C10   C     C_R   0.536541 0.135836 0.510073 -0.125753
C11   C     C_R   0.558924 0.079712 0.393436 0.145979
C12   C     C_R   0.296268 0.578899 0.495112 -0.228359
C13   C     C_R   0.547999 0.947942 0.387964 0.384832
C14   C     C_R   0.506842 0.878780 0.492428 -0.179530
C15   C     C_R   0.383087 0.376787 0.151881 0.559989
C16   C     C_R   0.499982 0.741398 0.496977 0.928888
C17   C     C_R   0.316381 0.362863 0.092643 0.074561
C18   C     C_R   0.316250 0.342368 0.956675 0.115482
C19   C     C_R   0.382209 0.362961 0.882191 0.164331
C20   C     C_R   0.442175 0.437281 0.935378 -0.076508
C21   C     C_R   0.442624 0.439157 0.078680 -0.075257
C22   C     C_R   0.552592 0.564761 0.067784 0.503568
C23   C     C_R   0.939897 0.629645 0.482955 0.375589
C24   C     C_R   0.552024 0.567275 0.924302 0.338798
C25   C     C_R   0.635948 0.498669 0.498085 0.866624
C26   C     C_R   0.257873 0.606340 0.613406 0.093389
C27   C     C_R   0.194954 0.668914 0.605000 0.392495
C28   C     C_R   0.162371 0.681971 0.480949 -0.168555
C29   C     C_R   0.200814 0.664820 0.362580 0.318328
C30   C     C_R   0.271008 0.624302 0.369959 0.284098
C31   C     C_3   0.278280 0.557664 0.748490 -0.721687
C32   C     C_3   0.520424 0.056708 0.009622 -0.736697
C33   C     C_3   0.248546 0.342032 0.178709 -0.858384
C34   C     C_R   0.084050 0.669894 0.481750 0.351380
C35   C     C_3   0.249921 0.272671 0.901110 -0.867424
C36   C     C_3   0.395419 0.257313 0.795043 -0.763902
C37   C     C_3   0.726958 0.442659 0.738133 -0.777844
C38   C     C_3   0.865373 0.605985 0.228292 -0.724396
C39   C     C_3   0.604023 0.157750 0.287791 -0.809867
C40   C     C_R   0.826163 0.569289 0.606694 0.435107
C41   C     C_R   0.755284 0.513515 0.610836 0.014917
C42   C     C_R   0.715908 0.510616 0.491912 -0.264445
C43   C     C_R   0.753376 0.535667 0.366880 0.418231
C44   C     C_R   0.825853 0.581856 0.362136 0.054434
H1    H     H_    0.329739 0.603120 0.780454 0.262152
H2    H     H_    0.603900 0.819206 0.321039 0.359704
H3    H     H_    0.641356 0.674783 0.071655 0.383908
H4    H     H_    0.353257 0.238193 0.282929 0.321807
H5    H     H_    0.258101 0.368890 0.282992 0.247498
H6    H     H_    0.207346 0.401936 0.138421 0.253823
H7    H     H_    0.227700 0.241008 0.181377 0.244028
H8    H     H_    0.255816 0.253943 0.793516 0.236015
H9    H     H_    0.238513 0.179406 0.955653 0.260279
H10   H     H_    0.202966 0.329251 0.912558 0.257002
H11   H     H_    0.379401 0.277094 0.691008 0.249647
H12   H     H_    0.237659 0.566644 0.829195 0.270792
H13   H     H_    0.450919 0.239390 0.808604 0.261808
H14   H     H_    0.366341 0.166192 0.831221 0.215438
H15   H     H_    0.126216 0.764976 0.698133 0.345745
H16   H     H_    0.589644 0.659501 0.764093 0.391522
H17   H     H_    0.190032 0.630455 0.174368 0.346082
H18   H     H_    0.301345 0.695012 0.193002 0.355097
H19   H     H_    0.828571 0.597969 0.797936 0.350942
H20   H     H_    0.770355 0.394175 0.787743 0.238231
H21   H     H_    0.705121 0.508504 0.808201 0.278618
H22   H     H_    0.685929 0.366101 0.716901 0.289009
H23   H     H_    0.282610 0.456714 0.736878 0.227147
H24   H     H_    0.696016 0.426455 0.257317 0.338629
H25   H     H_    0.913183 0.550489 0.225406 0.229394
H26   H     H_    0.832529 0.578790 0.142037 0.274292
H27   H     H_    0.882204 0.708408 0.212759 0.244019
H28   H     H_    0.638177 0.099035 0.228447 0.267630
H29   H     H_    0.569724 0.209109 0.219031 0.248844
H30   H     H_    0.640853 0.227481 0.336579 0.201959
H31   H     H_    0.593627 0.215201 0.864460 0.335285
H32   H     H_    0.505056 0.154057 0.025221 0.197454
H33   H     H_    0.490792 0.992606 0.086170 0.323361
H34   H     H_    0.578373 0.051093 0.026553 0.244300
H35   H     H_    0.397243 0.774298 0.926786 0.340452
H36   H     H_    0.344180 0.820262 0.740110 0.341882
N1    N     N_R   0.045312 0.742052 0.399978 -0.099199
N2    N     N_R   0.974103 0.722506 0.401191 -0.175980
N3    N     N_R   0.979082 0.557953 0.563561 -0.099489
N4    N     N_R   0.049683 0.577885 0.563164 -0.148951
N5    N     N_R   0.499340 0.498800 0.142780 -0.130910
N6    N     N_R   0.499320 0.498720 0.857170 -0.145363
O1    O     O_R   0.500000 0.316780 0.614690 -0.596288
O2    O     O_3   0.416026 0.859243 0.953117 -0.754344
O3    O     O_3   0.384886 0.805756 0.679134 -0.772613
O4    O     O_3   0.578289 0.890025 0.282570 -0.732979
O5    O     O_3   0.604694 0.633175 0.135368 -0.681995
O6    O     O_3   0.393856 0.302937 0.264505 -0.732654
O7    O     O_3   0.162048 0.704129 0.721320 -0.743184
O8    O     O_3   0.604678 0.643988 0.855974 -0.804427
O9    O     O_3   0.166854 0.679644 0.242466 -0.733771
O10   O     O_3   0.314791 0.627086 0.256622 -0.743600
O11   O     O_3   0.863071 0.591856 0.722486 -0.741957
O12   O     O_R   0.499990 0.316750 0.385360 -0.557491
O13   O     O_3   0.720989 0.512380 0.247550 -0.725238
O14   O     O_R   0.398140 0.500000 0.614700 -0.615200
O15   O     O_R   0.398130 0.499970 0.385370 -0.508066
O16   O     O_R   0.500010 0.683250 0.614640 -0.618482
O17   O     O_R   0.500000 0.683220 0.385310 -0.561232
O18   O     O_R   0.601870 0.500030 0.614630 -0.603557
O19   O     O_R   0.601860 0.500000 0.385300 -0.568732
O20   O     O_3   0.588150 0.195968 0.769600 -0.764290
Zn1   Zn    Zn3+2 0.500000 0.500020 0.653130 0.965022
Zn2   Zn    Zn3+2 0.500000 0.499980 0.346870 1.063275

loop_
_geom_bond_atom_site_label_1
_geom_bond_atom_site_label_2
_ccdc_geom_bond_type
C1    O1    A    
C38   H26   S    
C23   N2    A    
H18   O10   S    
C13   O4    S    
C35   H9    S    
C41   C42   A    
C19   C20   A    
N1    N2    A    
C25   O19   A    
C7    C8    A    
C31   H23   S    
C26   C27   A    
C23   N3    A    
C28   C29   A    
C43   O13   S    
C36   H14   S    
C19   C36   S    
C5    C6    A    
C39   H30   S    
C33   H5    S    
C34   N4    A    
C6    O2    S    
C18   C19   A    
C22   N5    A    
H36   O3    S    
C30   O10   S    
C32   H33   S    
N6    Zn1   S    
C37   H21   S    
C2    C44   A    
C8    C9    A    
C20   N6    A    
C22   O5    S    
O17   Zn2   S    
C34   N1    A    
C31   H12   S    
C4    C12   S    
N5    Zn2   S    
C9    C10   A    
C5    C32   S    
O15   Zn2   S    
C15   O6    S    
C38   H25   S    
C28   C34   S    
C26   C31   S    
C13   C14   A    
C4    O15   A    
C35   H10   S    
C17   C33   S    
H35   O2    S    
C3    O20   S    
O19   Zn2   S    
C21   N5    A    
C36   H13   S    
C40   O11   S    
C29   O9    S    
C33   H6    S    
C12   C26   A    
C1    O12   A    
C43   C44   A    
C38   C44   S    
C29   C30   A    
C3    C9    A    
C24   O8    S    
C16   O17   A    
N3    N4    A    
C39   H28   S    
C37   H22   S    
C17   C18   A    
O16   Zn1   S    
C11   C39   S    
C16   O16   A    
C40   C41   A    
C4    O14   A    
C31   H1    S    
C14   C16   S    
C27   O7    S    
C42   C43   A    
C35   H8    S    
C37   H20   S    
C18   C35   S    
C15   C17   A    
C38   H27   S    
O14   Zn1   S    
C8    C14   A    
C12   C30   A    
O12   Zn2   S    
H3    O5    S    
C1    C10   S    
C3    C5    A    
C25   C42   S    
C32   H32   S    
H17   O9    S    
C25   O18   A    
C6    C7    A    
H2    O4    S    
C33   H7    S    
H24   O13   S    
H19   O11   S    
C36   H11   S    
C11   C13   A    
C22   C24   A    
C39   H29   S    
C37   C41   S    
C10   C11   A    
C32   H34   S    
C2    C40   A    
C15   C21   A    
O1    Zn1   S    
C20   C21   A    
H31   O20   S    
H4    O6    S    
C2    C23   S    
H15   O7    S    
C24   N6    A    
O18   Zn1   S    
H16   O8    S    
C27   C28   A    
C7    O3    S    
