data_mof_unit_41441.cif
_audit_creation_date              2012-12-10T17:21:02-0500
_audit_creation_method            fapswitch 2.2
_symmetry_space_group_name_H-M    P1
_symmetry_Int_Tables_number       1
_space_group_crystal_system       triclinic
_cell_length_a                    18.294116
_cell_length_b                    25.863256
_cell_length_c                    18.265302
_cell_angle_alpha                 89.99245
_cell_angle_beta                  90.05716
_cell_angle_gamma                 90.002024
_cell_volume                      8642.13933858

loop_
_atom_site_label
_atom_site_type_symbol
_atom_type_description
_atom_site_fract_x
_atom_site_fract_y
_atom_site_fract_z
_atom_type_partial_charge
C1    C     C_R   0.389757 0.250035 0.139801 0.785222
C2    C     C_R   0.389766 0.749991 0.860167 0.786242
C3    C     C_R   0.389790 0.749944 0.139776 0.786224
C4    C     C_R   0.389785 0.250038 0.860174 0.785391
C5    C     C_R   0.889783 0.750041 0.639789 0.784529
C6    C     C_R   0.889788 0.249962 0.360179 0.785364
C7    C     C_R   0.889757 0.249964 0.639804 0.785325
C8    C     C_R   0.889827 0.750085 0.360225 0.786335
C9    C     C_R   0.579371 0.655682 0.116607 -0.123734
C10   C     C_R   0.603518 0.306676 0.907671 -0.129524
C11   C     C_R   0.573925 0.350004 0.121854 -0.137776
C12   C     C_R   0.572671 0.648638 0.876763 -0.120952
C13   C     C_R   0.073952 0.150036 0.621851 -0.137724
C14   C     C_R   0.072549 0.851742 0.376167 -0.129239
C15   C     C_R   0.095416 0.822260 0.600491 -0.124859
C16   C     C_R   0.103527 0.193338 0.407693 -0.129477
C17   C     C_R   0.517490 0.686627 0.124462 -0.137342
C18   C     C_R   0.533721 0.288277 0.891716 -0.129739
C19   C     C_R   0.513779 0.317225 0.128040 -0.140623
C20   C     C_R   0.513072 0.681979 0.871096 -0.134279
C21   C     C_R   0.013796 0.182800 0.628039 -0.140776
C22   C     C_R   0.012928 0.818396 0.370650 -0.137246
C23   C     C_R   0.028311 0.798520 0.613615 -0.135215
C24   C     C_R   0.033732 0.211738 0.391736 -0.129701
C25   C     C_R   0.508357 0.718445 0.186933 0.067029
C26   C     C_R   0.516559 0.268626 0.821289 0.069183
C27   C     C_R   0.506502 0.283494 0.188721 0.069809
C28   C     C_R   0.506052 0.716054 0.810757 0.065904
C29   C     C_R   0.006511 0.216520 0.688720 0.069828
C30   C     C_R   0.006018 0.784090 0.310582 0.067151
C31   C     C_R   0.013859 0.773909 0.681409 0.068155
C32   C     C_R   0.016564 0.231382 0.321299 0.069162
C33   C     C_R   0.061249 0.216617 0.743239 0.079108
C34   C     C_R   0.060651 0.783961 0.256031 0.074342
C35   C     C_R   0.068475 0.773893 0.736031 0.074355
C36   C     C_R   0.071180 0.231474 0.266772 0.072605
C37   C     C_R   0.562993 0.718484 0.241553 0.075950
C38   C     C_R   0.571182 0.268524 0.766769 0.072598
C39   C     C_R   0.561236 0.283400 0.243245 0.079130
C40   C     C_R   0.560634 0.716036 0.756154 0.075487
C41   C     C_R   0.445876 0.749928 0.195916 -0.144677
C42   C     C_R   0.445877 0.250091 0.804037 -0.151044
C43   C     C_R   0.445829 0.250085 0.195951 -0.147116
C44   C     C_R   0.445879 0.749989 0.804040 -0.145008
C45   C     C_R   0.945825 0.249911 0.695955 -0.147141
C46   C     C_R   0.945881 0.750094 0.304039 -0.145168
C47   C     C_R   0.945885 0.750050 0.695920 -0.147159
C48   C     C_R   0.945882 0.249917 0.304043 -0.151043
C49   C     C_R   0.436960 0.781444 0.258456 0.075858
C50   C     C_R   0.428799 0.231499 0.733240 0.072699
C51   C     C_R   0.438718 0.216682 0.256738 0.078986
C52   C     C_R   0.439402 0.784038 0.743859 0.075641
C53   C     C_R   0.938704 0.283301 0.756743 0.078975
C54   C     C_R   0.939386 0.715962 0.243975 0.074483
C55   C     C_R   0.931516 0.726118 0.763969 0.074260
C56   C     C_R   0.928800 0.268500 0.233237 0.072705
C57   C     C_R   0.993393 0.283354 0.811308 0.067796
C58   C     C_R   0.994063 0.715798 0.189465 0.069405
C59   C     C_R   0.986133 0.726103 0.818591 0.067038
C60   C     C_R   0.983412 0.268585 0.178706 0.069826
C61   C     C_R   0.491565 0.781450 0.313104 0.064929
C62   C     C_R   0.483417 0.231406 0.678717 0.069828
C63   C     C_R   0.493403 0.216632 0.311307 0.067808
C64   C     C_R   0.494034 0.784065 0.689304 0.068160
C65   C     C_R   0.054152 0.250029 0.804016 -0.147119
C66   C     C_R   0.054116 0.749867 0.195942 -0.145233
C67   C     C_R   0.054103 0.749963 0.804079 -0.147073
C68   C     C_R   0.054101 0.250063 0.195966 -0.151271
C69   C     C_R   0.554101 0.750026 0.304074 -0.144720
C70   C     C_R   0.554107 0.249929 0.695972 -0.151276
C71   C     C_R   0.554149 0.249975 0.304021 -0.147090
C72   C     C_R   0.554119 0.750047 0.695947 -0.145084
C73   C     C_R   0.374557 0.813237 0.267644 -0.141299
C74   C     C_R   0.358449 0.211985 0.715866 -0.140650
C75   C     C_R   0.377948 0.183152 0.264351 -0.142333
C76   C     C_R   0.379362 0.818291 0.736884 -0.139967
C77   C     C_R   0.877923 0.316815 0.764359 -0.142456
C78   C     C_R   0.879232 0.681798 0.237040 -0.137336
C79   C     C_R   0.863880 0.701446 0.778475 -0.145162
C80   C     C_R   0.858452 0.288016 0.215860 -0.140656
C81   C     C_R   0.366665 0.844102 0.329682 -0.148667
C82   C     C_R   0.342682 0.193497 0.645973 -0.140337
C83   C     C_R   0.371877 0.150405 0.324639 -0.162542
C84   C     C_R   0.373968 0.851765 0.677305 -0.144461
C85   C     C_R   0.871845 0.349551 0.824645 -0.162413
C86   C     C_R   0.873830 0.648205 0.177618 -0.136969
C87   C     C_R   0.850848 0.677699 0.845694 -0.144627
C88   C     C_R   0.842678 0.306494 0.145956 -0.140357
C89   C     C_R   0.110241 0.250003 0.860166 0.785097
C90   C     C_R   0.110148 0.749902 0.139756 0.786763
C91   C     C_R   0.110206 0.749970 0.860206 0.785099
C92   C     C_R   0.110199 0.250024 0.139830 0.784813
C93   C     C_R   0.610203 0.750032 0.360206 0.786319
C94   C     C_R   0.610202 0.249975 0.639835 0.784869
C95   C     C_R   0.610241 0.249998 0.360170 0.784985
C96   C     C_R   0.610211 0.750020 0.639818 0.786660
C97   C     C_R   0.925751 0.349663 0.878321 -0.131201
C98   C     C_R   0.927790 0.647926 0.124073 -0.135992
C99   C     C_R   0.904591 0.677743 0.899513 -0.121079
C100  C     C_R   0.896423 0.306590 0.092302 -0.132051
C101  C     C_R   0.420393 0.844046 0.383569 -0.117550
C102  C     C_R   0.396435 0.193390 0.592327 -0.132048
C103  C     C_R   0.425781 0.150294 0.378317 -0.131408
C104  C     C_R   0.427692 0.851725 0.623522 -0.127751
C105  C     C_R   0.985962 0.316945 0.872106 -0.135385
C106  C     C_R   0.987317 0.681355 0.129529 -0.142408
C107  C     C_R   0.971688 0.701491 0.886386 -0.129887
C108  C     C_R   0.966227 0.288203 0.108260 -0.134467
C109  C     C_R   0.482327 0.813158 0.375668 -0.131840
C110  C     C_R   0.466239 0.211777 0.608281 -0.134393
C111  C     C_R   0.485981 0.183027 0.372105 -0.135319
C112  C     C_R   0.487193 0.818295 0.629116 -0.139327
C113  C     C_R   0.287485 0.053752 0.130249 -0.138532
C114  C     C_R   0.287045 0.946066 0.130318 -0.139923
C115  C     C_R   0.786752 0.553907 0.630315 -0.140410
C116  C     C_R   0.787334 0.446225 0.630220 -0.138390
C117  C     C_R   0.305531 0.026729 0.193773 -0.130913
C118  C     C_R   0.305253 0.973000 0.193830 -0.136260
C119  C     C_R   0.804831 0.526967 0.693868 -0.136856
C120  C     C_R   0.805200 0.473238 0.693793 -0.131167
C121  C     C_R   0.269068 0.972746 0.064894 0.071407
C122  C     C_R   0.269186 0.027148 0.064870 0.070095
C123  C     C_R   0.769104 0.472840 0.564820 0.070268
C124  C     C_R   0.768942 0.527240 0.564850 0.071416
C125  C     C_R   0.250056 0.946248 0.000030 -0.143290
C126  C     C_R   0.250033 0.053691 0.000030 -0.144249
C127  C     C_R   0.750012 0.446308 0.499967 -0.144251
C128  C     C_R   0.749990 0.553752 0.499972 -0.143297
C129  C     C_R   0.231140 0.972758 0.935142 0.071442
C130  C     C_R   0.230976 0.027158 0.935169 0.070246
C131  C     C_R   0.730832 0.472853 0.435136 0.070085
C132  C     C_R   0.730952 0.527256 0.435116 0.071413
C133  C     C_R   0.213363 0.946088 0.869670 -0.140290
C134  C     C_R   0.212775 0.053770 0.869759 -0.138358
C135  C     C_R   0.712503 0.446252 0.369764 -0.138535
C136  C     C_R   0.712947 0.553937 0.369700 -0.139817
C137  C     C_R   0.195316 0.973025 0.806106 -0.138661
C138  C     C_R   0.194942 0.026754 0.806180 -0.132874
C139  C     C_R   0.694428 0.473277 0.306251 -0.132641
C140  C     C_R   0.694708 0.527005 0.306196 -0.137911
C141  C     C_R   0.250015 0.109336 0.000024 0.789972
C142  C     C_R   0.250020 0.890640 0.000032 0.788656
C143  C     C_R   0.750008 0.609359 0.499975 0.788650
C144  C     C_R   0.750013 0.390664 0.499974 0.789960
C145  C     C_R   0.249994 0.391226 0.999933 0.790408
C146  C     C_R   0.250050 0.608779 0.999942 0.789385
C147  C     C_R   0.750008 0.891222 0.499932 0.789258
C148  C     C_R   0.749970 0.108776 0.499938 0.790458
C149  C     C_3   0.318943 0.469682 0.041724 -0.205091
C150  C     C_3   0.180242 0.530329 0.040016 -0.204778
C151  C     C_3   0.319140 0.530324 0.041421 -0.203940
C152  C     C_3   0.180024 0.469685 0.039629 -0.205738
C153  C     C_3   0.819228 0.969671 0.541145 -0.205098
C154  C     C_3   0.680081 0.030313 0.539806 -0.205816
C155  C     C_3   0.818993 0.030311 0.541548 -0.205290
C156  C     C_3   0.680313 0.969668 0.540218 -0.203631
C157  C     C_3   0.251191 0.470380 0.920252 -0.379746
C158  C     C_3   0.250777 0.529651 0.920262 -0.379276
C159  C     C_3   0.750436 0.970367 0.420235 -0.379482
C160  C     C_3   0.750940 0.029640 0.420242 -0.379560
C161  C     C_3   0.250048 0.449001 0.999998 0.052433
C162  C     C_3   0.250058 0.551013 0.000019 0.053132
C163  C     C_3   0.749996 0.948990 0.499992 0.053013
C164  C     C_3   0.750005 0.051002 0.499999 0.052475
C165  C     C_R   0.122016 0.183092 0.735613 -0.142220
C166  C     C_R   0.120854 0.818081 0.262987 -0.137374
C167  C     C_R   0.136116 0.798559 0.721529 -0.145046
C168  C     C_R   0.141526 0.211957 0.284154 -0.140515
C169  C     C_R   0.625371 0.686665 0.232381 -0.141124
C170  C     C_R   0.641530 0.288039 0.784148 -0.140519
C171  C     C_R   0.621990 0.316941 0.235622 -0.142129
C172  C     C_R   0.620716 0.681821 0.763150 -0.140035
C173  C     C_R   0.127977 0.150254 0.675416 -0.160711
C174  C     C_R   0.126406 0.851546 0.322528 -0.138723
C175  C     C_R   0.149157 0.822301 0.654311 -0.143825
C176  C     C_R   0.157284 0.193456 0.354051 -0.140822
C177  C     C_R   0.633171 0.655702 0.170426 -0.146898
C178  C     C_R   0.657282 0.306548 0.854036 -0.140780
C179  C     C_R   0.627945 0.349790 0.175423 -0.160893
C180  C     C_R   0.626270 0.648490 0.822864 -0.146145
H1    H     H_    0.331370 0.814620 0.227134 0.108107
H2    H     H_    0.315013 0.210461 0.755948 0.123749
H3    H     H_    0.334650 0.181865 0.223961 0.105191
H4    H     H_    0.336169 0.819647 0.777300 0.108581
H5    H     H_    0.834623 0.318100 0.723970 0.105219
H6    H     H_    0.835921 0.680626 0.277344 0.109673
H7    H     H_    0.820570 0.700009 0.738124 0.115614
H8    H     H_    0.815022 0.289550 0.255946 0.123748
H9    H     H_    0.825102 0.374937 0.829737 0.120373
H10   H     H_    0.827629 0.622233 0.173189 0.124250
H11   H     H_    0.798918 0.659048 0.855980 0.128526
H12   H     H_    0.788627 0.321058 0.133483 0.134198
H13   H     H_    0.318668 0.868171 0.335930 0.120173
H14   H     H_    0.288630 0.178935 0.633501 0.134183
H15   H     H_    0.325141 0.125009 0.329730 0.120260
H16   H     H_    0.327955 0.877896 0.672924 0.123639
H17   H     H_    0.026473 0.318328 0.915290 0.121390
H18   H     H_    0.027872 0.679816 0.086470 0.120135
H19   H     H_    0.011996 0.700098 0.929748 0.124265
H20   H     H_    0.006394 0.289896 0.064903 0.127986
H21   H     H_    0.522725 0.814456 0.418970 0.122278
H22   H     H_    0.506412 0.210076 0.564931 0.127976
H23   H     H_    0.526491 0.181646 0.415291 0.121367
H24   H     H_    0.527637 0.819651 0.585938 0.120563
H25   H     H_    0.181101 0.047589 0.756700 0.132142
H26   H     H_    0.181836 0.952099 0.756560 0.133783
H27   H     H_    0.680999 0.547925 0.256711 0.131118
H28   H     H_    0.680452 0.452450 0.256810 0.131992
H29   H     H_    0.287731 0.095541 0.133174 0.119073
H30   H     H_    0.286927 0.904276 0.133287 0.117787
H31   H     H_    0.786554 0.595696 0.633294 0.118970
H32   H     H_    0.787625 0.404436 0.633136 0.119104
H33   H     H_    0.319482 0.047560 0.243220 0.132832
H34   H     H_    0.318941 0.952081 0.243322 0.131987
H35   H     H_    0.818336 0.547892 0.743409 0.134872
H36   H     H_    0.819063 0.452400 0.743264 0.133081
H37   H     H_    0.314932 0.456957 0.099822 0.137654
H38   H     H_    0.182959 0.543013 0.098209 0.136957
H39   H     H_    0.315719 0.543343 0.099421 0.137209
H40   H     H_    0.182031 0.456595 0.097674 0.136724
H41   H     H_    0.816068 0.956588 0.599136 0.137221
H42   H     H_    0.682219 0.043404 0.597841 0.136709
H43   H     H_    0.815085 0.042977 0.599674 0.137623
H44   H     H_    0.683225 0.956983 0.598406 0.136895
H45   H     H_    0.213565 0.904299 0.866692 0.118711
H46   H     H_    0.212480 0.095559 0.866842 0.118866
H47   H     H_    0.712255 0.404464 0.366836 0.118894
H48   H     H_    0.713068 0.595727 0.366731 0.117632
H49   H     H_    0.300632 0.456407 0.890826 0.196010
H50   H     H_    0.202026 0.543613 0.889591 0.196721
H51   H     H_    0.299735 0.543955 0.890339 0.196100
H52   H     H_    0.202943 0.456104 0.889078 0.196702
H53   H     H_    0.799252 0.956042 0.390109 0.196097
H54   H     H_    0.702648 0.043957 0.389173 0.196656
H55   H     H_    0.800341 0.043585 0.390715 0.196073
H56   H     H_    0.701545 0.956440 0.389757 0.196711
H57   H     H_    0.920917 0.375226 0.924980 0.141730
H58   H     H_    0.923569 0.621655 0.078142 0.138350
H59   H     H_    0.894355 0.659137 0.951568 0.133101
H60   H     H_    0.884090 0.321227 0.038181 0.134156
H61   H     H_    0.414124 0.868073 0.431675 0.135790
H62   H     H_    0.384107 0.178744 0.538214 0.134158
H63   H     H_    0.420953 0.124723 0.424977 0.141583
H64   H     H_    0.423326 0.877750 0.577306 0.137077
H65   H     H_    0.165375 0.181861 0.775941 0.104680
H66   H     H_    0.164117 0.819293 0.222635 0.110171
H67   H     H_    0.179424 0.799995 0.761882 0.115170
H68   H     H_    0.184963 0.210435 0.244074 0.124188
H69   H     H_    0.668593 0.685320 0.272857 0.107633
H70   H     H_    0.684973 0.289552 0.744074 0.124188
H71   H     H_    0.665346 0.318175 0.275954 0.104656
H72   H     H_    0.663850 0.680411 0.722674 0.109118
H73   H     H_    0.174706 0.124857 0.670322 0.119807
H74   H     H_    0.172659 0.877469 0.326995 0.124714
H75   H     H_    0.201095 0.840946 0.644029 0.128472
H76   H     H_    0.211331 0.178888 0.366528 0.134149
H77   H     H_    0.681142 0.631603 0.164202 0.119864
H78   H     H_    0.711330 0.321113 0.866512 0.134137
H79   H     H_    0.674667 0.375198 0.170332 0.119730
H80   H     H_    0.672328 0.622402 0.827282 0.124229
H81   H     H_    0.585540 0.631554 0.068589 0.134232
H82   H     H_    0.615829 0.321346 0.961778 0.134752
H83   H     H_    0.578611 0.375685 0.075295 0.140355
H84   H     H_    0.577227 0.622764 0.923123 0.139559
H85   H     H_    0.078643 0.124362 0.575294 0.140462
H86   H     H_    0.076940 0.877888 0.422216 0.140634
H87   H     H_    0.105663 0.840861 0.548438 0.132414
H88   H     H_    0.115843 0.178675 0.461807 0.134757
H89   H     H_    0.477034 0.685264 0.081216 0.120056
H90   H     H_    0.493540 0.289991 0.935057 0.128828
H91   H     H_    0.473180 0.318691 0.084939 0.119645
H92   H     H_    0.472723 0.680712 0.914365 0.122860
H93   H     H_    0.973194 0.181330 0.584943 0.119652
H94   H     H_    0.972457 0.819860 0.413788 0.122401
H95   H     H_    0.988005 0.799916 0.570252 0.123110
H96   H     H_    0.993556 0.210032 0.435083 0.128859
O1    O     O_3   0.249990 0.250010 0.000000 -0.491557
O2    O     O_3   0.249990 0.749990 0.000000 -0.492686
O3    O     O_3   0.749990 0.750010 0.500000 -0.492658
O4    O     O_3   0.749990 0.249990 0.500000 -0.491559
O5    O     O_R   0.335430 0.280650 0.146160 -0.636471
O6    O     O_R   0.335430 0.719350 0.853840 -0.634806
O7    O     O_R   0.335430 0.719350 0.146160 -0.634877
O8    O     O_R   0.335430 0.280650 0.853840 -0.635518
O9    O     O_R   0.835430 0.780650 0.646160 -0.635288
O10   O     O_R   0.835430 0.219350 0.353840 -0.635451
O11   O     O_R   0.835430 0.219350 0.646160 -0.636502
O12   O     O_R   0.835430 0.780650 0.353840 -0.633812
O13   O     O_R   0.164550 0.280640 0.853840 -0.634996
O14   O     O_R   0.164550 0.719360 0.146160 -0.635254
O15   O     O_R   0.164550 0.719360 0.853840 -0.633434
O16   O     O_R   0.164550 0.280640 0.146160 -0.637285
O17   O     O_R   0.664550 0.780640 0.353840 -0.633168
O18   O     O_R   0.664550 0.219360 0.646160 -0.637321
O19   O     O_R   0.664550 0.219360 0.353840 -0.635001
O20   O     O_R   0.664550 0.780640 0.646160 -0.636212
O21   O     O_R   0.396160 0.219380 0.914560 -0.635740
O22   O     O_R   0.396160 0.780620 0.085440 -0.634121
O23   O     O_R   0.396160 0.780620 0.914560 -0.632810
O24   O     O_R   0.396160 0.219380 0.085440 -0.635466
O25   O     O_R   0.896160 0.719380 0.414560 -0.633766
O26   O     O_R   0.896160 0.280620 0.585440 -0.635455
O27   O     O_R   0.896160 0.280620 0.414560 -0.635804
O28   O     O_R   0.896160 0.719380 0.585440 -0.635395
O29   O     O_R   0.103840 0.219370 0.085450 -0.634691
O30   O     O_R   0.103840 0.780630 0.914550 -0.636455
O31   O     O_R   0.103840 0.780630 0.085450 -0.633014
O32   O     O_R   0.103840 0.219370 0.914550 -0.636276
O33   O     O_R   0.603840 0.719370 0.585450 -0.632054
O34   O     O_R   0.603840 0.280630 0.414550 -0.636275
O35   O     O_R   0.603840 0.280630 0.585450 -0.634638
O36   O     O_R   0.603840 0.719370 0.414550 -0.634995
O37   O     O_R   0.310730 0.133160 0.000000 -0.636082
O38   O     O_R   0.310730 0.866840 0.000000 -0.636706
O39   O     O_R   0.810730 0.633160 0.500000 -0.636490
O40   O     O_R   0.810730 0.366840 0.500000 -0.636158
O41   O     O_R   0.249970 0.366860 0.060720 -0.650707
O42   O     O_R   0.249970 0.633140 0.939280 -0.640590
O43   O     O_R   0.249970 0.633140 0.060720 -0.651628
O44   O     O_R   0.249970 0.366860 0.939280 -0.640262
O45   O     O_R   0.749970 0.866860 0.560720 -0.651075
O46   O     O_R   0.749970 0.133140 0.439280 -0.640262
O47   O     O_R   0.749970 0.133140 0.560720 -0.650723
O48   O     O_R   0.749970 0.866860 0.439280 -0.641159
O49   O     O_R   0.189290 0.133150 0.000000 -0.635949
O50   O     O_R   0.189290 0.866850 0.000000 -0.636423
O51   O     O_R   0.689290 0.633150 0.500000 -0.636613
O52   O     O_R   0.689290 0.366850 0.500000 -0.635878
Zn1   Zn    Zn3+2 0.249990 0.293780 0.913250 0.968947
Zn2   Zn    Zn3+2 0.249990 0.706220 0.086750 0.964868
Zn3   Zn    Zn3+2 0.249990 0.706220 0.913250 0.969487
Zn4   Zn    Zn3+2 0.249990 0.293780 0.086750 0.963513
Zn5   Zn    Zn3+2 0.749990 0.793780 0.413250 0.970096
Zn6   Zn    Zn3+2 0.749990 0.206220 0.586750 0.963533
Zn7   Zn    Zn3+2 0.749990 0.206220 0.413250 0.968936
Zn8   Zn    Zn3+2 0.749990 0.793780 0.586750 0.964039
Zn9   Zn    Zn3+2 0.336760 0.206240 0.000000 0.965527
Zn10  Zn    Zn3+2 0.336760 0.793760 0.000000 0.966928
Zn11  Zn    Zn3+2 0.836760 0.706240 0.500000 0.965788
Zn12  Zn    Zn3+2 0.836760 0.293760 0.500000 0.965480
Zn13  Zn    Zn3+2 0.163250 0.206230 0.000000 0.965513
Zn14  Zn    Zn3+2 0.163250 0.793770 0.000000 0.965953
Zn15  Zn    Zn3+2 0.663250 0.706230 0.500000 0.967119
Zn16  Zn    Zn3+2 0.663250 0.293770 0.500000 0.965564
C181  C     C_1   0.387435 0.446163 0.013510 0.183514
N1    N     N_1   0.440720 0.427696 0.991579 -0.229911
C182  C     C_1   0.112411 0.553902 0.010164 0.182476
N2    N     N_1   0.059648 0.572414 0.986958 -0.232320
C183  C     C_1   0.387517 0.553480 0.012351 0.184788
N3    N     N_1   0.440732 0.571650 0.989764 -0.241389
C184  C     C_1   0.112370 0.446608 0.008672 0.185953
N4    N     N_1   0.059724 0.428508 0.984584 -0.232536
C185  C     C_1   0.887486 0.946581 0.511710 0.185863
N5    N     N_1   0.940606 0.928462 0.488830 -0.236080
C186  C     C_1   0.612355 0.053385 0.508994 0.186142
N6    N     N_1   0.559653 0.071480 0.485018 -0.232932
C187  C     C_1   0.887417 0.053886 0.513244 0.183298
N7    N     N_1   0.940647 0.072399 0.491244 -0.229552
C188  C     C_1   0.612384 0.946103 0.510590 0.183261
N8    N     N_1   0.559537 0.927614 0.487552 -0.240134

loop_
_geom_bond_atom_site_label_1
_geom_bond_atom_site_label_2
_ccdc_geom_bond_type
C133  C137  A    
C187  N7    T    
C55   C59   A    
C159  H56   S    
C136  C140  A    
C79   C87   A    
C65   C89   S    
C91   O15   A    
C157  C158  S    
C170  C178  A    
O39   Zn11  S    
C69   C93   S    
C64   C112  A    
C71   C95   S    
C92   O29   A    
C28   C40   A    
C85   H9    S    
C29   C33   A    
C36   C168  A    
C62   C70   A    
C169  H69   S    
C39   C171  A    
C178  H78   S    
C23   H95   S    
C113  C122  A    
C173  H73   S    
O20   Zn8   S    
C78   H6    S    
C96   O33   A    
C97   C105  A    
C105  H17   S    
C136  H48   S    
C7    C45   S    
O45   Zn8   S    
O3    Zn15  S    
C130  C134  A    
O2    Zn3   S    
O31   Zn14  S    
C73   C81   A    
O52   Zn16  S    
C138  H25   S    
C166  C174  A    
C86   H10   S    
O29   Zn13  S    
C151  H39   S    
C17   H89   S    
C25   C41   A    
C26   C38   A    
O36   Zn15  S    
C19   H91   S    
C20   C28   A    
C145  O41   A    
C21   C29   A    
C28   C44   A    
C10   H82   S    
C29   C45   A    
C148  C164  S    
C154  H42   S    
C13   C173  A    
C150  C182  S    
C24   C32   A    
C95   O34   A    
C73   H1    S    
C186  N6    T    
C12   C20   A    
C13   C21   A    
C149  H37   S    
C117  H33   S    
O4    Zn16  S    
O14   Zn2   S    
C129  C133  A    
O4    Zn6   S    
O1    Zn9   S    
C49   C73   A    
C11   C179  A    
C112  H24   S    
C140  H27   S    
C9    C177  A    
C133  H45   S    
C158  H51   S    
C139  C140  A    
C36   C68   A    
C97   H57   S    
C126  C141  S    
C98   C106  A    
C110  H22   S    
C17   C25   A    
C83   C103  A    
C80   C88   A    
C1    O5    A    
C145  C161  S    
C10   C18   A    
C68   C92   S    
C83   H15   S    
C127  C131  A    
C85   C97   A    
C81   H13   S    
C72   C96   S    
C125  C129  A    
C116  H32   S    
C188  N8    T    
C39   C71   A    
C122  C126  A    
C183  N3    T    
C116  C123  A    
C171  H71   S    
C1    O24   A    
C155  H43   S    
C184  N4    T    
O22   Zn10  S    
C2    O23   A    
C43   C51   A    
C34   C66   A    
C157  H49   S    
C123  C124  A    
C81   C101  A    
O46   Zn7   S    
O1    Zn4   S    
O15   Zn3   S    
C141  O49   A    
C153  C163  S    
O2    Zn10  S    
C154  C164  S    
O32   Zn13  S    
C149  C151  S    
C37   C169  A    
C12   H84   S    
O35   Zn16  S    
O16   Zn4   S    
C59   C67   A    
C1    C43   S    
C2    C44   S    
C102  H62   S    
O7    Zn2   S    
C152  C161  S    
C44   C52   A    
C77   C85   A    
C149  C181  S    
C63   C111  A    
C171  C179  A    
O47   Zn6   S    
C169  C177  A    
C137  H26   S    
C82   C102  A    
C93   O36   A    
C100  C108  A    
C94   O35   A    
C30   C34   A    
C166  H66   S    
C144  O40   A    
C89   O32   A    
C104  C112  A    
C179  H79   S    
C90   O31   A    
O18   Zn6   S    
C59   C107  A    
C116  C120  A    
C8    O12   A    
C121  C125  A    
C37   C69   A    
C123  C127  A    
C35   C67   A    
C154  C186  S    
C132  C136  A    
C92   O16   A    
C80   H8    S    
C93   O17   A    
C16   H88   S    
O3    Zn5   S    
C42   C50   A    
C113  C117  A    
C89   O13   A    
C12   C180  A    
C115  C119  A    
C84   C104  A    
O26   Zn12  S    
O42   Zn3   S    
O50   Zn14  S    
C18   H90   S    
C26   C42   A    
C167  C175  A    
C129  C130  A    
C24   H96   S    
C168  C176  A    
C8    O25   A    
C146  O42   A    
C40   C72   A    
C30   C46   A    
C33   C165  A    
C151  C183  S    
C52   C76   A    
C60   C108  A    
C32   C36   A    
C74   H2    S    
O43   Zn2   S    
C56   C80   A    
C124  C128  A    
C156  H44   S    
C14   C22   A    
O4    Zn12  S    
C113  H29   S    
C147  C163  S    
C117  C118  A    
O34   Zn16  S    
O40   Zn12  S    
C16   C176  A    
O9    Zn8   S    
C4    C42   S    
C84   H16   S    
C153  C185  S    
C4    O8    A    
C100  H60   S    
C5    O9    A    
C8    C46   S    
C7    O11   A    
O30   Zn14  S    
O23   Zn10  S    
C160  H54   S    
C38   C70   A    
C32   C48   A    
C57   C105  A    
C18   C26   A    
C76   C84   A    
C185  N5    T    
O49   Zn13  S    
C2    O6    A    
C146  C162  S    
C156  C188  S    
C11   C19   A    
C145  O44   A    
C79   H7    S    
C160  C164  S    
C70   C94   S    
C147  O45   A    
C15   H87   S    
O38   Zn10  S    
C126  C130  A    
C101  C109  A    
O1    Zn1   S    
C77   H5    S    
C170  H70   S    
C103  C111  A    
C41   C49   A    
C114  C121  A    
C174  H74   S    
C156  C163  S    
O44   Zn1   S    
C159  C163  S    
C153  C155  S    
C22   C30   A    
C148  O47   A    
C154  C156  S    
C144  O52   A    
C106  H18   S    
C99   H59   S    
C172  C180  A    
C61   C109  A    
C31   C47   A    
C159  H53   S    
C74   C82   A    
O8    Zn1   S    
C38   C170  A    
C150  C162  S    
C49   C61   A    
C51   C63   A    
O24   Zn9   S    
C52   C64   A    
C182  N2    T    
C53   C57   A    
C56   C60   A    
C21   H93   S    
C95   O19   A    
C53   C77   A    
C153  H41   S    
C55   C79   A    
C159  C160  S    
C151  C162  S    
C46   C54   A    
C67   C91   S    
C118  H34   S    
C142  O50   A    
C50   C74   A    
C121  C122  A    
C88   C100  A    
C6    C48   S    
O10   Zn7   S    
O13   Zn1   S    
C142  O38   A    
C31   C35   A    
C102  C110  A    
C141  O37   A    
C149  C161  S    
C4    O21   A    
O2    Zn2   S    
C111  H23   S    
C131  C132  A    
C157  C161  S    
C40   C172  A    
C87   H11   S    
C152  C184  S    
O48   Zn5   S    
C88   H12   S    
C115  C124  A    
C155  C187  S    
C57   C65   A    
C13   H85   S    
C119  C120  A    
C175  H75   S    
C98   H58   S    
C115  H31   S    
C99   C107  A    
C135  C139  A    
O28   Zn11  S    
C91   O30   A    
O5    Zn4   S    
C94   O18   A    
C109  H21   S    
C14   C174  A    
C75   C83   A    
C90   O14   A    
C167  H67   S    
C66   C90   S    
C127  C144  S    
C86   C98   A    
C128  C143  S    
C82   H14   S    
C135  H47   S    
C180  H80   S    
C27   C43   A    
O2    Zn14  S    
C60   C68   A    
C34   C166  A    
C143  O39   A    
C22   H94   S    
C23   C31   A    
C54   C78   A    
C107  H19   S    
C119  H35   S    
C143  O51   A    
C75   H3    S    
C158  H50   S    
C33   C65   A    
C5    C47   S    
O3    Zn11  S    
C134  H46   S    
C6    O10   A    
C51   C75   A    
C131  C135  A    
C165  C173  A    
C25   C37   A    
O12   Zn5   S    
C58   C66   A    
C27   C39   A    
C160  H55   S    
C9    H81   S    
C35   C167  A    
C11   H83   S    
O3    Zn8   S    
C101  H61   S    
C20   H92   S    
C78   C86   A    
C15   C23   A    
C16   C24   A    
O25   Zn11  S    
C128  C132  A    
C148  O46   A    
C87   C99   A    
O41   Zn4   S    
O1    Zn13  S    
C146  O43   A    
C10   C178  A    
C165  H65   S    
C6    O27   A    
C104  H64   S    
O17   Zn5   S    
C172  H72   S    
C58   C106  A    
O19   Zn7   S    
C108  H20   S    
C96   O20   A    
C3    O22   A    
C176  H76   S    
O4    Zn7   S    
C103  H63   S    
C62   C110  A    
C125  C142  S    
O21   Zn9   S    
O6    Zn3   S    
C150  H38   S    
O33   Zn15  S    
O27   Zn12  S    
C114  C118  A    
O51   Zn15  S    
C9    C17   A    
C168  H68   S    
C50   C62   A    
C150  C152  S    
C19   C27   A    
O11   Zn6   S    
C47   C55   A    
C54   C58   A    
C61   C69   A    
C48   C56   A    
C3    C41   S    
C177  H77   S    
C63   C71   A    
C134  C138  A    
C155  C164  S    
C120  H36   S    
C137  C138  A    
C15   C175  A    
C114  H30   S    
C147  O48   A    
C152  H40   S    
C3    O7    A    
O37   Zn9   S    
C64   C72   A    
C5    O28   A    
C139  H28   S    
C158  C162  S    
C45   C53   A    
C7    O26   A    
C181  N1    T    
C76   H4    S    
C14   H86   S    
C157  H52   S    
