data_mof_unit_45753.cif
_audit_creation_date              2012-12-10T17:03:42-0500
_audit_creation_method            fapswitch 2.2
_symmetry_space_group_name_H-M    P1
_symmetry_Int_Tables_number       1
_space_group_crystal_system       triclinic
_cell_length_a                    10.051848
_cell_length_b                    10.741152
_cell_length_c                    13.236597
_cell_angle_alpha                 90.577893
_cell_angle_beta                  70.019381
_cell_angle_gamma                 90.291409
_cell_volume                      1343.04210258

loop_
_atom_site_label
_atom_site_type_symbol
_atom_type_description
_atom_site_fract_x
_atom_site_fract_y
_atom_site_fract_z
_atom_type_partial_charge
C1    C     C_R   0.501540 0.737205 0.497432 0.918872
C2    C     C_R   0.449615 0.470119 0.974765 -0.012580
C3    C     C_R   0.467171 0.527816 0.875567 0.054558
C4    C     C_R   0.553240 0.496093 0.023346 0.108752
C5    C     C_R   0.680334 0.560130 0.966098 0.161546
C6    C     C_R   0.693357 0.616755 0.869466 -0.249232
C7    C     C_R   0.583216 0.608795 0.829437 -0.155492
C8    C     C_R   0.526685 0.473950 0.131467 -0.230173
C9    C     C_R   0.760235 0.546621 0.118569 -0.103711
C10   C     C_R   0.372506 0.498887 0.821075 -0.185332
C11   C     C_2   0.614860 0.067509 0.493741 -0.122495
C12   C     C_R   0.421432 0.504939 0.703879 0.886405
C13   C     C_2   0.495053 0.131169 0.511535 -0.341496
C14   C     C_2   0.612631 0.933657 0.500394 -0.163358
C15   C     C_2   0.506845 0.868567 0.486351 -0.321427
C16   C     C_2   0.097557 0.419186 0.446170 0.167067
C17   C     C_2   0.954502 0.434115 0.433561 0.367306
C18   C     C_R   0.498972 0.262744 0.502065 0.952524
C19   C     C_R   0.578579 0.498767 0.296315 0.884558
C20   C     C_R   0.786501 0.577696 0.011629 -0.183125
C21   C     C_R   0.626483 0.501758 0.179829 -0.071368
C22   C     C_R   0.245954 0.436588 0.873943 -0.293538
C23   C     C_R   0.224406 0.381665 0.972657 0.398207
C24   C     C_R   0.331207 0.387652 0.019131 0.124627
H1    H     H_    0.838932 0.567847 0.155315 0.184128
H2    H     H_    0.391373 0.087932 0.536507 0.143874
H3    H     H_    0.700112 0.888752 0.516151 0.171576
H4    H     H_    0.423329 0.910605 0.463799 0.151300
H5    H     H_    0.088744 0.576583 0.529801 0.125182
H6    H     H_    0.868988 0.537058 0.565094 0.113610
H7    H     H_    0.784845 0.673647 0.828190 0.143993
H8    H     H_    0.885586 0.622804 0.966945 0.145908
H9    H     H_    0.421839 0.448455 0.182285 0.191723
H10   H     H_    0.170454 0.418459 0.833494 0.203691
H11   H     H_    0.591525 0.664733 0.759965 0.157075
H12   H     H_    0.716759 0.113713 0.475362 0.197471
N1    N     N_2   0.148270 0.498670 0.498870 -0.232060
N2    N     N_2   0.852610 0.498640 0.498840 -0.232743
O1    O     O_R   0.386950 0.680940 0.500020 -0.616201
O2    O     O_R   0.613110 0.680900 0.499980 -0.621383
O3    O     O_R   0.330780 0.500000 0.653640 -0.608230
O4    O     O_R   0.556930 0.499960 0.653610 -0.614925
O5    O     O_R   0.386890 0.319100 0.500020 -0.627250
O6    O     O_R   0.613050 0.319060 0.499980 -0.570183
O7    O     O_R   0.443070 0.500040 0.346390 -0.645974
O8    O     O_R   0.669220 0.500000 0.346360 -0.550493
Zn1   Zn    Zn3+2 0.349000 0.500030 0.500020 0.939059
Zn2   Zn    Zn3+2 0.651000 0.499970 0.499980 0.990876
N3    N     N_2   0.181684 0.316696 0.391110 -0.263839
H13   H     H_    0.289372 0.327060 0.358561 0.273605
C25   C     C_3   0.131150 0.192961 0.427830 -0.700983
H14   H     H_    0.198423 0.151609 0.469892 0.221775
H15   H     H_    0.137349 0.133402 0.357372 0.249779
H16   H     H_    0.019681 0.193869 0.483776 0.237241
Cl1   Cl    Cl    0.923544 0.353252 0.327328 -0.558335
N4    N     N_2   0.326760 0.300917 0.101060 -0.322056
H17   H     H_    0.227363 0.280154 0.154037 0.304231
C26   C     C_3   0.414312 0.192003 0.063467 -0.728966
H18   H     H_    0.411063 0.133986 0.133238 0.238651
H19   H     H_    0.526012 0.219498 0.020605 0.255300
H20   H     H_    0.374615 0.135891 0.008670 0.257135
Cl2   Cl    Cl    0.070925 0.290227 0.027646 -0.594657

loop_
_geom_bond_atom_site_label_1
_geom_bond_atom_site_label_2
_ccdc_geom_bond_type
C2    C4    A    
C23   C24   A    
C19   O7    A    
C6    C7    A    
C1    C15   S    
C18   O6    A    
C14   H3    S    
N1    Zn1   S    
C17   Cl1   S    
C9    C20   A    
N2    Zn2   S    
C16   N1    D    
C4    C8    A    
C25   H16   S    
H5    N1    S    
C26   H20   S    
C6    H7    S    
O3    Zn1   S    
C19   O8    A    
C9    H1    S    
C3    C10   A    
O4    Zn2   S    
C18   O5    A    
C10   C22   A    
C11   C13   D    
C9    C21   A    
C15   H4    S    
C12   O3    A    
C10   C12   S    
C13   C18   S    
C7    H11   S    
C11   H12   S    
C19   C21   S    
N4    C26   S    
C2    C3    A    
C3    C7    A    
C8    H9    S    
O7    Zn1   S    
C2    C24   A    
C5    C6    A    
C22   H10   S    
C11   C14   S    
O8    Zn2   S    
C13   H2    S    
C24   N4    S    
C1    O1    A    
C26   H19   S    
C25   H14   S    
C16   N3    S    
N4    H17   S    
H6    N2    S    
O1    Zn1   S    
N3    H13   S    
C20   H8    S    
C17   N2    D    
C5    C20   A    
O2    Zn2   S    
C14   C15   D    
C16   C17   S    
C12   O4    A    
C1    O2    A    
C25   H15   S    
C26   H18   S    
C22   C23   A    
O5    Zn1   S    
C23   Cl2   S    
O6    Zn2   S    
C4    C5    A    
N3    C25   S    
C8    C21   A    
