data_mof_unit_40878.cif
_audit_creation_date              2012-12-10T19:53:44-0500
_audit_creation_method            fapswitch 2.2
_symmetry_space_group_name_H-M    P1
_symmetry_Int_Tables_number       1
_space_group_crystal_system       triclinic
_cell_length_a                    15.082801
_cell_length_b                    14.156948
_cell_length_c                    10.604079
_cell_angle_alpha                 91.73994
_cell_angle_beta                  90.662099
_cell_angle_gamma                 89.857553
_cell_volume                      2263.05089134

loop_
_atom_site_label
_atom_site_type_symbol
_atom_type_description
_atom_site_fract_x
_atom_site_fract_y
_atom_site_fract_z
_atom_type_partial_charge
C1    C     C_R   0.327603 0.500674 0.510559 0.963860
C2    C     C_R   0.672231 0.499903 0.500213 1.008888
C3    C     C_R   0.441970 0.103933 0.421175 -0.201182
C4    C     C_R   0.531944 0.896986 0.604108 -0.244930
C5    C     C_R   0.560089 0.107181 0.576022 -0.236256
C6    C     C_R   0.469851 0.892189 0.393968 -0.220260
C7    C     C_R   0.443653 0.203079 0.421976 0.209695
C8    C     C_R   0.532152 0.797809 0.601387 0.107959
C9    C     C_R   0.557963 0.206316 0.575893 0.123455
C10   C     C_R   0.469405 0.793118 0.397036 0.117959
C11   C     C_R   0.500914 0.053524 0.498790 0.116154
C12   C     C_R   0.500778 0.946668 0.499030 0.114866
C13   C     C_R   0.497351 0.498325 0.257449 1.037161
C14   C     C_R   0.502263 0.501507 0.742905 1.049861
C15   C     C_3   0.426509 0.540447 0.041118 0.354982
C16   C     C_3   0.575296 0.457487 0.960078 0.396089
C17   C     C_3   0.499653 0.590009 0.969586 0.427201
C18   C     C_3   0.501844 0.408580 0.032364 0.412915
C19   C     C_3   0.430433 0.454400 0.948789 -0.356104
C20   C     C_3   0.571454 0.543944 0.052668 -0.315238
C21   C     C_3   0.504592 0.504331 0.877714 -0.364442
C22   C     C_3   0.496968 0.494499 0.123275 -0.373889
C23   C     C_R   0.090209 0.581893 0.499597 -0.199984
C24   C     C_R   0.907000 0.434150 0.428185 -0.207855
C25   C     C_R   0.906280 0.557748 0.591163 -0.212081
C26   C     C_R   0.093178 0.416074 0.545296 -0.221252
C27   C     C_R   0.181444 0.587694 0.512181 0.430114
C28   C     C_R   0.815131 0.436230 0.421193 0.296486
C29   C     C_R   0.814723 0.560544 0.589032 0.408338
C30   C     C_R   0.184689 0.418238 0.558673 0.341205
C31   C     C_R   0.231129 0.502556 0.529191 -0.283323
C32   C     C_R   0.768175 0.499325 0.503097 -0.284319
C33   C     C_R   0.047016 0.496755 0.514012 0.010586
C34   C     C_R   0.951665 0.495384 0.511429 0.013286
H1    H     H_    0.371800 0.418180 0.906162 0.270479
H2    H     H_    0.629166 0.580692 0.097678 0.252544
H3    H     H_    0.051397 0.644549 0.480959 0.207439
H4    H     H_    0.944420 0.386923 0.366474 0.199773
H5    H     H_    0.943193 0.604395 0.655314 0.207086
H6    H     H_    0.056829 0.352089 0.563837 0.195243
H7    H     H_    0.393677 0.067842 0.361148 0.162820
H8    H     H_    0.555526 0.933656 0.688825 0.167192
H9    H     H_    0.608881 0.073553 0.635235 0.158743
H10   H     H_    0.447184 0.925024 0.308688 0.164227
H11   H     H_    0.398896 0.240895 0.361184 0.183014
H12   H     H_    0.558579 0.760526 0.679912 0.223406
H13   H     H_    0.603501 0.246456 0.635742 0.183415
H14   H     H_    0.444933 0.752560 0.316417 0.222814
N1    N     N_R   0.500000 0.252470 0.500000 -0.110938
N2    N     N_R   0.500000 0.747530 0.500000 -0.128984
O1    O     O_R   0.369060 0.579480 0.500010 -0.556343
O2    O     O_R   0.630940 0.420520 0.499990 -0.577514
O3    O     O_R   0.630940 0.579480 0.499990 -0.582889
O4    O     O_R   0.369060 0.420520 0.500010 -0.585175
O5    O     O_R   0.499980 0.579460 0.313950 -0.632189
O6    O     O_R   0.500020 0.420540 0.686050 -0.592554
O7    O     O_R   0.500020 0.579460 0.686050 -0.587390
O8    O     O_R   0.499980 0.420540 0.313950 -0.575555
Zn1   Zn    Zn3+2 0.500000 0.606140 0.500000 1.090619
Zn2   Zn    Zn3+2 0.500000 0.393860 0.500000 1.115316
S1    S     S_3+6 0.321750 0.586718 0.089561 0.108617
O9    O     O_2   0.281379 0.521899 0.182643 -0.306206
O10   O     O_2   0.332848 0.683387 0.149292 -0.210584
O11   O     O_3   0.255019 0.593423 0.962044 -0.489465
H15   H     H_    0.198155 0.618566 0.994835 0.400151
S2    S     S_3+6 0.678787 0.406604 0.911117 0.130874
O12   O     O_2   0.694925 0.315439 0.976525 -0.156210
O13   O     O_2   0.678001 0.387837 0.771038 -0.343051
O14   O     O_3   0.761081 0.482386 0.949584 -0.460592
H16   H     H_    0.814991 0.453621 0.912082 0.392939
S3    S     S_3+6 0.503661 0.713733 0.943582 0.082266
O15   O     O_2   0.594278 0.739124 0.898575 -0.277715
O16   O     O_2   0.434200 0.739481 0.847939 -0.266482
O17   O     O_3   0.485198 0.773894 0.079654 -0.535637
H17   H     H_    0.486637 0.841345 0.057547 0.382196
S4    S     S_3+6 0.495030 0.286277 0.066974 0.104034
O18   O     O_2   0.563838 0.261505 0.164117 -0.196821
O19   O     O_2   0.404213 0.265869 0.115922 -0.305159
O20   O     O_3   0.511853 0.221789 0.933597 -0.505273
H18   H     H_    0.507230 0.155187 0.958745 0.384258
S5    S     S_3+6 0.225836 0.704327 0.516078 0.081409
O21   O     O_2   0.272864 0.720915 0.394809 -0.251766
O22   O     O_2   0.153121 0.776523 0.531160 -0.262717
O23   O     O_3   0.297068 0.718173 0.638446 -0.480491
H19   H     H_    0.322717 0.781916 0.629306 0.388955
S6    S     S_3+6 0.762704 0.363501 0.303326 0.105914
O24   O     O_2   0.693450 0.420028 0.236175 -0.257790
O25   O     O_2   0.828843 0.327066 0.208548 -0.226639
O26   O     O_3   0.714010 0.271116 0.370270 -0.482038
H20   H     H_    0.761196 0.242334 0.422374 0.345488
S7    S     S_3+6 0.763310 0.642964 0.694318 0.076844
O27   O     O_2   0.682453 0.600679 0.750709 -0.255602
O28   O     O_2   0.826547 0.672135 0.799012 -0.252818
O29   O     O_3   0.734335 0.738755 0.613367 -0.544096
H21   H     H_    0.726965 0.789979 0.678146 0.384678
S8    S     S_3+6 0.233245 0.315419 0.622994 0.076669
O30   O     O_2   0.314362 0.338983 0.700993 -0.248715
O31   O     O_2   0.167774 0.267792 0.705868 -0.241939
O32   O     O_3   0.260146 0.239783 0.504594 -0.543705
H22   H     H_    0.203765 0.227167 0.458375 0.361679

loop_
_geom_bond_atom_site_label_1
_geom_bond_atom_site_label_2
_ccdc_geom_bond_type
S2    O13   D    
C16   C21   S    
O5    Zn1   S    
C14   O6    A    
S4    O20   S    
C4    C8    A    
S5    O21   D    
O3    Zn1   S    
O4    Zn2   S    
C15   C19   S    
N1    Zn2   S    
N2    Zn1   S    
C7    H11   S    
C14   C21   S    
C19   C21   S    
S4    O19   D    
C5    C11   A    
C29   C32   A    
C3    C7    A    
C6    C12   A    
C30   C31   A    
S6    O25   D    
O7    Zn1   S    
S2    O14   S    
O8    Zn2   S    
S8    O32   S    
C1    C31   S    
C17   C20   S    
C2    C32   S    
C18   C19   S    
S1    O10   D    
C30   S8    S    
O2    Zn2   S    
C15   C22   S    
C23   C33   A    
S8    O31   D    
C24   H4    S    
C23   C27   A    
C4    C12   A    
C25   C34   A    
S2    O12   D    
C5    H9    S    
C6    H10   S    
O14   H16   S    
S5    O22   D    
C25   C29   A    
O17   H17   S    
C27   C31   A    
C28   C32   A    
C9    N1    A    
O23   H19   S    
C7    N1    A    
S7    O27   D    
S3    O16   D    
S6    O24   D    
C13   O8    A    
C23   H3    S    
S6    O26   S    
C24   C34   A    
O6    Zn2   S    
S1    O11   S    
C1    O4    A    
C5    C9    A    
S7    O28   D    
C26   C33   A    
O32   H22   S    
C27   S5    S    
C16   C20   S    
S8    O30   D    
C33   C34   S    
C15   S1    S    
O29   H21   S    
S4    O18   D    
C1    O1    A    
C2    O2    A    
C20   C22   S    
C9    H13   S    
C10   H14   S    
O1    Zn1   S    
C10   N2    A    
C8    N2    A    
C29   S7    S    
S5    O23   S    
C15   C17   S    
C14   O7    A    
C3    H7    S    
C18   S4    S    
C18   C22   S    
C24   C28   A    
C2    O3    A    
C6    C10   A    
S3    O17   S    
C11   C12   S    
C17   S3    S    
O11   H15   S    
S3    O15   D    
C19   H1    S    
C25   H5    S    
S7    O29   S    
C28   S6    S    
C26   H6    S    
C4    H8    S    
C13   C22   S    
S1    O9    D    
C8    H12   S    
C3    C11   A    
O20   H18   S    
C20   H2    S    
C16   S2    S    
C16   C18   S    
O26   H20   S    
C13   O5    A    
C26   C30   A    
C17   C21   S    
