data_mof_unit_63344.cif
_audit_creation_date              2012-12-10T18:40:29-0500
_audit_creation_method            fapswitch 2.2
_symmetry_space_group_name_H-M    P1
_symmetry_Int_Tables_number       1
_space_group_crystal_system       triclinic
_cell_length_a                    10.769617
_cell_length_b                    11.575888
_cell_length_c                    16.770287
_cell_angle_alpha                 89.997208
_cell_angle_beta                  84.660375
_cell_angle_gamma                 89.992056
_cell_volume                      2081.64360919

loop_
_atom_site_label
_atom_site_type_symbol
_atom_type_description
_atom_site_fract_x
_atom_site_fract_y
_atom_site_fract_z
_atom_type_partial_charge
C1    C     C_R   0.499991 0.718863 0.500024 0.898733
C2    C     C_R   0.500004 0.281136 0.500018 0.909947
C3    C     C_1   0.499979 0.838967 0.500077 -0.172374
C4    C     C_1   0.500012 0.161021 0.500054 -0.172299
C5    C     C_1   0.499987 0.940842 0.500097 0.009930
C6    C     C_1   0.500003 0.059143 0.500084 0.011221
C7    C     C_1   0.930264 0.500006 0.500002 0.068265
C8    C     C_1   0.069737 0.500005 0.499994 0.061870
C9    C     C_R   0.482313 0.505415 0.653746 0.927633
C10   C     C_R   0.517830 0.500542 0.345893 0.917976
C11   C     C_R   0.470484 0.543942 0.736731 -0.195185
C12   C     C_R   0.530083 0.512584 0.258871 -0.198654
C13   C     C_R   0.568244 0.608345 0.763782 -0.290119
C14   C     C_R   0.421697 0.519867 0.219443 -0.285063
C15   C     C_R   0.557770 0.653126 0.840338 -0.197021
C16   C     C_R   0.429276 0.543142 0.138572 -0.203014
C17   C     C_R   0.450597 0.632055 0.891908 0.069881
C18   C     C_R   0.545447 0.559901 0.095108 0.090391
C19   C     C_R   0.347412 0.573977 0.864146 0.076482
C20   C     C_R   0.656757 0.548051 0.133008 0.071906
C21   C     C_R   0.358580 0.529882 0.785883 0.581999
C22   C     C_R   0.647819 0.524722 0.215474 0.573982
C23   C     C_2   0.461345 0.643929 0.977439 -0.203118
C24   C     C_2   0.548250 0.580234 0.009026 -0.189755
H1    H     H_    0.653468 0.624134 0.725739 0.195004
H2    H     H_    0.330182 0.509354 0.251304 0.199221
H3    H     H_    0.617173 0.533867 0.969843 0.165784
H4    H     H_    0.390071 0.689781 0.015015 0.155576
H5    H     H_    0.343370 0.546727 0.109853 0.164938
H6    H     H_    0.636965 0.697656 0.861501 0.166291
N1    N     N_1   0.819370 0.500000 0.500010 -0.066377
N2    N     N_1   0.180630 0.500000 0.499990 -0.069519
O1    O     O_R   0.397470 0.665550 0.500010 -0.612282
O2    O     O_R   0.602530 0.334450 0.499990 -0.607805
O3    O     O_R   0.602530 0.665550 0.499990 -0.610514
O4    O     O_R   0.397470 0.334450 0.500010 -0.604441
O5    O     O_R   0.385350 0.500000 0.615800 -0.553432
O6    O     O_R   0.614650 0.500000 0.384200 -0.541382
O7    O     O_R   0.590410 0.500000 0.615800 -0.632371
O8    O     O_R   0.409590 0.500000 0.384200 -0.632033
Zn1   Zn    Zn3+2 0.363080 0.500000 0.500000 1.014220
Zn2   Zn    Zn3+2 0.636920 0.500000 0.500000 1.018629
F1    F     F_    0.753594 0.517009 0.253528 -0.667611
F2    F     F_    0.262221 0.470224 0.758775 -0.667821
C25   C     C_3   0.229166 0.550788 0.918001 -0.378379
C26   C     C_3   0.231212 0.430209 0.954652 -0.809298
H7    H     H_    0.235355 0.363343 0.906992 0.288670
H8    H     H_    0.313254 0.420243 0.989560 0.253413
H9    H     H_    0.145133 0.416650 0.995392 0.240535
H10   H     H_    0.215693 0.615779 0.966640 0.181549
H11   H     H_    0.146671 0.558841 0.883178 0.241922
C27   C     C_3   0.784558 0.562694 0.087542 -0.379114
C28   C     C_3   0.812223 0.689371 0.067683 -0.835969
H12   H     H_    0.745012 0.724514 0.027626 0.259984
H13   H     H_    0.807197 0.741438 0.123535 0.274416
H14   H     H_    0.907621 0.697191 0.036776 0.242137
H15   H     H_    0.859315 0.530091 0.123016 0.257502
H16   H     H_    0.791965 0.510292 0.031915 0.184945

loop_
_geom_bond_atom_site_label_1
_geom_bond_atom_site_label_2
_ccdc_geom_bond_type
C2    C4    S    
C23   C24   D    
C19   C25   S    
N1    Zn2   S    
C21   F2    S    
C11   C13   A    
C22   F1    S    
O2    Zn2   S    
C24   H3    S    
C10   O6    A    
N2    Zn1   S    
O1    Zn1   S    
C2    O2    A    
C9    O5    A    
C1    O1    A    
C7    C8    S    
C20   C27   S    
C28   H12   S    
C14   H2    S    
C9    C11   S    
C26   H9    S    
C13   H1    S    
O4    Zn1   S    
C17   C23   S    
C10   C12   S    
C25   H10   S    
C14   C16   A    
C18   C24   S    
C4    C6    T    
O8    Zn1   S    
C17   C19   A    
C12   C14   A    
O6    Zn2   S    
O7    Zn2   S    
C18   C20   A    
C28   H13   S    
C13   C15   A    
O5    Zn1   S    
C5    C6    S    
C27   H16   S    
C26   H8    S    
C25   C26   S    
C7    N1    T    
C27   H15   S    
C25   H11   S    
C8    N2    T    
C12   C22   A    
C9    O7    A    
C27   C28   S    
C1    O3    A    
C15   H6    S    
C16   C18   A    
C28   H14   S    
C2    O4    A    
C1    C3    S    
C15   C17   A    
O3    Zn2   S    
C26   H7    S    
C10   O8    A    
C19   C21   A    
C16   H5    S    
C23   H4    S    
C11   C21   A    
C20   C22   A    
C3    C5    T    
