data_mof_unit_15657.cif
_audit_creation_date              2012-12-10T18:21:26-0500
_audit_creation_method            fapswitch 2.2
_symmetry_space_group_name_H-M    P1
_symmetry_Int_Tables_number       1
_space_group_crystal_system       triclinic
_cell_length_a                    15.971356
_cell_length_b                    14.787044
_cell_length_c                    10.788217
_cell_angle_alpha                 88.378244
_cell_angle_beta                  91.411495
_cell_angle_gamma                 90.540876
_cell_volume                      2545.95317842

loop_
_atom_site_label
_atom_site_type_symbol
_atom_type_description
_atom_site_fract_x
_atom_site_fract_y
_atom_site_fract_z
_atom_type_partial_charge
C1    C     C_R   0.328423 0.499418 0.500769 0.827176
C2    C     C_R   0.053882 0.474670 0.728754 -0.073921
C3    C     C_R   0.098059 0.485442 0.613226 -0.043885
C4    C     C_R   0.492259 0.500849 0.260063 0.826263
C5    C     C_R   0.048691 0.490705 0.499442 0.048244
C6    C     C_R   0.092367 0.495854 0.385057 0.103192
C7    C     C_R   0.040696 0.495535 0.276248 -0.145644
C8    C     C_R   0.952125 0.499950 0.277487 -0.168546
C9    C     C_R   0.190387 0.490547 0.610916 -0.006805
C10   C     C_R   0.232634 0.497668 0.497609 -0.155861
C11   C     C_R   0.183727 0.501562 0.382165 -0.091629
C12   C     C_3   0.594105 0.496795 0.945318 0.197849
C13   C     C_R   0.555223 0.800843 0.424880 0.195127
C14   C     C_R   0.556372 0.202243 0.427287 0.235145
C15   C     C_R   0.448452 0.797550 0.580313 0.229157
C16   C     C_R   0.448469 0.199328 0.581192 0.198701
C17   C     C_R   0.448020 0.897608 0.587075 -0.004851
C18   C     C_R   0.449864 0.098954 0.591065 0.002726
C19   C     C_R   0.672796 0.500136 0.504019 0.806737
C20   C     C_R   0.504548 0.950070 0.508166 0.000895
C21   C     C_R   0.505164 0.049822 0.509248 -0.006086
C22   C     C_R   0.560262 0.901181 0.426333 -0.010587
C23   C     C_R   0.817735 0.497078 0.389691 -0.109267
C24   C     C_R   0.560178 0.102228 0.428121 -0.016565
C25   C     C_R   0.391508 0.946017 0.672407 -0.051018
C26   C     C_R   0.396408 0.046395 0.678934 -0.053636
C27   C     C_R   0.618151 0.054158 0.346393 -0.020311
C28   C     C_R   0.619551 0.954012 0.348245 -0.031319
C29   C     C_R   0.501961 0.499104 0.740945 0.890601
C30   C     C_3   0.447084 0.596621 0.065455 -0.061898
C31   C     C_3   0.438734 0.407185 0.069104 -0.188600
C32   C     C_3   0.451564 0.587713 0.920220 -0.467256
C33   C     C_3   0.448174 0.408813 0.926910 -0.370916
C34   C     C_R   0.771042 0.499085 0.504425 -0.157812
C35   C     C_3   0.586435 0.498600 0.088899 0.332542
C36   C     C_3   0.490176 0.500733 0.122913 -0.125485
C37   C     C_3   0.499658 0.498470 0.880070 0.009593
C38   C     C_2   0.495786 0.690637 0.098755 0.391639
C39   C     C_2   0.471466 0.307834 0.117876 0.464150
C40   C     C_2   0.103764 0.459379 0.855594 0.431285
C41   C     C_2   0.248397 0.500821 0.723662 0.235368
C42   C     C_2   0.230089 0.519632 0.263250 0.473666
C43   C     C_2   0.324014 0.897667 0.759198 0.342954
C44   C     C_2   0.342267 0.090450 0.783314 0.371412
C45   C     C_R   0.820516 0.491332 0.616906 0.137191
C46   C     C_2   0.672409 0.108977 0.243305 0.344526
C47   C     C_2   0.687113 0.905995 0.263227 0.357396
C48   C     C_2   0.351491 0.605414 0.093385 0.273597
C49   C     C_2   0.341592 0.407958 0.101624 0.409300
C50   C     C_2   0.769696 0.491172 0.272168 0.351584
C51   C     C_R   0.912690 0.485235 0.614691 0.044513
C52   C     C_R   0.956305 0.490465 0.501007 -0.014086
C53   C     C_R   0.907589 0.496679 0.389229 0.104243
C54   C     C_R   0.964024 0.474730 0.724289 0.111065
H1    H     H_    0.067974 0.487481 0.188699 0.265879
H2    H     H_    0.250274 0.566725 0.764494 0.087555
H3    H     H_    0.294876 0.537499 0.280155 0.053537
H4    H     H_    0.597449 0.683022 0.345369 0.253228
H5    H     H_    0.648170 0.765489 0.274782 0.206894
H6    H     H_    0.588264 0.322679 0.315209 0.279700
H7    H     H_    0.677875 0.239679 0.333079 0.157725
H8    H     H_    0.366031 0.761339 0.738724 0.194038
H9    H     H_    0.391313 0.677604 0.651308 0.252933
H10   H     H_    0.348224 0.231914 0.721998 0.231645
H11   H     H_    0.388572 0.318739 0.636301 0.282490
H12   H     H_    0.918440 0.508160 0.189684 0.233926
H13   H     H_    0.346507 0.870075 0.855053 0.101041
H14   H     H_    0.272830 0.070536 0.770088 0.083804
H15   H     H_    0.725019 0.158900 0.248900 0.102226
H16   H     H_    0.673255 0.888057 0.171015 0.113410
H17   H     H_    0.307669 0.561533 0.050881 0.178108
H18   H     H_    0.336375 0.436301 0.185655 0.017416
H19   H     H_    0.680463 0.589073 0.192210 0.186153
H20   H     H_    0.629101 0.638997 0.131272 0.221182
H21   H     H_    0.627746 0.358275 0.144250 0.232235
H22   H     H_    0.674736 0.394614 0.195177 0.140399
H23   H     H_    0.387598 0.587168 0.876539 0.164222
H24   H     H_    0.702088 0.567533 0.872120 0.201942
H25   H     H_    0.623560 0.642358 0.913980 0.267449
H26   H     H_    0.618078 0.347948 0.944405 0.235699
H27   H     H_    0.692083 0.415419 0.876079 0.221376
H28   H     H_    0.709185 0.489276 0.301417 0.072043
H29   H     H_    0.795070 0.499757 0.815913 0.195180
H30   H     H_    0.712650 0.496038 0.717842 0.177624
H31   H     H_    0.902790 0.540375 0.853311 0.208507
H32   H     H_    0.926780 0.420545 0.898100 0.267433
H33   H     H_    0.391206 0.380711 0.883334 0.259400
H34   H     H_    0.481102 0.650682 0.881362 0.234617
H35   H     H_    0.484499 0.348952 0.899925 0.184643
H36   H     H_    0.467844 0.730546 0.171514 0.151163
H37   H     H_    0.422422 0.261320 0.149528 0.131297
H38   H     H_    0.166364 0.442774 0.865030 0.223303
N1    N     N_R   0.500070 0.750030 0.500050 -0.153196
N2    N     N_3   0.636443 0.413091 0.912220 -0.470310
N3    N     N_3   0.775840 0.485884 0.729878 -0.480376
N4    N     N_3   0.925034 0.474377 0.837016 -0.443315
N5    N     N_R   0.500070 0.249970 0.500050 -0.166202
N6    N     N_3   0.608964 0.750425 0.350092 -0.431371
N7    N     N_3   0.609706 0.254142 0.349831 -0.366175
N8    N     N_3   0.395209 0.745070 0.655038 -0.423724
N9    N     N_3   0.392931 0.249781 0.651202 -0.432153
N10   N     N_3   0.630282 0.577686 0.143058 -0.429874
N11   N     N_3   0.625115 0.419180 0.153733 -0.402549
N12   N     N_3   0.645860 0.575661 0.906847 -0.458697
O1    O     O_R   0.367860 0.580280 0.500020 -0.623535
O2    O     O_2   0.536064 0.268773 0.132390 -0.562254
O3    O     O_2   0.072066 0.438181 0.957219 -0.542924
O4    O     O_2   0.273737 0.432734 0.785563 -0.598529
O5    O     O_2   0.199830 0.515303 0.157515 -0.559551
O6    O     O_2   0.264299 0.852310 0.720930 -0.538409
O7    O     O_2   0.374273 0.135296 0.868535 -0.538926
O8    O     O_2   0.633991 0.149944 0.163422 -0.486893
O9    O     O_2   0.746490 0.867317 0.309619 -0.540604
O10   O     O_2   0.322026 0.667568 0.156421 -0.545101
O11   O     O_2   0.277984 0.380432 0.045306 -0.472246
O12   O     O_R   0.367860 0.419720 0.500020 -0.638109
O13   O     O_2   0.785263 0.492731 0.159918 -0.593271
O14   O     O_R   0.500000 0.580270 0.314790 -0.650448
O15   O     O_R   0.500000 0.419730 0.314790 -0.657422
O16   O     O_R   0.632160 0.580270 0.499960 -0.609561
O17   O     O_R   0.632160 0.419730 0.499960 -0.614665
O18   O     O_R   0.500030 0.580270 0.685200 -0.649912
O19   O     O_R   0.500030 0.419730 0.685200 -0.627661
O20   O     O_2   0.553735 0.729533 0.036960 -0.650687
Zn1   Zn    Zn3+2 0.500020 0.607200 0.499990 0.961692
Zn2   Zn    Zn3+2 0.500020 0.392800 0.499990 0.953681

loop_
_geom_bond_atom_site_label_1
_geom_bond_atom_site_label_2
_ccdc_geom_bond_type
C39   O2    D    
C4    C36   S    
C28   C47   S    
C8    H12   S    
C41   O4    D    
C46   O8    D    
C18   C21   A    
C35   C36   S    
H4    N6    S    
C24   C27   A    
H11   N9    S    
C15   N8    S    
H6    N7    S    
C4    O14   A    
C25   C43   S    
C26   C44   S    
C7    C8    A    
C47   H16   S    
C30   C48   S    
C42   O5    D    
C12   N12   S    
C35   N11   S    
C5    C6    A    
H31   N4    S    
C16   N5    A    
C45   C51   A    
C50   O13   D    
C12   C37   S    
C17   C20   A    
C30   C38   S    
C11   C42   S    
C15   C17   A    
C14   C24   A    
C13   N6    S    
C46   H15   S    
C32   H23   S    
C49   H18   S    
C18   C26   A    
C31   C33   S    
C4    O15   A    
C1    O12   A    
C7    H1    S    
C9    C10   A    
C54   N4    S    
H20   N10   S    
C35   N10   S    
H22   N11   S    
O12   Zn2   S    
H21   N11   S    
C12   N2    S    
H7    N7    S    
C31   C49   S    
C42   H3    S    
C39   H37   S    
C23   C53   A    
H10   N9    S    
H24   N12   S    
C51   C52   A    
C14   N7    S    
C2    C54   A    
C6    C11   A    
O16   Zn1   S    
O19   Zn2   S    
C3    C5    A    
C25   C26   A    
C33   C37   S    
C13   N1    A    
H30   N3    S    
C44   O7    D    
C41   H2    S    
H9    N8    S    
C3    C9    A    
C33   H35   S    
C23   C34   A    
H29   N3    S    
C29   O18   A    
C5    C52   A    
C34   C45   A    
C32   C37   S    
C40   H38   S    
C12   C35   S    
H32   N4    S    
C40   O3    D    
H8    N8    S    
C27   C46   S    
C16   C18   A    
H19   N10   S    
O14   Zn1   S    
C20   C22   A    
C19   O16   A    
H25   N12   S    
C44   H14   S    
C48   H17   S    
H26   N2    S    
C45   N3    S    
C52   C53   A    
C50   H28   S    
C14   N5    A    
C48   O10   D    
C47   O9    D    
C19   O17   A    
C49   O11   D    
C43   O6    D    
C1    C10   S    
N5    Zn2   S    
C23   C50   S    
C19   C34   S    
C8    C53   A    
C15   N1    A    
C6    C7    A    
C30   C36   S    
C38   H36   S    
C9    C41   S    
O1    Zn1   S    
C51   C54   A    
C17   C25   A    
O18   Zn1   S    
C2    C3    A    
C33   H33   S    
O17   Zn2   S    
C30   C32   S    
H27   N2    S    
C29   O19   A    
C31   C39   S    
C13   C22   A    
N1    Zn1   S    
C10   C11   A    
O15   Zn2   S    
C2    C40   S    
C16   N9    S    
C20   C21   A    
C43   H13   S    
C21   C24   A    
C29   C37   S    
C27   C28   A    
H5    N6    S    
C31   C36   S    
C22   C28   A    
C38   O20   D    
C1    O1    A    
C32   H34   S    
