data_mof_unit_11973.cif
_audit_creation_date              2012-12-11T14:43:39-0500
_audit_creation_method            fapswitch 2.2
_symmetry_space_group_name_H-M    P1
_symmetry_Int_Tables_number       1
_space_group_crystal_system       triclinic
_cell_length_a                    20.865992
_cell_length_b                    7.0935
_cell_length_c                    16.452325
_cell_angle_alpha                 90.002997
_cell_angle_beta                  92.297866
_cell_angle_gamma                 89.996909
_cell_volume                      2433.19842703

loop_
_atom_site_label
_atom_site_type_symbol
_atom_type_description
_atom_site_fract_x
_atom_site_fract_y
_atom_site_fract_z
_atom_type_partial_charge
O1    O     O_R   0.564840 0.505290 0.579830 -0.543825
O2    O     O_R   0.435160 0.005290 0.420170 -0.543810
O3    O     O_R   0.556720 0.179930 0.409350 -0.536984
O4    O     O_R   0.443280 0.679930 0.590650 -0.536991
C1    C     C_R   0.570243 0.345021 0.380857 0.700127
C2    C     C_R   0.429758 0.845038 0.619143 0.700127
O5    O     O_R   0.572280 0.175810 0.578530 -0.540577
O6    O     O_R   0.427720 0.675810 0.421470 -0.540565
O7    O     O_R   0.450830 0.001920 0.590540 -0.537267
O8    O     O_R   0.549170 0.501920 0.409460 -0.537261
C3    C     C_R   0.591941 0.344050 0.602102 0.703745
C4    C     C_R   0.408059 0.844049 0.397897 0.703725
O9    O     O_3   0.460130 0.338030 0.503750 -0.374553
O10   O     O_3   0.539870 0.838030 0.496250 -0.374569
V1    V     V_3+5 0.507400 0.064560 0.499310 1.401512
V2    V     V_3+5 0.492600 0.564560 0.500690 1.401504
C5    C     C_R   0.142615 0.924455 0.167881 -0.047709
C6    C     C_R   0.857379 0.424466 0.832128 -0.047692
C7    C     C_R   0.351856 0.845326 0.338441 -0.146648
C8    C     C_R   0.648141 0.345336 0.661564 -0.146678
C9    C     C_R   0.295722 0.670902 0.227024 0.114211
C10   C     C_R   0.704285 0.170880 0.772975 0.114227
C11   C     C_R   0.349096 0.699376 0.280632 -0.195176
C12   C     C_R   0.650914 0.199341 0.719356 -0.195221
C13   C     C_R   0.299186 0.972075 0.342473 0.067126
C14   C     C_R   0.700786 0.472179 0.657575 0.067164
C15   C     C_R   0.247813 0.957854 0.282520 0.132999
C16   C     C_R   0.752161 0.457925 0.717525 0.133061
C17   C     C_R   0.245051 0.804343 0.226358 0.057905
C18   C     C_R   0.754951 0.304329 0.773643 0.057910
C19   C     C_R   0.191399 0.788582 0.170456 -0.237788
C20   C     C_R   0.808619 0.288532 0.829520 -0.237815
C21   C     C_R   0.147019 0.076660 0.221836 -0.177730
C22   C     C_R   0.852933 0.576773 0.778235 -0.177758
C23   C     C_R   0.198293 0.093436 0.277788 -0.175169
C24   C     C_R   0.801649 0.593584 0.722303 -0.175240
H1    H     H_    0.187912 0.675600 0.126397 0.116777
H2    H     H_    0.812136 0.175481 0.873537 0.116795
H3    H     H_    0.110468 0.185309 0.220536 0.122592
H4    H     H_    0.889456 0.685497 0.779572 0.122613
H5    H     H_    0.198518 0.216796 0.316165 0.129737
H6    H     H_    0.801387 0.717048 0.683988 0.129731
H7    H     H_    0.389433 0.604074 0.279343 0.148571
H8    H     H_    0.610590 0.103998 0.720623 0.148581
C25   C     C_R   0.381210 0.901270 0.835623 -0.160291
C26   C     C_R   0.618797 0.400107 0.164339 -0.160286
H9    H     H_    0.470341 0.886077 0.775434 0.101463
H10   H     H_    0.529669 0.384949 0.224536 0.101463
H11   H     H_    0.301541 0.941374 0.955965 0.123716
H12   H     H_    0.698462 0.439548 0.043956 0.123723
H13   H     H_    0.405075 0.920390 0.894784 0.112152
H14   H     H_    0.594935 0.418674 0.105159 0.112177
C27   C     C_R   0.389463 0.856259 0.690636 -0.035378
C28   C     C_R   0.610541 0.356151 0.309365 -0.035365
C29   C     C_R   0.078223 0.880940 0.733888 -0.162853
C30   C     C_R   0.921773 0.381791 0.266140 -0.162919
C31   C     C_R   0.112619 0.854194 0.664268 -0.117910
C32   C     C_R   0.887381 0.355409 0.335785 -0.117893
C33   C     C_R   0.179404 0.850304 0.668710 -0.161121
C34   C     C_R   0.820600 0.351185 0.331334 -0.161145
C35   C     C_R   0.214057 0.876196 0.743529 0.077471
C36   C     C_R   0.785943 0.376357 0.256475 0.077477
C37   C     C_R   0.178288 0.903230 0.815135 0.069317
C38   C     C_R   0.821709 0.402976 0.184844 0.069344
C39   C     C_R   0.282859 0.874816 0.749673 0.074261
C40   C     C_R   0.717142 0.374689 0.250322 0.074287
C41   C     C_R   0.313955 0.899336 0.827422 0.140776
C42   C     C_R   0.686048 0.398491 0.172545 0.140768
C43   C     C_R   0.277919 0.923182 0.896581 -0.203633
C44   C     C_R   0.722083 0.421920 0.103363 -0.203664
C45   C     C_R   0.211276 0.925310 0.890673 -0.196027
C46   C     C_R   0.788722 0.424341 0.109275 -0.195959
C47   C     C_R   0.322197 0.852152 0.681562 -0.219479
C48   C     C_R   0.677804 0.352401 0.318448 -0.219487
C49   C     C_R   0.418538 0.881206 0.767793 -0.168143
C50   C     C_R   0.581470 0.380391 0.232185 -0.168192
C51   C     C_R   0.110034 0.905088 0.809543 -0.078804
C52   C     C_R   0.889960 0.405198 0.190450 -0.078765
H15   H     H_    0.302343 0.834379 0.620665 0.096498
H16   H     H_    0.697654 0.335126 0.379355 0.096508
H17   H     H_    0.026265 0.880101 0.728935 0.100172
H18   H     H_    0.973730 0.381281 0.271108 0.100175
H19   H     H_    0.202397 0.824478 0.612544 0.111026
H20   H     H_    0.797613 0.325695 0.387528 0.111051
H21   H     H_    0.087235 0.833959 0.606231 0.118926
H22   H     H_    0.912767 0.335756 0.393857 0.118940
H23   H     H_    0.185716 0.944906 0.946049 0.110638
H24   H     H_    0.814281 0.443599 0.053879 0.110534
O11   O     O_R   0.950790 0.256670 0.090520 -0.533648
O12   O     O_R   0.049210 0.756670 0.909480 -0.533638
O13   O     O_R   0.927720 0.590370 0.921470 -0.543019
O14   O     O_R   0.072280 0.090370 0.078530 -0.543020
C53   C     C_R   0.910221 0.422639 0.895229 0.685076
C54   C     C_R   0.089779 0.922638 0.104770 0.685084
O15   O     O_R   0.943270 0.586180 0.090640 -0.537067
O16   O     O_R   0.056730 0.086180 0.909360 -0.537087
O17   O     O_R   0.064850 0.759970 0.079840 -0.537730
O18   O     O_R   0.935150 0.259970 0.920160 -0.537746
C55   C     C_R   0.929940 0.417294 0.118538 0.681808
C56   C     C_R   0.070057 0.917277 0.881458 0.681785
O19   O     O_3   0.039850 0.428050 0.996240 -0.370651
O20   O     O_3   0.960150 0.928050 0.003760 -0.370652
V3    V     V_3+5 0.992610 0.701540 0.000700 1.417337
V4    V     V_3+5 0.007390 0.201540 0.999300 1.417287
C57   C     C_3   0.291991 0.499883 0.170377 -0.349444
C58   C     C_3   0.345493 0.353249 0.181413 -0.768789
H25   H     H_    0.392318 0.414061 0.165106 0.217171
H26   H     H_    0.348244 0.300282 0.244995 0.228105
H27   H     H_    0.335017 0.231556 0.140501 0.222578
H28   H     H_    0.246184 0.424802 0.180138 0.186714
H29   H     H_    0.291456 0.549843 0.106324 0.179053
C59   C     C_3   0.708017 0.999870 0.829641 -0.349469
C60   C     C_3   0.654447 0.853461 0.818744 -0.769038
H30   H     H_    0.607663 0.914533 0.835038 0.217247
H31   H     H_    0.651635 0.800252 0.755208 0.228098
H32   H     H_    0.664896 0.731911 0.859726 0.222661
H33   H     H_    0.753781 0.924598 0.819815 0.186731
H34   H     H_    0.708638 0.049899 0.893691 0.179073
C61   C     C_3   0.293828 0.108035 0.414124 -0.355355
C62   C     C_3   0.241495 0.044898 0.470564 -0.788335
H35   H     H_    0.192979 0.058623 0.441257 0.233112
H36   H     H_    0.249403 0.895254 0.487890 0.218025
H37   H     H_    0.243284 0.132651 0.526527 0.222660
H38   H     H_    0.337802 0.117787 0.452942 0.205247
H39   H     H_    0.285231 0.254345 0.392477 0.172615
C63   C     C_3   0.706119 0.608295 0.585976 -0.355355
C64   C     C_3   0.758466 0.545364 0.529524 -0.788522
H40   H     H_    0.806975 0.559138 0.558843 0.233154
H41   H     H_    0.750599 0.395738 0.512152 0.218055
H42   H     H_    0.756654 0.633208 0.473586 0.222642
H43   H     H_    0.662153 0.618077 0.547147 0.205323
H44   H     H_    0.714681 0.754564 0.607683 0.172660

loop_
_geom_bond_atom_site_label_1
_geom_bond_atom_site_label_2
_ccdc_geom_bond_type
C40   C42   A    
C57   H28   S    
C63   C64   S    
C26   H14   S    
C15   C17   A    
H10   C50   S    
C24   H6    S    
O1    C3    A    
O2    C4    A    
C2    O7    A    
C26   C50   A    
C30   C52   A    
C61   H38   S    
O5    C3    A    
C21   H3    S    
C58   H26   S    
O11   C55   A    
C22   H4    S    
C33   H19   S    
C59   H33   S    
C29   C51   A    
O15   C55   A    
C31   C33   A    
C58   H25   S    
C25   H13   S    
C32   C34   A    
C40   C48   A    
C13   C61   S    
C39   C47   A    
C51   C56   S    
C34   C36   A    
C14   C63   S    
C43   C45   A    
C36   C38   A    
C28   C48   A    
C8    C12   A    
O15   V3    S    
C39   C41   A    
C25   C41   A    
C20   H2    S    
C29   H17   S    
C22   C24   A    
C62   H37   S    
C60   H32   S    
O5    V1    S    
C57   H29   S    
O6    V2    S    
H11   C43   S    
C27   C49   A    
C5    C21   A    
C7    C13   A    
C32   H22   S    
O12   C56   A    
C59   C60   S    
C46   H24   S    
C62   H36   S    
C3    C8    S    
C33   C35   A    
C36   C40   A    
C1    C28   S    
O4    C2    A    
C54   O17   A    
C15   C23   A    
C9    C17   A    
C19   H1    S    
C41   C43   A    
O4    V2    S    
C7    C11   A    
C64   H41   S    
C26   C42   A    
O13   C53   A    
C63   H44   S    
O6    C4    A    
O18   V4    S    
O14   C54   A    
C47   H15   S    
O1    V2    S    
O20   V4    S    
O2    V1    S    
C6    C22   A    
O17   V3    S    
C28   C50   A    
C61   H39   S    
C42   C44   A    
C37   C45   A    
O19   V4    S    
C10   C59   S    
C9    C11   A    
O11   V4    S    
C12   H8    S    
C45   H23   S    
C6    C20   A    
C2    C27   S    
C64   H40   S    
O3    V1    S    
C62   H35   S    
C60   H30   S    
C37   C51   A    
O16   V4    S    
C10   C18   A    
C11   H7    S    
C38   C52   A    
C35   C37   A    
C27   C47   A    
O13   V3    S    
O3    C1    A    
C61   C62   S    
C30   H18   S    
C13   C15   A    
C57   C58   S    
C14   C16   A    
C25   C49   A    
C29   C31   A    
O7    V1    S    
C64   H42   S    
H9    C49   S    
C1    O8    A    
C17   C19   A    
O8    V2    S    
C18   C20   A    
C34   H20   S    
C8    C14   A    
C63   H43   S    
C5    C19   A    
O16   C56   A    
C4    C7    S    
C16   C18   A    
C21   C23   A    
C30   C32   A    
C10   C12   A    
C38   C46   A    
H12   C44   S    
O20   V3    S    
C23   H5    S    
O12   V3    S    
O14   V4    S    
C35   C39   A    
C16   C24   A    
O19   V3    S    
C48   H16   S    
O9    V2    S    
C52   C55   S    
C6    C53   S    
C59   H34   S    
O10   V1    S    
C44   C46   A    
C5    C54   S    
C53   O18   A    
C31   H21   S    
C9    C57   S    
C60   H31   S    
C58   H27   S    
