data_mof_unit_14652.cif
_audit_creation_date              2012-12-11T17:47:39-0500
_audit_creation_method            fapswitch 2.2
_symmetry_space_group_name_H-M    P1
_symmetry_Int_Tables_number       1
_space_group_crystal_system       monoclinic
_cell_length_a                    7.219286
_cell_length_b                    23.077869
_cell_length_c                    25.242515
_cell_angle_alpha                 90.0
_cell_angle_beta                  90.000014
_cell_angle_gamma                 90.0
_cell_volume                      4205.54780475

loop_
_atom_site_label
_atom_site_type_symbol
_atom_type_description
_atom_site_fract_x
_atom_site_fract_y
_atom_site_fract_z
_atom_type_partial_charge
O1    O     O_R   0.690340 0.802800 0.195640 -0.537450
O2    O     O_R   0.309660 0.197200 0.804360 -0.537543
O3    O     O_R   0.309660 0.197200 0.695640 -0.537450
O4    O     O_R   0.690340 0.802800 0.304360 -0.537543
O5    O     O_R   0.190340 0.697200 0.304360 -0.537450
O6    O     O_R   0.809660 0.302800 0.695640 -0.537543
O7    O     O_R   0.809660 0.302800 0.804360 -0.537451
O8    O     O_R   0.190340 0.697200 0.195640 -0.537543
O9    O     O_R   0.360590 0.809740 0.303990 -0.541786
O10   O     O_R   0.639410 0.190260 0.696010 -0.541906
O11   O     O_R   0.639410 0.190260 0.803990 -0.541786
O12   O     O_R   0.360590 0.809740 0.196010 -0.541905
O13   O     O_R   0.860590 0.690260 0.196010 -0.541786
O14   O     O_R   0.139410 0.309740 0.803990 -0.541906
O15   O     O_R   0.139410 0.309740 0.696010 -0.541786
O16   O     O_R   0.860590 0.690260 0.303990 -0.541906
C1    C     C_R   0.529162 0.823578 0.321676 0.706480
C2    C     C_R   0.470834 0.176429 0.678313 0.706692
C3    C     C_R   0.470838 0.176421 0.821676 0.706479
C4    C     C_R   0.529165 0.823571 0.178313 0.706692
C5    C     C_R   0.029162 0.676422 0.178323 0.706479
C6    C     C_R   0.970835 0.323571 0.821687 0.706692
C7    C     C_R   0.970838 0.323578 0.678323 0.706480
C8    C     C_R   0.029165 0.676429 0.321687 0.706692
O17   O     O_3   0.523810 0.713070 0.250000 -0.376292
O18   O     O_3   0.476190 0.286930 0.750000 -0.376292
O19   O     O_3   0.023810 0.786930 0.250000 -0.376292
O20   O     O_3   0.976190 0.213070 0.750000 -0.376292
V1    V     V_3+5 0.248970 0.756850 0.250000 1.390953
V2    V     V_3+5 0.751030 0.243150 0.750000 1.390953
V3    V     V_3+5 0.748970 0.743150 0.250000 1.390953
V4    V     V_3+5 0.251030 0.256850 0.750000 1.390953
C9    C     C_R   0.038781 0.633389 0.365698 -0.069085
C10   C     C_R   0.961277 0.366661 0.634356 -0.067191
C11   C     C_R   0.961218 0.366611 0.865699 -0.069084
C12   C     C_R   0.038723 0.633339 0.134356 -0.067192
C13   C     C_R   0.538781 0.866611 0.134301 -0.069085
C14   C     C_R   0.461277 0.133339 0.865644 -0.067192
C15   C     C_R   0.461218 0.133389 0.634301 -0.069085
C16   C     C_R   0.538723 0.866660 0.365644 -0.067192
C17   C     C_R   0.883138 0.600301 0.380002 -0.233169
C18   C     C_R   0.116727 0.399966 0.620276 -0.231610
C19   C     C_R   0.116862 0.399698 0.880002 -0.233170
C20   C     C_R   0.883272 0.600034 0.120276 -0.231609
C21   C     C_R   0.383138 0.899699 0.119998 -0.233169
C22   C     C_R   0.616728 0.100034 0.879724 -0.231610
C23   C     C_R   0.616862 0.100301 0.619998 -0.233169
C24   C     C_R   0.383272 0.899966 0.379724 -0.231610
C25   C     C_R   0.892793 0.560200 0.421530 -0.223520
C26   C     C_R   0.107194 0.440089 0.578757 -0.222238
C27   C     C_R   0.107207 0.439800 0.921531 -0.223520
C28   C     C_R   0.892806 0.559911 0.078757 -0.222237
C29   C     C_R   0.392793 0.939800 0.078469 -0.223520
C30   C     C_R   0.607194 0.059911 0.921243 -0.222238
C31   C     C_R   0.607206 0.060200 0.578470 -0.223519
C32   C     C_R   0.392806 0.940089 0.421243 -0.222238
C33   C     C_R   0.057958 0.552839 0.450801 0.397620
C34   C     C_R   0.942409 0.447250 0.549289 0.403922
C35   C     C_R   0.942041 0.447161 0.950801 0.397621
C36   C     C_R   0.057591 0.552750 0.049289 0.403924
C37   C     C_R   0.557959 0.947161 0.049199 0.397619
C38   C     C_R   0.442409 0.052750 0.950710 0.403923
C39   C     C_R   0.442042 0.052839 0.549199 0.397619
C40   C     C_R   0.557591 0.947250 0.450711 0.403922
C41   C     C_R   0.214348 0.586295 0.436887 0.260238
C42   C     C_R   0.786301 0.413753 0.563075 0.256037
C43   C     C_R   0.785650 0.413706 0.936887 0.260235
C44   C     C_R   0.213699 0.586247 0.063075 0.256037
C45   C     C_R   0.714349 0.913706 0.063113 0.260240
C46   C     C_R   0.286301 0.086248 0.936925 0.256038
C47   C     C_R   0.285652 0.086294 0.563113 0.260239
C48   C     C_R   0.713699 0.913752 0.436925 0.256037
C49   C     C_R   0.204213 0.625446 0.394256 -0.265816
C50   C     C_R   0.796160 0.374449 0.605615 -0.270539
C51   C     C_R   0.795786 0.374554 0.894255 -0.265815
C52   C     C_R   0.203840 0.625551 0.105615 -0.270539
C53   C     C_R   0.704213 0.874554 0.105744 -0.265815
C54   C     C_R   0.296160 0.125551 0.894385 -0.270539
C55   C     C_R   0.295787 0.125446 0.605744 -0.265816
C56   C     C_R   0.703840 0.874449 0.394385 -0.270539
N1    N     N_2   0.074299 0.511764 0.493102 -0.286214
N2    N     N_2   0.926021 0.488263 0.506955 -0.287656
N3    N     N_2   0.925700 0.488236 0.993101 -0.286217
N4    N     N_2   0.073978 0.511737 0.006955 -0.287654
N5    N     N_2   0.574299 0.988237 0.006899 -0.286216
N6    N     N_2   0.426021 0.011737 0.993044 -0.287658
N7    N     N_2   0.425701 0.011763 0.506899 -0.286215
N8    N     N_2   0.573979 0.988263 0.493045 -0.287657
H1    H     H_    0.245837 0.395588 0.641750 0.145083
H2    H     H_    0.753757 0.604823 0.358687 0.146435
H3    H     H_    0.754163 0.604412 0.141750 0.145083
H4    H     H_    0.246244 0.395176 0.858688 0.146435
H5    H     H_    0.745837 0.104412 0.858250 0.145083
H6    H     H_    0.253756 0.895176 0.141312 0.146435
H7    H     H_    0.254163 0.895588 0.358250 0.145083
H8    H     H_    0.746243 0.104823 0.641313 0.146434
H9    H     H_    0.228587 0.465894 0.570161 0.160243
H10   H     H_    0.771103 0.534573 0.430293 0.169546
H11   H     H_    0.771413 0.534107 0.070161 0.160234
H12   H     H_    0.228898 0.465426 0.930294 0.169549
H13   H     H_    0.728587 0.034106 0.929839 0.160242
H14   H     H_    0.271103 0.965427 0.069707 0.169546
H15   H     H_    0.271413 0.965893 0.429839 0.160243
H16   H     H_    0.728897 0.034573 0.569707 0.169546
H17   H     H_    0.326083 0.650509 0.384153 0.138340
H18   H     H_    0.674447 0.349189 0.615462 0.139436
H19   H     H_    0.673915 0.349492 0.884152 0.138340
H20   H     H_    0.325553 0.650811 0.115462 0.139436
H21   H     H_    0.826084 0.849491 0.115847 0.138340
H22   H     H_    0.174447 0.150811 0.884538 0.139436
H23   H     H_    0.173917 0.150509 0.615846 0.138340
H24   H     H_    0.825553 0.849189 0.384538 0.139436
N9    N     N_2   0.385433 0.579411 0.464389 -0.511270
H25   H     H_    0.501229 0.593404 0.444200 0.249376
C57   C     C_3   0.387228 0.594567 0.520142 -0.479577
H26   H     H_    0.478037 0.632785 0.526665 0.173025
H27   H     H_    0.442943 0.557544 0.543238 0.218863
H28   H     H_    0.246762 0.605355 0.535296 0.191532
N10   N     N_2   0.616529 0.420476 0.535033 -0.509592
H29   H     H_    0.501430 0.409746 0.557112 0.249599
C58   C     C_3   0.612775 0.393356 0.483373 -0.509665
H30   H     H_    0.478315 0.402802 0.463817 0.205645
H31   H     H_    0.628026 0.345628 0.487398 0.178493
H32   H     H_    0.725206 0.410417 0.457756 0.214563
N11   N     N_2   0.614563 0.420591 0.964388 -0.511274
H33   H     H_    0.498770 0.406594 0.944199 0.249374
C59   C     C_3   0.612767 0.405442 0.020142 -0.479554
H34   H     H_    0.521917 0.367235 0.026671 0.173024
H35   H     H_    0.557100 0.442474 0.043236 0.218866
H36   H     H_    0.753226 0.394639 0.035293 0.191521
N12   N     N_2   0.383471 0.579524 0.035033 -0.509596
H37   H     H_    0.498570 0.590254 0.057112 0.249598
C60   C     C_3   0.387225 0.606643 0.983373 -0.509666
H38   H     H_    0.521686 0.597198 0.963817 0.205645
H39   H     H_    0.371974 0.654372 0.987398 0.178494
H40   H     H_    0.274795 0.589583 0.957756 0.214564
N13   N     N_2   0.885436 0.920590 0.035612 -0.511272
H41   H     H_    0.001230 0.906596 0.055801 0.249376
C61   C     C_3   0.887233 0.905437 0.979858 -0.479580
H42   H     H_    0.978042 0.867220 0.973334 0.173026
H43   H     H_    0.942949 0.942462 0.956764 0.218867
H44   H     H_    0.746768 0.894650 0.964703 0.191533
N14   N     N_2   0.116529 0.079524 0.964967 -0.509596
H45   H     H_    0.001430 0.090256 0.942888 0.249600
C62   C     C_3   0.112775 0.106642 0.016627 -0.509670
H46   H     H_    0.978311 0.097198 0.036182 0.205645
H47   H     H_    0.128037 0.154370 0.012605 0.178495
H48   H     H_    0.225199 0.089578 0.042244 0.214567
N15   N     N_2   0.114566 0.079410 0.535611 -0.511270
H49   H     H_    0.998771 0.093404 0.555800 0.249376
C63   C     C_3   0.112770 0.094566 0.479858 -0.479580
H50   H     H_    0.021968 0.132785 0.473335 0.173025
H51   H     H_    0.057048 0.057543 0.456763 0.218865
H52   H     H_    0.253237 0.105351 0.464704 0.191534
N16   N     N_2   0.883471 0.920475 0.464967 -0.509593
H53   H     H_    0.998570 0.909745 0.442888 0.249600
C64   C     C_3   0.887224 0.893357 0.516627 -0.509667
H54   H     H_    0.021687 0.902801 0.536183 0.205644
H55   H     H_    0.871968 0.845629 0.512603 0.178494
H56   H     H_    0.774797 0.910419 0.542244 0.214565

loop_
_geom_bond_atom_site_label_1
_geom_bond_atom_site_label_2
_ccdc_geom_bond_type
O17   V3    S    
N7    N8    D    
C51   H19   S    
C64   H54   S    
C24   H7    S    
O12   V1    S    
O19   V1    S    
C36   N4    S    
C30   H13   S    
C45   C53   A    
C10   C18   A    
C47   C55   A    
C62   H46   S    
C25   C33   A    
O15   V4    S    
C5    C12   S    
C47   N15   S    
N5    N6    D    
O16   V3    S    
O18   V4    S    
C6    C11   S    
N13   C61   S    
O11   C3    A    
C46   N14   S    
O12   C4    A    
O8    V1    S    
C23   C31   A    
C35   N3    S    
C34   N2    S    
C61   H44   S    
C46   C54   A    
C37   C45   A    
N14   H45   S    
C42   C50   A    
N14   C62   S    
O1    V3    S    
C41   C49   A    
C38   C46   A    
O3    C2    A    
O2    V4    S    
C63   H52   S    
C16   C24   A    
C58   H32   S    
C28   C36   A    
C35   C43   A    
C25   H10   S    
C29   C37   A    
C34   C42   A    
O11   V2    S    
C57   H27   S    
C31   C39   A    
C52   H20   S    
C60   H40   S    
C23   H8    S    
C16   C56   A    
C11   C19   A    
O9    V1    S    
C20   C28   A    
O15   C7    A    
C17   H2    S    
C21   C29   A    
C64   H55   S    
C48   N16   S    
C63   H51   S    
N15   C63   S    
C56   H24   S    
C21   H6    S    
C17   C25   A    
C62   H47   S    
N1    N2    D    
O5    V1    S    
N10   C58   S    
C45   N13   S    
C61   H42   S    
C14   C22   A    
C26   C34   A    
C22   H5    S    
O14   V4    S    
C14   C54   A    
N12   C60   S    
C13   C53   A    
C31   H16   S    
C1    C16   S    
C15   C55   A    
C44   N12   S    
C2    C15   S    
C59   H35   S    
C3    C14   S    
N11   C59   S    
C50   H18   S    
C38   N6    S    
O10   V2    S    
C49   H17   S    
N3    N4    D    
C29   H14   S    
C63   H50   S    
C57   H28   S    
C11   C51   A    
C22   C30   A    
C32   C40   A    
O8    C5    A    
O13   C5    A    
C54   H22   S    
C53   H21   S    
N16   C64   S    
C58   H30   S    
C20   H3    S    
C37   N5    S    
C10   C50   A    
O4    C1    A    
C9    C49   A    
O6    V2    S    
C39   C47   A    
C64   H56   S    
C42   N10   S    
N11   H33   S    
C33   N1    S    
C12   C20   A    
C27   C35   A    
C13   C21   A    
N12   H37   S    
C62   H48   S    
C15   C23   A    
N9    H25   S    
O9    C1    A    
C27   H12   S    
C24   C32   A    
C7    C10   S    
C26   H9    S    
C18   C26   A    
C39   N7    S    
O2    C3    A    
C41   N9    S    
O13   V3    S    
C19   H4    S    
C32   H15   S    
C33   C41   A    
O1    C4    A    
O7    V2    S    
N10   H29   S    
C44   C52   A    
O7    C6    A    
C30   C38   A    
N13   H41   S    
C28   H11   S    
C8    C9    S    
C55   H23   S    
C18   H1    S    
C9    C17   A    
O14   C6    A    
C43   N11   S    
C59   H36   S    
C48   C56   A    
N15   H49   S    
C4    C13   S    
C61   H43   S    
C19   C27   A    
C57   H26   S    
C60   H38   S    
O5    C8    A    
O10   C2    A    
O6    C7    A    
O20   V2    S    
C40   C48   A    
O3    V4    S    
C58   H31   S    
O4    V3    S    
C12   C52   A    
C43   C51   A    
C36   C44   A    
O16   C8    A    
N16   H53   S    
C60   H39   S    
C40   N8    S    
C59   H34   S    
N9    C57   S    
