data_mof_unit_7525.cif
_audit_creation_date              2012-12-10T18:52:13-0500
_audit_creation_method            fapswitch 2.2
_symmetry_space_group_name_H-M    P1
_symmetry_Int_Tables_number       1
_space_group_crystal_system       triclinic
_cell_length_a                    15.745529
_cell_length_b                    10.658592
_cell_length_c                    9.849629
_cell_angle_alpha                 90.104795
_cell_angle_beta                  89.834523
_cell_angle_gamma                 90.103786
_cell_volume                      1653.00330065

loop_
_atom_site_label
_atom_site_type_symbol
_atom_type_description
_atom_site_fract_x
_atom_site_fract_y
_atom_site_fract_z
_atom_type_partial_charge
C1    C     C_R   0.498537 0.260194 0.499781 0.881904
C2    C     C_R   0.448689 0.419886 0.072034 -0.063648
C3    C     C_R   0.337951 0.499742 0.500169 0.895792
C4    C     C_R   0.662051 0.500203 0.499829 0.906690
C5    C     C_3   0.970992 0.409499 0.578530 0.117886
C6    C     C_3   0.029020 0.590083 0.421447 0.118166
C7    C     C_3   0.027136 0.388584 0.453062 0.122992
C8    C     C_3   0.972880 0.611000 0.546914 0.122466
C9    C     C_1   0.249228 0.498945 0.500747 -0.191316
C10   C     C_1   0.750779 0.500843 0.499244 -0.187364
C11   C     C_3   0.027745 0.517609 0.629767 -0.291769
C12   C     C_R   0.501297 0.739822 0.500227 0.898680
C13   C     C_3   0.972268 0.481974 0.370209 -0.291749
C14   C     C_3   0.083386 0.497871 0.501795 0.104389
C15   C     C_3   0.916625 0.501714 0.498182 0.104087
C16   C     C_1   0.174092 0.498303 0.501399 -0.061185
C17   C     C_1   0.825917 0.501361 0.498584 -0.060433
C18   C     C_R   0.446243 0.062470 0.406771 0.116882
C19   C     C_R   0.552289 0.937755 0.593378 0.103307
C20   C     C_3   0.061033 0.262421 0.402850 -0.421258
C21   C     C_3   0.989140 0.177922 0.351370 -0.320281
C22   C     C_3   0.023071 0.050651 0.305567 -0.899372
C23   C     C_R   0.449350 0.933128 0.407597 -0.274026
C24   C     C_3   0.939007 0.737174 0.597133 -0.418550
C25   C     C_3   0.010915 0.821656 0.648591 -0.322236
C26   C     C_3   0.977005 0.948936 0.694400 -0.899262
C27   C     C_R   0.549579 0.066740 0.592496 -0.280376
C28   C     C_R   0.501594 0.872203 0.500566 -0.042365
C29   C     C_R   0.497455 0.127815 0.499539 -0.050548
C30   C     C_R   0.551324 0.580151 0.071799 -0.073737
C31   C     C_R   0.448673 0.419853 0.928200 -0.072728
C32   C     C_R   0.551311 0.580110 0.927968 -0.069848
H1    H     H_    0.948773 0.469629 0.264867 0.142286
H2    H     H_    0.055911 0.003114 0.390698 0.271776
H3    H     H_    0.969537 0.990462 0.271588 0.246743
H4    H     H_    0.941502 0.163135 0.433162 0.237827
H5    H     H_    0.956893 0.223539 0.264253 0.217987
H6    H     H_    0.107158 0.279741 0.319325 0.197463
H7    H     H_    0.094856 0.215742 0.487738 0.199589
H8    H     H_    0.944159 0.996480 0.609279 0.271863
H9    H     H_    0.931829 0.937102 0.780271 0.261446
H10   H     H_    0.030550 0.009113 0.728360 0.246461
H11   H     H_    0.043167 0.776032 0.735699 0.218029
H12   H     H_    0.051240 0.529953 0.735108 0.142170
H13   H     H_    0.058546 0.836429 0.566785 0.237896
H14   H     H_    0.905180 0.783862 0.512254 0.200692
H15   H     H_    0.892891 0.719868 0.680675 0.198673
H16   H     H_    0.988145 0.263533 0.707474 0.179176
H17   H     H_    0.903200 0.352672 0.742983 0.184605
H18   H     H_    0.011866 0.736043 0.292493 0.179313
H19   H     H_    0.096815 0.646907 0.256995 0.184376
H20   H     H_    0.342889 0.169710 0.373706 0.164653
H21   H     H_    0.360275 0.064476 0.249964 0.174614
H22   H     H_    0.591736 0.899869 0.784021 0.183838
H23   H     H_    0.409915 0.879765 0.338150 0.154523
H24   H     H_    0.670021 0.904366 0.666249 0.174428
H25   H     H_    0.589335 0.119204 0.662309 0.159399
H26   H     H_    0.592382 0.644246 0.126144 0.129467
H27   H     H_    0.407615 0.355759 0.873853 0.128999
H28   H     H_    0.592388 0.644127 0.873444 0.136989
H29   H     H_    0.407625 0.355846 0.126563 0.140440
H30   H     H_    0.068256 0.062499 0.219711 0.261218
N1    N     N_R   0.499980 0.499970 0.857200 -0.080158
N2    N     N_R   0.500020 0.500030 0.142800 -0.080593
N3    N     N_3   0.936659 0.309930 0.663713 -0.469965
N4    N     N_3   0.063353 0.689651 0.336261 -0.469949
N5    N     N_3   0.390567 0.127630 0.315290 -0.446993
N6    N     N_3   0.607967 0.873682 0.684941 -0.458420
O1    O     O_R   0.499990 0.316750 0.614620 -0.631904
O2    O     O_R   0.500010 0.683250 0.385380 -0.633073
O3    O     O_R   0.500000 0.316780 0.385290 -0.597617
O4    O     O_R   0.500000 0.683220 0.614710 -0.600519
O5    O     O_R   0.376780 0.499970 0.614640 -0.616871
O6    O     O_R   0.623220 0.500030 0.385360 -0.616799
O7    O     O_R   0.376780 0.500000 0.385310 -0.618107
O8    O     O_R   0.623220 0.500000 0.614690 -0.614364
Zn1   Zn    Zn3+2 0.500000 0.499980 0.653120 0.953286
Zn2   Zn    Zn3+2 0.500000 0.500020 0.346880 0.953918

loop_
_geom_bond_atom_site_label_1
_geom_bond_atom_site_label_2
_ccdc_geom_bond_type
C30   N2    A    
O2    Zn2   S    
O1    Zn1   S    
C25   H11   S    
C21   H4    S    
C22   H3    S    
C1    O3    A    
H17   N3    S    
C12   C28   S    
C9    C16   T    
C5    C11   S    
C11   C14   S    
C6    C14   S    
C10   C17   T    
C27   C29   A    
C31   H27   S    
C7    C14   S    
H16   N3    S    
C19   C27   A    
C4    O6    A    
C2    H29   S    
C12   O4    A    
C21   C22   S    
C3    O5    A    
C2    N2    A    
C22   H2    S    
C5    C15   S    
C18   C23   A    
C31   N1    A    
C19   N6    S    
C24   C25   S    
C5    N3    S    
C27   H25   S    
C5    C7    S    
C20   H7    S    
C6    C8    S    
C25   C26   S    
H24   N6    S    
C1    O1    A    
C2    C31   A    
H19   N4    S    
C13   H1    S    
O4    Zn1   S    
C3    C9    S    
C22   H30   S    
C20   H6    S    
C6    N4    S    
H22   N6    S    
C1    C29   S    
C11   H12   S    
C18   C29   A    
C23   C28   A    
O8    Zn1   S    
C19   C28   A    
H18   N4    S    
H20   N5    S    
C8    C15   S    
C13   C15   S    
C14   C16   S    
C32   H28   S    
C4    C10   S    
C25   H13   S    
C3    O7    A    
C26   H10   S    
N1    Zn1   S    
C15   C17   S    
C12   O2    A    
C24   H15   S    
N2    Zn2   S    
C32   N1    A    
C23   H23   S    
C24   H14   S    
C18   N5    S    
C6    C13   S    
C30   C32   A    
C26   H8    S    
C8    C11   S    
C30   H26   S    
C8    C24   S    
H21   N5    S    
O7    Zn2   S    
C4    O8    A    
C7    C13   S    
C21   H5    S    
C20   C21   S    
C7    C20   S    
O6    Zn2   S    
O5    Zn1   S    
O3    Zn2   S    
C26   H9    S    
