data_mof_unit_52766.cif
_audit_creation_date              2012-12-10T19:47:47-0500
_audit_creation_method            fapswitch 2.2
_symmetry_space_group_name_H-M    P1
_symmetry_Int_Tables_number       1
_space_group_crystal_system       triclinic
_cell_length_a                    18.213616
_cell_length_b                    18.223692
_cell_length_c                    21.874931
_cell_angle_alpha                 89.242906
_cell_angle_beta                  90.385336
_cell_angle_gamma                 90.076363
_cell_volume                      7259.90872918

loop_
_atom_site_label
_atom_site_type_symbol
_atom_type_description
_atom_site_fract_x
_atom_site_fract_y
_atom_site_fract_z
_atom_type_partial_charge
C1    C     C_R   0.000030 0.358678 0.000210 1.034736
C2    C     C_1   0.282160 0.000170 0.000138 -0.214053
C3    C     C_3   0.682562 0.058546 0.850454 0.059421
C4    C     C_3   0.760997 0.045770 0.826911 -0.365727
C5    C     C_3   0.807022 0.115659 0.827161 -0.943082
C6    C     C_3   0.869882 0.309092 0.882973 0.090783
C7    C     C_3   0.805506 0.324268 0.926456 -0.317781
C8    C     C_3   0.751829 0.260087 0.929985 -1.026588
C9    C     C_3   0.341440 0.144529 0.886789 0.126837
C10   C     C_3   0.405236 0.199659 0.883699 -0.338237
C11   C     C_3   0.378656 0.277716 0.894809 -1.009142
C12   C     C_3   0.149751 0.348310 0.111779 0.130752
C13   C     C_1   0.001097 0.717871 0.999663 -0.222706
C14   C     C_3   0.203702 0.413199 0.112086 -0.337080
C15   C     C_3   0.282004 0.387790 0.099881 -1.009456
C16   C     C_3   0.703045 0.096329 0.141243 0.070057
C17   C     C_3   0.722859 0.160742 0.098509 -0.344867
C18   C     C_3   0.804810 0.178089 0.100986 -0.944829
C19   C     C_3   0.910223 0.708078 0.135213 0.065522
C20   C     C_3   0.847312 0.731533 0.091939 -0.329313
C21   C     C_3   0.825411 0.811313 0.101733 -0.950833
C22   C     C_3   0.299794 0.896737 0.138399 0.060999
C23   C     C_3   0.273637 0.836204 0.095275 -0.329070
C24   C     C_1   0.717866 0.999772 0.000242 -0.193997
C25   C     C_3   0.191647 0.821127 0.102262 -0.959088
C26   C     C_3   0.415039 0.153830 0.343934 0.091820
C27   C     C_3   0.399549 0.217511 0.298749 -0.379712
C28   C     C_3   0.317954 0.222001 0.282496 -0.984061
C29   C     C_3   0.206933 0.404328 0.369704 0.077336
C30   C     C_3   0.224106 0.340972 0.414884 -0.341076
C31   C     C_3   0.306563 0.327738 0.421755 -0.941166
C32   C     C_3   0.351193 0.844659 0.387095 0.134814
C33   C     C_3   0.296751 0.906635 0.371039 -0.366914
C34   C     C_3   0.217935 0.883263 0.384402 -0.994532
C35   C     C_1   0.499368 0.782161 0.498522 -0.212238
C36   C     C_3   0.848327 0.648916 0.387587 0.128474
C37   C     C_3   0.913235 0.702867 0.386022 -0.336599
C38   C     C_3   0.887850 0.781292 0.397220 -1.004820
C39   C     C_3   0.585744 0.793269 0.641198 0.073756
C40   C     C_3   0.651843 0.771586 0.602091 -0.343105
C41   C     C_3   0.671085 0.690616 0.610631 -0.945360
C42   C     C_3   0.208017 0.571328 0.649831 0.077817
C43   C     C_3   0.246811 0.645736 0.639630 -0.397746
C44   C     C_3   0.328043 0.637645 0.624894 -0.864554
C45   C     C_3   0.398860 0.202840 0.634975 0.063280
C46   C     C_1   0.782173 0.499912 0.500506 -0.187801
C47   C     C_3   0.337598 0.226466 0.590393 -0.329440
C48   C     C_3   0.319619 0.307837 0.596309 -0.964790
C49   C     C_3   0.855977 0.342178 0.612698 0.131521
C50   C     C_3   0.920372 0.290207 0.627692 -0.360152
C51   C     C_3   0.899800 0.210590 0.615154 -0.991697
C52   C     C_1   0.500499 0.217860 0.500201 -0.189550
C53   C     C_1   0.217839 0.500814 0.500087 -0.217754
C54   C     C_R   0.999390 0.499676 0.879768 1.045812
C55   C     C_R   0.496337 0.001138 0.879920 1.059410
C56   C     C_R   0.000217 0.498944 0.120260 1.046449
C57   C     C_R   0.358698 0.999988 0.000289 1.022906
C58   C     C_R   0.500617 0.999293 0.120471 1.011180
C59   C     C_R   0.499040 0.995165 0.380039 1.044534
C60   C     C_R   0.999604 0.500287 0.379761 1.045037
C61   C     C_R   0.499924 0.999759 0.620462 1.021933
C62   C     C_R   0.998375 0.499421 0.620262 1.034099
C63   C     C_R   0.066379 0.622111 0.808122 0.492948
C64   C     C_R   0.624820 0.956589 0.813665 0.522559
C65   C     C_R   0.893241 0.407567 0.813768 0.518833
C66   C     C_R   0.371375 0.064896 0.808578 0.485731
C67   C     C_R   0.072202 0.378772 0.191712 0.489746
C68   C     C_R   0.000199 0.641325 0.999736 1.046296
C69   C     C_R   0.592286 0.099932 0.195403 0.523578
C70   C     C_R   0.902450 0.595316 0.185373 0.513533
C71   C     C_R   0.413245 0.888806 0.187111 0.516910
C72   C     C_R   0.531304 0.126705 0.310409 0.514260
C73   C     C_R   0.096637 0.401920 0.314797 0.513158
C74   C     C_R   0.436667 0.868967 0.311163 0.486617
C75   C     C_R   0.878786 0.570772 0.308401 0.489945
C76   C     C_R   0.595461 0.902272 0.696706 0.522631
C77   C     C_R   0.093249 0.596310 0.686909 0.525994
C78   C     C_R   0.392808 0.089762 0.685014 0.519201
C79   C     C_R   0.641312 0.999959 0.001118 1.036474
C80   C     C_R   0.877279 0.427362 0.688687 0.489206
C81   C     C_R   0.084079 0.681005 0.768601 -0.325950
C82   C     C_R   0.672345 0.906223 0.787764 -0.291127
C83   C     C_R   0.824097 0.398319 0.785815 -0.345103
C84   C     C_R   0.311246 0.081960 0.770430 -0.315561
C85   C     C_R   0.091904 0.319808 0.230229 -0.314754
C86   C     C_R   0.609389 0.164626 0.227388 -0.355626
C87   C     C_R   0.832340 0.605853 0.209333 -0.313244
C88   C     C_R   0.404340 0.819045 0.213411 -0.318509
C89   C     C_R   0.577206 0.178679 0.283282 -0.277772
C90   C     C_R   0.499882 0.858681 0.499631 1.024012
C91   C     C_R   0.107287 0.332047 0.290695 -0.315095
C92   C     C_R   0.419444 0.808386 0.274689 -0.313997
C93   C     C_R   0.819778 0.590143 0.269899 -0.315822
C94   C     C_R   0.657436 0.878344 0.730583 -0.353071
C95   C     C_R   0.100169 0.667505 0.708450 -0.300503
C96   C     C_R   0.322692 0.098078 0.709572 -0.318490
C97   C     C_R   0.815917 0.410439 0.724181 -0.304092
C98   C     C_R   0.140753 0.000139 0.000133 0.924937
C99   C     C_R   0.000660 0.859253 0.000233 0.933976
C100  C     C_R   0.859249 0.999917 0.999837 0.922879
C101  C     C_R   0.858697 0.499956 0.500243 1.040747
C102  C     C_R   0.000069 0.140757 0.999751 0.924764
C103  C     C_R   0.640756 0.500081 0.500180 0.928767
C104  C     C_R   0.500127 0.359245 0.500267 0.924080
C105  C     C_R   0.359272 0.500873 0.499871 0.906580
C106  C     C_R   0.499642 0.640757 0.499594 0.923945
C107  C     C_R   0.044001 0.547871 0.717806 -0.096233
C108  C     C_R   0.550620 0.959215 0.721188 -0.075344
C109  C     C_R   0.940620 0.459229 0.718057 -0.089006
C110  C     C_R   0.443890 0.043402 0.716780 -0.079417
C111  C     C_R   0.046755 0.450275 0.283228 -0.080080
C112  C     C_R   0.500119 0.141320 0.500191 1.040180
C113  C     C_R   0.521433 0.057418 0.282372 -0.125385
C114  C     C_R   0.943540 0.539528 0.281093 -0.092210
C115  C     C_R   0.464538 0.934442 0.282219 -0.094890
C116  C     C_R   0.538454 0.050989 0.220436 -0.069799
C117  C     C_R   0.040513 0.443140 0.219038 -0.091185
C118  C     C_R   0.458981 0.940578 0.217774 -0.081723
C119  C     C_R   0.950626 0.545599 0.216928 -0.081890
C120  C     C_R   0.557776 0.974716 0.783546 -0.119209
C121  C     C_R   0.036658 0.556101 0.781430 -0.090643
C122  C     C_R   0.437335 0.037446 0.781076 -0.096955
C123  C     C_R   0.141303 0.500160 0.500280 1.026412
C124  C     C_R   0.945200 0.454521 0.782779 -0.073008
C125  C     C_R   0.997012 0.498443 0.686409 -0.158866
C126  C     C_R   0.498692 0.001127 0.686836 -0.160508
C127  C     C_R   0.999159 0.500027 0.313782 -0.159390
C128  C     C_R   0.494674 0.995185 0.314115 -0.166142
C129  C     C_R   0.499685 0.996881 0.186883 -0.157923
C130  C     C_R   0.000222 0.498226 0.186291 -0.159071
C131  C     C_R   0.497315 0.005686 0.814073 -0.157974
C132  C     C_R   0.996770 0.500829 0.813860 -0.160529
C133  C     C_1   0.000352 0.217286 0.999640 -0.219351
C134  C     C_1   0.000321 0.282149 0.000151 -0.212951
C135  C     C_1   0.217286 0.000250 0.000251 -0.213339
C136  C     C_1   0.001328 0.782740 0.000231 -0.217139
C137  C     C_1   0.782729 0.999782 0.999674 -0.217178
C138  C     C_1   0.499274 0.717288 0.498617 -0.213286
C139  C     C_1   0.717301 0.499999 0.500528 -0.201866
C140  C     C_1   0.500449 0.282721 0.500510 -0.204614
C141  C     C_1   0.282728 0.501160 0.499817 -0.231081
C142  C     C_3   0.142834 0.657255 0.888190 0.129683
C143  C     C_3   0.198640 0.594135 0.890784 -0.332601
C144  C     C_3   0.276085 0.622532 0.903294 -1.007732
H1    H     H_    0.777419 0.376063 0.809895 0.169178
H2    H     H_    0.765545 0.600159 0.287876 0.167827
H3    H     H_    0.860541 0.784872 0.442342 0.265654
H4    H     H_    0.535456 0.769169 0.620829 0.155946
H5    H     H_    0.589175 0.768046 0.687874 0.132577
H6    H     H_    0.639390 0.782539 0.553123 0.233994
H7    H     H_    0.700642 0.805100 0.614018 0.218857
H8    H     H_    0.688174 0.679323 0.658674 0.263816
H9    H     H_    0.717148 0.676249 0.580024 0.262242
H10   H     H_    0.623200 0.655661 0.599203 0.288053
H11   H     H_    0.232454 0.529951 0.619512 0.182054
H12   H     H_    0.218936 0.550433 0.697257 0.104539
H13   H     H_    0.586420 0.230973 0.305012 0.184975
H14   H     H_    0.219627 0.676706 0.601661 0.241048
H15   H     H_    0.243194 0.678397 0.681976 0.204876
H16   H     H_    0.354687 0.596929 0.656066 0.262369
H17   H     H_    0.356123 0.691369 0.630079 0.246520
H18   H     H_    0.334168 0.620873 0.576782 0.272190
H19   H     H_    0.450284 0.231511 0.621840 0.158335
H20   H     H_    0.386385 0.222152 0.682041 0.126566
H21   H     H_    0.354623 0.215722 0.542778 0.232085
H22   H     H_    0.287005 0.194217 0.599062 0.210422
H23   H     H_    0.300214 0.319567 0.643201 0.261323
H24   H     H_    0.131617 0.288125 0.317249 0.164133
H25   H     H_    0.275522 0.323136 0.563273 0.266474
H26   H     H_    0.368768 0.341807 0.586380 0.285283
H27   H     H_    0.843915 0.338341 0.563123 0.174468
H28   H     H_    0.805017 0.322304 0.635074 0.113033
H29   H     H_    0.968457 0.305090 0.599207 0.239654
H30   H     H_    0.936365 0.294610 0.676610 0.211784
H31   H     H_    0.853018 0.193303 0.644351 0.270508
H32   H     H_    0.947415 0.174500 0.625731 0.267946
H33   H     H_    0.884474 0.203992 0.566292 0.263752
H34   H     H_    0.278425 0.121980 0.682992 0.165056
H35   H     H_    0.763181 0.399128 0.703181 0.166928
H36   H     H_    0.695339 0.838677 0.712671 0.173482
H37   H     H_    0.122273 0.711088 0.680026 0.164735
H38   H     H_    0.139603 0.681649 0.934212 0.167140
H39   H     H_    0.164400 0.702792 0.859344 0.113750
H40   H     H_    0.183858 0.554985 0.927982 0.244083
H41   H     H_    0.257057 0.090636 0.788990 0.166944
H42   H     H_    0.198482 0.564472 0.846721 0.207891
H43   H     H_    0.293822 0.660166 0.865838 0.271527
H44   H     H_    0.314877 0.575629 0.906009 0.268367
H45   H     H_    0.277938 0.652109 0.947369 0.265576
H46   H     H_    0.685796 0.092114 0.892377 0.185438
H47   H     H_    0.650069 0.091482 0.816534 0.124529
H48   H     H_    0.788764 0.003475 0.855831 0.253354
H49   H     H_    0.758405 0.025809 0.779198 0.212459
H50   H     H_    0.777876 0.160846 0.802621 0.253044
H51   H     H_    0.860033 0.105620 0.803953 0.263456
H52   H     H_    0.091935 0.736035 0.785482 0.167817
H53   H     H_    0.819166 0.131738 0.874838 0.273357
H54   H     H_    0.907201 0.269421 0.905855 0.157886
H55   H     H_    0.851741 0.279813 0.841110 0.131316
H56   H     H_    0.826397 0.333812 0.973277 0.240128
H57   H     H_    0.775346 0.374455 0.911928 0.213062
H58   H     H_    0.729438 0.247635 0.883939 0.269371
H59   H     H_    0.705413 0.274426 0.960221 0.269828
H60   H     H_    0.779553 0.210934 0.949727 0.270325
H61   H     H_    0.320300 0.143315 0.934170 0.169257
H62   H     H_    0.294245 0.165233 0.859311 0.114495
H63   H     H_    0.722014 0.889807 0.811721 0.177444
H64   H     H_    0.446860 0.185562 0.919184 0.243274
H65   H     H_    0.431623 0.197847 0.838090 0.207488
H66   H     H_    0.338417 0.294631 0.858943 0.268944
H67   H     H_    0.426043 0.316079 0.893264 0.268027
H68   H     H_    0.352552 0.281297 0.940433 0.264377
H69   H     H_    0.147435 0.326170 0.064885 0.168774
H70   H     H_    0.172449 0.302094 0.139411 0.112407
H71   H     H_    0.187944 0.453587 0.075949 0.241314
H72   H     H_    0.202503 0.440751 0.157080 0.209723
H73   H     H_    0.300576 0.348943 0.136363 0.270169
H74   H     H_    0.788886 0.630962 0.182739 0.167004
H75   H     H_    0.319470 0.435908 0.099350 0.269075
H76   H     H_    0.284985 0.360450 0.054867 0.264068
H77   H     H_    0.729923 0.046094 0.124066 0.160802
H78   H     H_    0.726630 0.104441 0.187862 0.130881
H79   H     H_    0.707468 0.147191 0.050802 0.239237
H80   H     H_    0.691727 0.210515 0.111160 0.216000
H81   H     H_    0.821204 0.194307 0.147906 0.267017
H82   H     H_    0.817288 0.224194 0.068989 0.266696
H83   H     H_    0.837292 0.129600 0.087376 0.281957
H84   H     H_    0.961092 0.736902 0.120966 0.162329
H85   H     H_    0.380024 0.774752 0.187885 0.166193
H86   H     H_    0.899667 0.727779 0.182508 0.128543
H87   H     H_    0.863978 0.724858 0.043756 0.234278
H88   H     H_    0.798295 0.696476 0.098770 0.213481
H89   H     H_    0.803392 0.818200 0.148535 0.260552
H90   H     H_    0.782223 0.827449 0.068107 0.266695
H91   H     H_    0.873392 0.848075 0.095500 0.287830
H92   H     H_    0.272695 0.948983 0.124661 0.158315
H93   H     H_    0.280780 0.884799 0.185969 0.125652
H94   H     H_    0.284741 0.852699 0.047208 0.237809
H95   H     H_    0.304106 0.784621 0.104807 0.210408
H96   H     H_    0.101927 0.265648 0.212390 0.167569
H97   H     H_    0.179737 0.800911 0.149289 0.262246
H98   H     H_    0.174183 0.778617 0.069256 0.260907
H99   H     H_    0.159547 0.871768 0.092986 0.284921
H100  H     H_    0.383892 0.163936 0.386458 0.170021
H101  H     H_    0.393102 0.101663 0.325280 0.141188
H102  H     H_    0.418211 0.269835 0.319123 0.230169
H103  H     H_    0.430146 0.209616 0.255601 0.224837
H104  H     H_    0.301099 0.172822 0.256387 0.266045
H105  H     H_    0.307421 0.271656 0.253801 0.266356
H106  H     H_    0.284095 0.225034 0.324335 0.272257
H107  H     H_    0.645820 0.205601 0.208289 0.171482
H108  H     H_    0.237101 0.454019 0.384227 0.171340
H109  H     H_    0.229552 0.391748 0.323702 0.119344
H110  H     H_    0.201274 0.352565 0.460510 0.245510
H111  H     H_    0.198203 0.289497 0.399353 0.195487
H112  H     H_    0.334711 0.334638 0.377331 0.275391
H113  H     H_    0.316569 0.271310 0.439609 0.252018
H114  H     H_    0.330834 0.366536 0.454582 0.272028
H115  H     H_    0.347049 0.832807 0.436753 0.174929
H116  H     H_    0.333831 0.792653 0.365431 0.114921
H117  H     H_    0.309653 0.955841 0.398453 0.239050
H118  H     H_    0.409022 0.754889 0.294893 0.167637
H119  H     H_    0.300661 0.921754 0.321785 0.204975
H120  H     H_    0.202618 0.835080 0.356423 0.268861
H121  H     H_    0.179994 0.929116 0.372849 0.266554
H122  H     H_    0.211791 0.868979 0.433642 0.263782
H123  H     H_    0.826396 0.647108 0.434697 0.167412
H124  H     H_    0.801929 0.671244 0.360070 0.113995
H125  H     H_    0.953697 0.687662 0.422132 0.242454
H126  H     H_    0.940748 0.701064 0.340882 0.208903
H127  H     H_    0.848954 0.799365 0.360712 0.270449
H128  H     H_    0.936000 0.818732 0.396897 0.268700
O1    O     O_R   0.939380 0.392670 0.000020 -0.628806
O2    O     O_R   0.892670 0.560620 0.500020 -0.637459
O3    O     O_R   0.560620 0.107330 0.500020 -0.626876
O4    O     O_R   0.107330 0.439380 0.500020 -0.627040
O5    O     O_R   0.439380 0.107330 0.499980 -0.622112
O6    O     O_R   0.892670 0.439380 0.499980 -0.626711
O7    O     O_R   0.560620 0.892670 0.499980 -0.620522
O8    O     O_R   0.107330 0.560620 0.499980 -0.606501
O9    O     O_R   0.939380 0.500000 0.908420 -0.598326
O10   O     O_R   0.500000 0.060620 0.908420 -0.625773
O11   O     O_R   0.060620 0.500000 0.908420 -0.629844
O12   O     O_R   0.392670 0.060620 0.000020 -0.637474
O13   O     O_R   0.500000 0.939380 0.908420 -0.625642
O14   O     O_R   0.939380 0.500000 0.091580 -0.603445
O15   O     O_R   0.500000 0.939380 0.091580 -0.599080
O16   O     O_R   0.060620 0.500000 0.091580 -0.625103
O17   O     O_R   0.500000 0.060620 0.091580 -0.601653
O18   O     O_R   0.439380 0.000000 0.408420 -0.630122
O19   O     O_R   0.000000 0.560620 0.408420 -0.627081
O20   O     O_R   0.560620 0.000000 0.408420 -0.629596
O21   O     O_R   0.000000 0.439380 0.408420 -0.599620
O22   O     O_R   0.439380 0.000000 0.591580 -0.600176
O23   O     O_R   0.060620 0.607330 0.000020 -0.640232
O24   O     O_R   0.000000 0.439380 0.591580 -0.619655
O25   O     O_R   0.560620 0.000000 0.591580 -0.603665
O26   O     O_R   0.000000 0.560620 0.591580 -0.605560
O27   O     O_R   0.107300 0.999970 0.948290 -0.614878
O28   O     O_R   0.999970 0.892700 0.948290 -0.612632
O29   O     O_R   0.892700 0.000030 0.948290 -0.619878
O30   O     O_R   0.000030 0.107300 0.948290 -0.626034
O31   O     O_R   0.107300 0.000030 0.051710 -0.634467
O32   O     O_R   0.999970 0.107300 0.051710 -0.615280
O33   O     O_R   0.892700 0.999970 0.051710 -0.635225
O34   O     O_R   0.607330 0.939380 0.000020 -0.617294
O35   O     O_R   0.000030 0.892700 0.051710 -0.638376
O36   O     O_R   0.607300 0.499970 0.448290 -0.616400
O37   O     O_R   0.499970 0.392700 0.448290 -0.612738
O38   O     O_R   0.392700 0.500030 0.448290 -0.623258
O39   O     O_R   0.500030 0.607300 0.448290 -0.614451
O40   O     O_R   0.607300 0.500030 0.551710 -0.620230
O41   O     O_R   0.499970 0.607300 0.551710 -0.635615
O42   O     O_R   0.392700 0.499970 0.551710 -0.628652
O43   O     O_R   0.500030 0.392700 0.551710 -0.634397
O44   O     O_3   0.071189 0.632574 0.870810 -0.650102
O45   O     O_R   0.939380 0.607330 0.999980 -0.610214
O46   O     O_3   0.647232 0.991471 0.866308 -0.663384
O47   O     O_3   0.910314 0.374543 0.870286 -0.645948
O48   O     O_3   0.364104 0.072078 0.871387 -0.657128
O49   O     O_3   0.077297 0.369693 0.128922 -0.649173
O50   O     O_3   0.626010 0.084201 0.140096 -0.646877
O51   O     O_3   0.923119 0.631193 0.131665 -0.645479
O52   O     O_3   0.376880 0.906854 0.132934 -0.637882
O53   O     O_3   0.490581 0.148332 0.360302 -0.665172
O54   O     O_3   0.130558 0.421280 0.369501 -0.645473
O55   O     O_3   0.425411 0.864165 0.373763 -0.656881
O56   O     O_R   0.392670 0.939380 0.999980 -0.612508
O57   O     O_3   0.869644 0.576323 0.371164 -0.650784
O58   O     O_3   0.577370 0.870789 0.640810 -0.648649
O59   O     O_3   0.131796 0.575483 0.635597 -0.646178
O60   O     O_3   0.411483 0.126048 0.631009 -0.641813
O61   O     O_3   0.872452 0.416918 0.626137 -0.649721
O62   O     O_R   0.060620 0.392670 0.999980 -0.635938
O63   O     O_R   0.607330 0.060620 0.999980 -0.630744
O64   O     O_R   0.439380 0.892670 0.500020 -0.632402
Zn1   Zn    Zn3+2 0.919060 0.500000 0.000000 0.985565
Zn2   Zn    Zn3+2 0.000000 0.000000 0.069040 0.920860
Zn3   Zn    Zn3+2 0.500000 0.500000 0.430960 0.943514
Zn4   Zn    Zn3+2 0.500000 0.500000 0.569040 0.915476
Zn5   Zn    Zn3+2 0.500000 0.080940 0.000000 0.953970
Zn6   Zn    Zn3+2 0.080940 0.500000 0.000000 0.924403
Zn7   Zn    Zn3+2 0.500000 0.919060 0.000000 0.995427
Zn8   Zn    Zn3+2 0.419060 0.000000 0.500000 0.955945
Zn9   Zn    Zn3+2 0.000000 0.580940 0.500000 0.964823
Zn10  Zn    Zn3+2 0.580940 0.000000 0.500000 0.986906
Zn11  Zn    Zn3+2 0.000000 0.419060 0.500000 0.963987
Zn12  Zn    Zn3+2 0.000000 0.000000 0.930960 0.942159

loop_
_geom_bond_atom_site_label_1
_geom_bond_atom_site_label_2
_ccdc_geom_bond_type
C69   C116  A    
C82   C94   A    
C108  C120  A    
C16   H78   S    
C19   C20   S    
C12   H70   S    
C43   H14   S    
C25   H98   S    
C31   H112  S    
C79   O63   A    
C47   H21   S    
C106  O39   A    
C16   O50   S    
C144  H45   S    
C70   C87   A    
C143  C144  S    
C119  C130  A    
O31   Zn2   S    
C74   C92   A    
C28   H105  S    
C76   C94   A    
C83   H1    S    
C78   C96   A    
C62   O24   A    
C66   C122  A    
C99   O35   A    
C29   H109  S    
C38   H127  S    
O25   Zn10  S    
C75   O57   S    
C36   H124  S    
C84   H41   S    
C9    C10   S    
C49   O61   S    
C45   C47   S    
C67   C85   A    
O21   Zn11  S    
C29   H108  S    
C101  O6    A    
C8    H60   S    
C61   O25   A    
C50   C51   S    
C72   O53   S    
C72   C113  A    
C104  C140  S    
C90   O7    A    
O36   Zn3   S    
C42   H12   S    
C43   C44   S    
C37   C38   S    
C27   H103  S    
C102  O30   A    
C21   H90   S    
C115  C118  A    
C40   H6    S    
O18   Zn8   S    
C142  H38   S    
C44   H17   S    
C74   O55   S    
C75   C93   A    
C49   H27   S    
C86   H107  S    
C4    C5    S    
C105  O42   A    
C89   H13   S    
C6    C7    S    
C54   C132  S    
C64   C120  A    
O37   Zn3   S    
C143  H40   S    
C45   H19   S    
C7    H57   S    
C118  C129  A    
C81   C95   A    
C99   C136  S    
O1    Zn1   S    
C51   H32   S    
C100  C137  S    
C71   C88   A    
C60   O19   A    
C20   C21   S    
C61   O22   A    
C22   C23   S    
C56   O14   A    
C108  C126  A    
C70   O51   S    
C80   C97   A    
C112  O3    A    
O8    Zn9   S    
C2    C57   S    
C7    C8    S    
C22   O52   S    
C36   C37   S    
C3    H47   S    
C6    H55   S    
C52   C112  S    
C58   C129  S    
C7    H56   S    
C124  C132  A    
C29   O54   S    
C65   C124  A    
C10   H64   S    
C58   O17   A    
O6    Zn11  S    
C12   O49   S    
C114  C119  A    
C22   H93   S    
O62   Zn6   S    
C20   H87   S    
C37   H125  S    
C98   O27   A    
O38   Zn3   S    
C104  O37   A    
C41   H9    S    
C57   O56   A    
C46   C101  S    
C76   O58   S    
O7    Zn10  S    
O15   Zn7   S    
C32   H116  S    
C107  C125  A    
C31   H113  S    
C18   H83   S    
C39   C40   S    
C23   H94   S    
C95   H37   S    
C5    H53   S    
C98   C135  S    
C115  C128  A    
C48   H25   S    
O22   Zn8   S    
O33   Zn2   S    
C39   H4    S    
C64   O46   S    
C29   C30   S    
C17   H79   S    
C18   H81   S    
O42   Zn4   S    
C11   H68   S    
C9    O48   S    
C24   C79   S    
C60   O21   A    
O16   Zn6   S    
C17   C18   S    
C14   H72   S    
C93   H2    S    
C56   O16   A    
O35   Zn2   S    
C42   O59   S    
C110  C126  A    
C100  O33   A    
C8    H59   S    
C101  O2    A    
C121  C132  A    
O39   Zn3   S    
C3    C4    S    
C122  C131  A    
O63   Zn5   S    
C46   C139  T    
C54   O11   A    
C40   C41   S    
C49   H28   S    
C25   H97   S    
C24   C137  T    
C39   H5    S    
C2    C135  T    
C111  C117  A    
O26   Zn9   S    
C102  C133  S    
O64   Zn8   S    
C48   H23   S    
C74   C115  A    
C87   C93   A    
C88   H85   S    
C31   H114  S    
C28   H106  S    
C10   C11   S    
C49   C50   S    
C14   C15   S    
C5    H50   S    
C51   H33   S    
C15   H75   S    
C56   C130  S    
C106  O41   A    
C144  H43   S    
C120  C131  A    
C142  O44   S    
C4    H48   S    
C34   H121  S    
O40   Zn4   S    
C113  C128  A    
C26   C27   S    
C50   H29   S    
C9    H62   S    
C11   H66   S    
C30   C31   S    
C68   O23   A    
C33   H117  S    
C55   O13   A    
C28   H104  S    
C87   H74   S    
C100  O29   A    
C67   O49   S    
C21   H89   S    
C16   C17   S    
C80   C109  A    
C30   H110  S    
C61   C126  S    
C15   H73   S    
O28   Zn12  S    
C54   O9    A    
C142  H39   S    
O5    Zn8   S    
C76   C108  A    
O9    Zn1   S    
C16   H77   S    
C44   H18   S    
C12   H69   S    
C25   H99   S    
C4    H49   S    
C36   O57   S    
O43   Zn4   S    
C3    H46   S    
C59   O18   A    
C26   O53   S    
C123  O8    A    
C59   O20   A    
C65   C83   A    
O11   Zn6   S    
C23   H95   S    
C80   O61   S    
C51   H31   S    
C98   O31   A    
C67   C117  A    
C48   H26   S    
O19   Zn9   S    
C55   C131  S    
C133  C134  T    
C44   H16   S    
C36   H123  S    
C42   C43   S    
C107  C121  A    
O56   Zn7   S    
C39   O58   S    
C47   H22   S    
O2    Zn9   S    
C60   C127  S    
C86   C89   A    
C62   C125  S    
C33   H119  S    
C43   H15   S    
C34   H120  S    
C32   C33   S    
C85   H96   S    
C42   H11   S    
C79   O34   A    
C110  C122  A    
C114  C127  A    
C21   H91   S    
C52   C140  T    
C32   O55   S    
C53   C141  T    
O24   Zn11  S    
C19   H86   S    
C38   H3    S    
O13   Zn7   S    
C97   H35   S    
C35   C90   S    
C83   C97   A    
O12   Zn5   S    
O3    Zn10  S    
C104  O43   A    
C142  C143  S    
O45   Zn1   S    
C65   O47   S    
C66   O48   S    
C6    O47   S    
C20   H88   S    
C85   C91   A    
C41   H8    S    
C71   O52   S    
C68   O45   A    
C63   C81   A    
C77   O59   S    
C45   H20   S    
C35   C138  T    
C105  C141  S    
C57   O12   A    
C26   H100  S    
C106  C138  S    
O30   Zn12  S    
C103  O40   A    
C63   O44   S    
C84   C96   A    
C3    O46   S    
O29   Zn12  S    
O17   Zn5   S    
C112  O5    A    
C99   O28   A    
C18   H82   S    
C11   H67   S    
C116  C129  A    
C88   C92   A    
C78   O60   S    
C55   O10   A    
C1    O1    A    
C26   H101  S    
C5    H51   S    
C113  C116  A    
C73   O54   S    
C90   O64   A    
C82   H63   S    
C63   C121  A    
C73   C111  A    
C58   O15   A    
O4    Zn11  S    
C91   H24   S    
C77   C107  A    
C73   C91   A    
C53   C123  S    
C27   H102  S    
C6    H54   S    
C59   C128  S    
C102  O32   A    
C77   C95   A    
C40   H7    S    
C19   H84   S    
C103  C139  S    
C105  O38   A    
C10   H65   S    
C47   C48   S    
C70   C119  A    
C33   C34   S    
O41   Zn4   S    
C78   C110  A    
C75   C114  A    
C94   H36   S    
C117  C130  A    
C64   C82   A    
O34   Zn7   S    
C45   O60   S    
C22   H92   S    
C109  C125  A    
C69   O50   S    
C12   C14   S    
C103  O36   A    
C111  C127  A    
C62   O26   A    
C13   C136  T    
C37   H126  S    
C1    C134  S    
C123  O4    A    
C41   H10   S    
C144  H44   S    
O20   Zn10  S    
C71   C118  A    
C34   H122  S    
C32   H115  S    
C109  C124  A    
C19   O51   S    
O27   Zn12  S    
C50   H30   S    
O14   Zn1   S    
C8    H58   S    
C17   H80   S    
C9    H61   S    
C81   H52   S    
C1    O62   A    
C38   H128  S    
O10   Zn5   S    
C143  H42   S    
O32   Zn2   S    
C14   H71   S    
C23   C25   S    
C66   C84   A    
C27   C28   S    
C30   H111  S    
C72   C89   A    
O23   Zn6   S    
C96   H34   S    
C15   H76   S    
C13   C68   S    
C92   H118  S    
C69   C86   A    
