data_mof_unit_53179.cif
_audit_creation_date              2012-12-10T20:30:11-0500
_audit_creation_method            fapswitch 2.2
_symmetry_space_group_name_H-M    P1
_symmetry_Int_Tables_number       1
_space_group_crystal_system       triclinic
_cell_length_a                    9.865575
_cell_length_b                    10.681222
_cell_length_c                    12.998357
_cell_angle_alpha                 90.106115
_cell_angle_beta                  71.464555
_cell_angle_gamma                 89.792369
_cell_volume                      1298.65373665

loop_
_atom_site_label
_atom_site_type_symbol
_atom_type_description
_atom_site_fract_x
_atom_site_fract_y
_atom_site_fract_z
_atom_type_partial_charge
C1    C     C_R   0.501227 0.740111 0.496692 0.894102
C2    C     C_R   0.445206 0.389267 0.975414 0.103794
C3    C     C_R   0.485467 0.393061 0.861467 0.092231
C4    C     C_R   0.553470 0.406896 0.024146 0.074377
C5    C     C_R   0.698816 0.408470 0.958748 0.141519
C6    C     C_R   0.735480 0.374957 0.849745 -0.267909
C7    C     C_R   0.629067 0.365158 0.801545 -0.213008
C8    C     C_R   0.520265 0.436628 0.133591 -0.313536
C9    C     C_R   0.768804 0.487726 0.109894 0.186988
C10   C     C_R   0.381378 0.428581 0.812633 -0.128539
C11   C     C_R   0.386141 0.936785 0.478445 0.141603
C12   C     C_R   0.423675 0.479368 0.701643 0.874413
C13   C     C_R   0.508203 0.871491 0.479069 -0.112160
C14   C     C_R   0.638574 0.934712 0.458537 -0.228194
C15   C     C_R   0.638935 0.064223 0.458223 -0.226310
C16   C     C_R   0.508948 0.128663 0.478357 -0.096629
C17   C     C_R   0.386577 0.064548 0.477893 0.130406
C18   C     C_3   0.237404 0.073165 0.554611 -0.477342
C19   C     C_3   0.237219 0.931377 0.555710 -0.494303
C20   C     C_R   0.910620 0.599029 0.542521 0.215613
C21   C     C_R   0.949984 0.408463 0.448449 -0.153218
C22   C     C_R   0.094061 0.408612 0.448219 -0.139675
C23   C     C_R   0.501803 0.259971 0.496219 0.863858
C24   C     C_R   0.052569 0.598131 0.543801 0.219847
C25   C     C_3   0.008124 0.641208 0.659030 -0.521416
C26   C     C_3   0.855560 0.646045 0.656271 -0.501113
C27   C     C_R   0.578563 0.498388 0.295125 0.876738
C28   C     C_R   0.804561 0.448990 0.001529 -0.207240
C29   C     C_R   0.625326 0.476104 0.177619 -0.075148
C30   C     C_R   0.236214 0.418084 0.872806 -0.203341
C31   C     C_R   0.196084 0.383893 0.981644 -0.160469
C32   C     C_R   0.298470 0.375978 0.034465 -0.186945
H1    H     H_    0.738037 0.112762 0.450048 0.164026
H2    H     H_    0.231983 0.115564 0.634068 0.206120
H3    H     H_    0.162075 0.113779 0.515587 0.198806
H4    H     H_    0.232822 0.891644 0.635717 0.200688
H5    H     H_    0.161272 0.890054 0.517767 0.203454
H6    H     H_    0.912714 0.333354 0.408533 0.142236
H7    H     H_    0.165459 0.333722 0.407951 0.143700
H8    H     H_    0.025347 0.568496 0.714803 0.208370
H9    H     H_    0.050657 0.734898 0.668429 0.201627
H10   H     H_    0.783505 0.579107 0.712428 0.236344
H11   H     H_    0.846418 0.364934 0.800104 0.148794
H12   H     H_    0.812504 0.742906 0.660401 0.201924
H13   H     H_    0.913810 0.456189 0.948735 0.127777
H14   H     H_    0.410707 0.434492 0.185237 0.171568
H15   H     H_    0.154325 0.435499 0.835502 0.143766
H16   H     H_    0.260643 0.356601 0.120345 0.124964
H17   H     H_    0.084894 0.368732 0.026674 0.154926
H18   H     H_    0.661405 0.339095 0.716795 0.189318
H19   H     H_    0.737550 0.885303 0.450460 0.169354
N1    N     N_R   0.856940 0.500860 0.500710 -0.105508
N2    N     N_R   0.142580 0.500820 0.500710 -0.102842
O1    O     O_R   0.385310 0.683210 0.499990 -0.607403
O2    O     O_R   0.614650 0.683240 0.500000 -0.615995
O3    O     O_R   0.328390 0.499940 0.653610 -0.611670
O4    O     O_R   0.557730 0.499980 0.653620 -0.619087
O5    O     O_R   0.385350 0.316760 0.500000 -0.621756
O6    O     O_R   0.614690 0.316790 0.500010 -0.637558
O7    O     O_R   0.442270 0.500020 0.346380 -0.619022
O8    O     O_R   0.671610 0.500060 0.346390 -0.605693
Zn1   Zn    Zn3+2 0.346870 0.499980 0.499990 0.936242
Zn2   Zn    Zn3+2 0.653130 0.500020 0.500010 0.927344
C33   C     C_3   0.882765 0.545845 0.148985 -0.893753
H20   H     H_    0.842536 0.634586 0.192921 0.246664
H21   H     H_    0.914843 0.479906 0.203087 0.250292
H22   H     H_    0.979283 0.570031 0.080336 0.232991

loop_
_geom_bond_atom_site_label_1
_geom_bond_atom_site_label_2
_ccdc_geom_bond_type
O5    Zn1   S    
C23   O5    A    
C2    C4    A    
C1    O1    A    
C11   C17   A    
C6    C7    A    
C27   C29   S    
C5    C28   A    
C11   C13   A    
C18   H3    S    
C10   C30   A    
O6    Zn2   S    
C31   C32   A    
C9    C29   A    
C19   H4    S    
C6    H11   S    
C33   H20   S    
C17   C18   S    
C1    O2    A    
C26   H12   S    
C20   N1    A    
C3    C10   A    
C21   C22   A    
C24   C25   S    
C23   O6    A    
C32   H16   S    
C30   C31   A    
C11   C19   S    
C12   O3    A    
C10   C12   S    
C31   H17   S    
C8    C29   A    
C2    C32   A    
O4    Zn2   S    
C22   N2    A    
C2    C3    A    
C27   O7    A    
C18   H2    S    
C25   H8    S    
C5    C6    A    
C16   C17   A    
O3    Zn1   S    
C28   H13   S    
C1    C13   S    
C12   O4    A    
C15   C16   A    
C9    C33   S    
C33   H22   S    
C20   C24   A    
C30   H15   S    
C16   C23   S    
C26   H10   S    
O7    Zn1   S    
C18   C19   S    
N2    Zn1   S    
C25   H9    S    
C4    C8    A    
O8    Zn2   S    
C24   N2    A    
C14   C15   A    
O1    Zn1   S    
C33   H21   S    
C19   H5    S    
C3    C7    A    
C25   C26   S    
C13   C14   A    
C22   H7    S    
C9    C28   A    
C15   H1    S    
C21   N1    A    
C8    H14   S    
C21   H6    S    
C14   H19   S    
C7    H18   S    
O2    Zn2   S    
C4    C5    A    
C20   C26   S    
N1    Zn2   S    
C27   O8    A    
