data_mof_unit_9726.cif
_audit_creation_date              2012-10-26T17:13:08-0400
_audit_creation_method            fapswitch 2.2
_symmetry_space_group_name_H-M    P1
_symmetry_Int_Tables_number       1
_space_group_crystal_system       triclinic
_cell_length_a                    16.803476
_cell_length_b                    16.718557
_cell_length_c                    16.704933
_cell_angle_alpha                 67.879747
_cell_angle_beta                  68.267605
_cell_angle_gamma                 68.200889
_cell_volume                      3889.05639785

loop_
_atom_site_label
_atom_site_type_symbol
_atom_type_description
_atom_site_fract_x
_atom_site_fract_y
_atom_site_fract_z
_atom_type_partial_charge
C1    C     C_R   0.296626 0.032643 0.429586 -0.050922
C2    C     C_R   0.674141 0.047268 0.545736 0.007406
C3    C     C_R   0.946253 0.454643 0.324978 0.017352
C4    C     C_R   0.045873 0.545102 0.678342 0.027277
C5    C     C_R   0.450698 0.328044 0.947744 -0.046817
C6    C     C_R   0.547517 0.672641 0.055497 0.010049
C7    C     C_R   0.541032 0.065457 0.673557 0.008448
C8    C     C_R   0.422527 0.041499 0.296806 0.006752
C9    C     C_R   0.686833 0.579343 0.984567 -0.047216
C10   C     C_R   0.310561 0.419973 0.019489 0.002636
C11   C     C_R   0.998399 0.686411 0.570265 -0.055432
C12   C     C_R   0.951438 0.322109 0.454086 -0.059469
C13   C     C_R   0.427454 0.060856 0.432580 0.057004
C14   C     C_R   0.526770 0.067426 0.532426 0.059594
C15   C     C_R   0.971333 0.456786 0.459372 0.066027
C16   C     C_R   0.004102 0.546018 0.552304 0.080059
C17   C     C_R   0.450581 0.449145 0.997210 0.061366
C18   C     C_R   0.544507 0.551654 0.009738 0.067224
C19   C     C_R   0.021658 0.828993 0.567790 0.843255
C20   C     C_R   0.969216 0.171992 0.436075 0.787257
C21   C     C_R   0.829915 0.569140 0.017263 0.822778
C22   C     C_R   0.169546 0.430435 0.984106 0.873797
C23   C     C_R   0.563458 0.031610 0.827689 0.819636
C24   C     C_R   0.430632 0.986975 0.168441 0.878275
C25   C     C_R   0.436307 0.172286 0.969225 0.800689
C26   C     C_R   0.563429 0.827788 0.031572 0.856295
C27   C     C_R   0.968353 0.436432 0.172309 0.848893
C28   C     C_R   0.032380 0.562808 0.827990 0.821280
C29   C     C_R   0.169038 0.984028 0.431636 0.843290
C30   C     C_R   0.827897 0.026485 0.565123 0.816997
C31   C     C_R   0.383183 0.042814 0.386917 0.001529
C32   C     C_R   0.580766 0.061021 0.583938 -0.020563
C33   C     C_R   0.958264 0.410600 0.411882 -0.003211
C34   C     C_R   0.017662 0.592212 0.599604 0.006934
C35   C     C_R   0.404077 0.398946 0.988497 -0.007551
C36   C     C_R   0.592823 0.600529 0.017343 -0.003939
C37   C     C_R   0.259866 0.996119 0.390692 -0.188211
C38   C     C_R   0.728207 0.042766 0.598376 -0.191693
C39   C     C_R   0.946894 0.403489 0.272752 -0.172475
C40   C     C_R   0.050923 0.595141 0.728441 -0.157754
C41   C     C_R   0.401675 0.272161 0.952062 -0.179567
C42   C     C_R   0.597652 0.727832 0.050198 -0.160746
C43   C     C_R   0.595707 0.054428 0.726993 -0.168931
C44   C     C_R   0.388064 0.000286 0.259718 -0.180556
C45   C     C_R   0.734091 0.611519 0.017322 -0.196741
C46   C     C_R   0.264651 0.387667 0.985548 -0.172664
C47   C     C_R   0.025442 0.732122 0.608290 -0.204755
C48   C     C_R   0.948720 0.271743 0.403179 -0.198462
C49   C     C_R   0.446680 0.087429 0.704587 0.189918
C50   C     C_R   0.491448 0.085558 0.247879 0.169120
C51   C     C_R   0.951752 0.731564 0.503877 0.239498
C52   C     C_R   0.940514 0.289607 0.548315 0.203503
C53   C     C_R   0.727286 0.532299 0.917716 0.198251
C54   C     C_R   0.267803 0.469577 0.083698 0.163398
C55   C     C_R   0.250560 0.061670 0.508896 0.221725
C56   C     C_R   0.707218 0.043223 0.454679 0.199665
C57   C     C_R   0.539950 0.323797 0.895079 0.195983
C58   C     C_R   0.456941 0.683066 0.104141 0.156382
C59   C     C_R   0.923158 0.549641 0.297752 0.177962
C60   C     C_R   0.068500 0.450101 0.704020 0.181112
C61   C     C_R   0.311837 0.969800 0.312293 0.301230
C62   C     C_R   0.684749 0.057604 0.684375 0.293056
C63   C     C_R   0.937595 0.315778 0.316022 0.303659
C64   C     C_R   0.056657 0.683559 0.685379 0.304146
C65   C     C_R   0.312647 0.312618 0.951180 0.321259
C66   C     C_R   0.686626 0.686974 0.051235 0.314143
C67   C     C_R   0.649097 0.081241 0.399324 -0.121035
C68   C     C_R   0.300387 0.056221 0.563405 -0.061304
C69   C     C_R   0.037610 0.405685 0.668087 -0.088726
C70   C     C_R   0.943166 0.596317 0.340558 -0.079572
C71   C     C_R   0.408509 0.626087 0.107212 -0.096647
C72   C     C_R   0.581658 0.386788 0.889387 -0.037872
C73   C     C_R   0.543986 0.092916 0.294212 -0.098755
C74   C     C_R   0.397545 0.070852 0.662030 -0.118554
C75   C     C_R   0.315446 0.515331 0.100231 -0.082034
C76   C     C_R   0.676961 0.490151 0.901022 -0.041480
C77   C     C_R   0.975991 0.324569 0.588519 -0.083248
C78   C     C_R   0.959486 0.687291 0.443583 -0.076573
C79   C     C_R   0.679601 0.107377 0.305115 0.343421
C80   C     C_R   0.263443 0.049940 0.655619 0.339217
C81   C     C_R   0.029381 0.316694 0.710282 0.323339
C82   C     C_R   0.938189 0.689320 0.306125 0.324674
C83   C     C_R   0.319224 0.627336 0.160733 0.343514
C84   C     C_R   0.660595 0.401028 0.822658 0.370965
C85   C     C_R   0.626704 0.116174 0.251993 0.316895
C86   C     C_R   0.310443 0.059635 0.704462 0.309808
C87   C     C_R   0.276593 0.567958 0.162239 0.340553
C88   C     C_R   0.709669 0.449240 0.829729 0.349545
C89   C     C_R   0.995170 0.278171 0.672594 0.360725
C90   C     C_R   0.944276 0.734553 0.358623 0.363518
C91   C     C_R   0.511402 0.076546 0.388624 -0.032423
C92   C     C_R   0.437840 0.065134 0.573149 -0.031562
C93   C     C_R   0.988335 0.410840 0.544426 -0.011618
C94   C     C_R   0.979159 0.593571 0.471413 -0.017640
C95   C     C_R   0.405787 0.510049 0.050398 -0.030791
C96   C     C_R   0.588057 0.492814 0.954727 -0.044969
C97   C     C_R   0.561742 0.076802 0.439729 -0.033547
C98   C     C_R   0.388957 0.059502 0.523585 -0.041408
C99   C     C_R   0.452692 0.562836 0.055781 -0.026844
C100  C     C_R   0.540745 0.441452 0.948690 -0.045402
C101  C     C_R   0.011050 0.453798 0.587901 0.014371
C102  C     C_R   0.967310 0.548386 0.422219 0.012635
Cu1   Cu    Cu3+1 0.995180 0.995180 0.424630 1.189751
Cu2   Cu    Cu3+1 0.004820 0.004820 0.575370 1.165554
Cu3   Cu    Cu3+1 0.995180 0.424630 0.995180 1.135897
Cu4   Cu    Cu3+1 0.004820 0.575370 0.004820 1.121903
Cu5   Cu    Cu3+1 0.424630 0.995180 0.995180 1.120960
Cu6   Cu    Cu3+1 0.575370 0.004820 0.004820 1.107995
O1    O     O_R   0.124540 0.978640 0.385460 -0.509365
O2    O     O_R   0.875460 0.021360 0.614540 -0.511392
O3    O     O_R   0.978640 0.385460 0.124540 -0.514235
O4    O     O_R   0.021360 0.614540 0.875460 -0.523378
O5    O     O_R   0.385460 0.124540 0.978640 -0.521934
O6    O     O_R   0.614540 0.875460 0.021360 -0.515690
O7    O     O_R   0.614540 0.021360 0.875460 -0.527312
O8    O     O_R   0.385460 0.978640 0.124540 -0.526887
O9    O     O_R   0.875460 0.614540 0.021360 -0.525989
O10   O     O_R   0.124540 0.385460 0.978640 -0.527630
O11   O     O_R   0.021360 0.875460 0.614540 -0.518055
O12   O     O_R   0.978640 0.124540 0.385460 -0.518808
O13   O     O_R   0.013780 0.867370 0.487190 -0.530155
O14   O     O_R   0.986220 0.132630 0.512810 -0.588183
O15   O     O_R   0.867370 0.487190 0.013780 -0.582819
O16   O     O_R   0.132630 0.512810 0.986220 -0.570453
O17   O     O_R   0.487190 0.013780 0.867370 -0.582462
O18   O     O_R   0.512810 0.986220 0.132630 -0.581939
O19   O     O_R   0.512810 0.132630 0.986220 -0.623810
O20   O     O_R   0.487190 0.867370 0.013780 -0.578381
O21   O     O_R   0.986220 0.512810 0.132630 -0.599888
O22   O     O_R   0.013780 0.487190 0.867370 -0.612154
O23   O     O_R   0.132630 0.986220 0.512810 -0.587535
O24   O     O_R   0.867370 0.013780 0.487190 -0.563589
Cl1   Cl    Cl    0.286240 0.890108 0.285893 -0.512934
Cl2   Cl    Cl    0.735336 0.097561 0.732918 -0.515413
Cl3   Cl    Cl    0.896653 0.266983 0.266865 -0.454876
Cl4   Cl    Cl    0.111110 0.728186 0.724893 -0.484477
Cl5   Cl    Cl    0.268201 0.274300 0.895570 -0.574770
Cl6   Cl    Cl    0.731529 0.726416 0.105489 -0.536794
Cl7   Cl    Cl    0.263934 0.041948 0.821570 -0.442499
Cl8   Cl    Cl    0.672213 0.150619 0.134499 -0.520354
Cl9   Cl    Cl    0.947024 0.847921 0.311641 -0.437860
Cl10  Cl    Cl    0.981237 0.169073 0.730775 -0.390344
Cl11  Cl    Cl    0.807214 0.462725 0.741492 -0.577596
Cl12  Cl    Cl    0.177713 0.557545 0.250219 -0.587171
Cl13  Cl    Cl    0.167321 0.010991 0.714354 -0.402671
Cl14  Cl    Cl    0.780766 0.138510 0.253225 -0.407401
Cl15  Cl    Cl    0.688708 0.377203 0.719175 -0.527951
Cl16  Cl    Cl    0.253976 0.702086 0.228248 -0.458558
Cl17  Cl    Cl    0.936074 0.749551 0.193909 -0.451799
Cl18  Cl    Cl    0.047662 0.255548 0.817296 -0.439249
N1    N     N_3   0.403538 0.151734 0.755866 -0.543118
H1    H     H_    0.363767 0.125576 0.818091 0.320875
H2    H     H_    0.363059 0.207935 0.720839 0.251389
N2    N     N_3   0.491513 0.139622 0.158153 -0.570191
H3    H     H_    0.551428 0.115563 0.114958 0.309808
H4    H     H_    0.484504 0.205904 0.153571 0.240188
N3    N     N_3   0.877843 0.809050 0.513966 -0.504212
H5    H     H_    0.821162 0.792807 0.519727 0.209834
H6    H     H_    0.864545 0.820635 0.575538 0.190590
N4    N     N_3   0.877440 0.237763 0.603949 -0.432295
H7    H     H_    0.830980 0.249999 0.570014 0.236268
H8    H     H_    0.839798 0.261968 0.659582 0.311803
N5    N     N_3   0.813443 0.538261 0.858248 -0.518430
H9    H     H_    0.829894 0.594257 0.854391 0.193626
H10   H     H_    0.860912 0.478597 0.877083 0.288686
N6    N     N_3   0.178851 0.466072 0.134947 -0.579710
H11   H     H_    0.136656 0.530950 0.130126 0.301390
H12   H     H_    0.178001 0.427916 0.201046 0.255630
N7    N     N_3   0.167216 0.130151 0.512335 -0.566479
H13   H     H_    0.149523 0.151181 0.452367 0.201365
H14   H     H_    0.116999 0.106721 0.565525 0.309223
N8    N     N_3   0.779191 0.968667 0.432949 -0.514892
H15   H     H_    0.825396 0.991071 0.374063 0.319916
H16   H     H_    0.754602 0.926097 0.421353 0.226000
N9    N     N_3   0.586465 0.261907 0.841379 -0.470470
H17   H     H_    0.623307 0.203175 0.877400 0.289102
H18   H     H_    0.543706 0.249146 0.818302 0.235162
N10   N     N_3   0.420987 0.744164 0.158086 -0.533382
H19   H     H_    0.406429 0.709312 0.226077 0.291341
H20   H     H_    0.366723 0.794640 0.138656 0.316143
N11   N     N_3   0.855500 0.594747 0.250240 -0.530131
H21   H     H_    0.880055 0.633037 0.186109 0.320700
H22   H     H_    0.802450 0.636669 0.285670 0.259147
N12   N     N_3   0.141040 0.402621 0.744884 -0.530815
H23   H     H_    0.188069 0.357566 0.709228 0.248038
H24   H     H_    0.119299 0.367267 0.811313 0.320993

loop_
_geom_bond_atom_site_label_1
_geom_bond_atom_site_label_2
_ccdc_geom_bond_type
C68   C80   A    
Cu4   O21   S    
C83   C87   A    
C64   Cl4   S    
C9    C45   A    
N3    H5    S    
C18   C96   A    
N7    H13   S    
C6    C58   A    
C11   C47   A    
N5    H9    S    
C79   C85   A    
C12   C48   A    
N10   H19   S    
C75   C95   A    
N9    H18   S    
Cu4   O4    S    
N11   H21   S    
C78   C90   A    
C77   C89   A    
C30   O2    A    
Cu6   O7    S    
C29   O1    A    
N5    H10   S    
C78   C94   A    
Cu5   O20   S    
C19   C47   S    
C58   C71   A    
Cu2   O14   S    
C3    C33   A    
C95   C99   A    
C74   C92   A    
C89   Cl10  S    
C96   C100  A    
C1    C31   A    
C23   C43   S    
N12   H23   S    
Cu3   O15   S    
C2    C32   A    
Cu6   O6    S    
C13   C98   A    
C59   N11   S    
Cu5   O5    S    
C21   O9    A    
Cu1   Cu2   S    
C16   C34   A    
C57   N9    S    
C71   C83   A    
Cu6   O19   S    
Cu1   O12   S    
C27   C39   S    
Cu2   O23   S    
C10   C46   A    
C9    C36   A    
C80   C86   A    
Cu5   Cu6   S    
C5    C41   A    
C10   C35   A    
C17   C95   A    
C7    C43   A    
C87   Cl12  S    
Cu1   O24   S    
C76   C88   A    
C88   Cl11  S    
C20   O14   A    
C1    C37   A    
C23   O17   A    
Cu2   O11   S    
C81   C89   A    
Cu3   O3    S    
C19   O11   A    
N3    H6    S    
C13   C91   A    
N6    H12   S    
N7    H14   S    
C54   N6    S    
C10   C54   A    
C12   C52   A    
N8    H16   S    
C55   C68   A    
C79   Cl14  S    
C21   C45   S    
N11   H22   S    
C4    C34   A    
C49   N1    S    
C61   Cl1   S    
C90   Cl9   S    
C4    C40   A    
C67   C79   A    
C73   C91   A    
C46   C65   A    
C50   C73   A    
C25   C41   S    
C47   C64   A    
C3    C39   A    
C53   N5    S    
C48   C63   A    
C41   C65   A    
C71   C99   A    
C51   N3    S    
C91   C97   A    
C54   C75   A    
C29   C37   S    
N4    H8    S    
C21   O15   A    
Cu5   O17   S    
C8    C44   A    
C26   O6    A    
C25   O5    A    
C2    C38   A    
N10   H20   S    
N9    H17   S    
C66   Cl6   S    
N1    H1    S    
C73   C85   A    
C4    C60   A    
C58   N10   S    
C26   O20   A    
C74   C86   A    
C85   Cl8   S    
C7    C49   A    
N2    H3    S    
C72   C84   A    
C86   Cl7   S    
C69   C81   A    
C75   C87   A    
C80   Cl13  S    
C22   C46   S    
C14   C92   A    
C24   O8    A    
Cu4   O9    S    
N6    H11   S    
C24   C44   S    
Cu3   O10   S    
C53   C76   A    
C9    C53   A    
C18   C99   A    
C93   C101  A    
C52   C77   A    
Cu1   O13   S    
C8    C50   A    
C20   O12   A    
N8    H15   S    
C26   C42   S    
C14   C97   A    
C72   C100  A    
C84   Cl15  S    
C24   O18   A    
C22   O10   A    
C19   O13   A    
C7    C32   A    
C20   C48   S    
C8    C31   A    
N2    H4    S    
C13   C31   A    
C11   C34   A    
C15   C102  A    
C84   C88   A    
C14   C32   A    
C15   C33   A    
C40   C64   A    
C15   C93   A    
C37   C61   A    
C70   C102  A    
C22   O16   A    
Cu3   O22   S    
C69   C101  A    
C44   C61   A    
C56   C67   A    
C39   C63   A    
Cu3   Cu4   S    
C16   C94   A    
C82   C90   A    
C5    C57   A    
Cu1   O1    S    
N4    H7    S    
C62   Cl2   S    
C6    C36   A    
C1    C55   A    
C51   C78   A    
C65   Cl5   S    
C60   N12   S    
C2    C56   A    
C76   C96   A    
Cu2   O2    S    
C29   O23   A    
C60   C69   A    
C50   N2    S    
C27   O21   A    
C5    C35   A    
C77   C93   A    
C23   O7    A    
N12   H24   S    
C28   O22   A    
N1    H2    S    
C57   C72   A    
C25   O19   A    
C70   C82   A    
C17   C100  A    
C68   C98   A    
Cu5   O8    S    
C82   Cl17  S    
C11   C51   A    
C67   C97   A    
C59   C70   A    
C27   O3    A    
C83   Cl16  S    
C30   O24   A    
C16   C101  A    
C94   C102  A    
C92   C98   A    
C6    C42   A    
Cu4   O16   S    
C45   C66   A    
C42   C66   A    
C28   C40   S    
C49   C74   A    
C55   N7    S    
C17   C35   A    
C30   C38   S    
Cu6   O18   S    
C12   C33   A    
C18   C36   A    
C52   N4    S    
C28   O4    A    
C56   N8    S    
C81   Cl18  S    
C43   C62   A    
C63   Cl3   S    
C38   C62   A    
C3    C59   A    
