data_mof_unit_29737.cif
_audit_creation_date              2012-12-11T17:07:23-0500
_audit_creation_method            fapswitch 2.2
_symmetry_space_group_name_H-M    P1
_symmetry_Int_Tables_number       1
_space_group_crystal_system       triclinic
_cell_length_a                    6.964443
_cell_length_b                    14.465844
_cell_length_c                    16.222079
_cell_angle_alpha                 90.128958
_cell_angle_beta                  90.048122
_cell_angle_gamma                 89.970448
_cell_volume                      1634.31349612

loop_
_atom_site_label
_atom_site_type_symbol
_atom_type_description
_atom_site_fract_x
_atom_site_fract_y
_atom_site_fract_z
_atom_type_partial_charge
O1    O     O_R   0.505720 0.583900 0.413310 -0.549214
O2    O     O_R   0.175940 0.594920 0.586080 -0.513237
O3    O     O_R   0.005640 0.416100 0.586690 -0.508638
C1    C     C_R   0.345042 0.616568 0.615256 0.713790
O4    O     O_R   0.176000 0.594930 0.413930 -0.558123
O5    O     O_R   0.005700 0.416110 0.413310 -0.530706
C2    C     C_R   0.344638 0.617313 0.385418 0.669454
O6    O     O_R   0.505660 0.583890 0.586690 -0.547105
O7    O     O_3   0.339200 0.441330 0.500000 -0.344691
V1    V     V_3+5 0.064350 0.510880 0.500000 1.489884
O8    O     O_R   0.675980 0.405080 0.413920 -0.541669
C3    C     C_R   0.844603 0.386138 0.382732 0.680030
O9    O     O_R   0.675920 0.405070 0.586070 -0.546360
C4    C     C_R   0.844627 0.381094 0.613625 0.744442
V2    V     V_3+5 0.564340 0.489120 0.500000 1.460745
O10   O     O_3   0.839360 0.558670 0.500000 -0.381429
H1    H     H_    0.277792 0.105355 0.546357 0.151143
C5    C     C_R   0.617678 0.401310 0.763316 -0.120447
C6    C     C_R   0.517918 0.417874 0.836170 -0.150115
C7    C     C_R   0.543017 0.360160 0.903208 -0.122371
C8    C     C_R   0.664795 0.284382 0.897135 -0.130178
C9    C     C_R   0.761851 0.263181 0.822500 0.065932
C10   C     C_R   0.743210 0.324361 0.754329 0.094384
C11   C     C_R   0.879595 0.183795 0.816429 -0.179017
C12   C     C_R   0.982413 0.165598 0.742840 0.082673
C13   C     C_R   0.968805 0.226817 0.673764 -0.016488
C14   C     C_R   0.851762 0.309073 0.680514 -0.201301
C15   C     C_R   0.096281 0.084444 0.736431 -0.142175
C16   C     C_R   0.207647 0.066604 0.668019 -0.172695
C17   C     C_R   0.197074 0.124329 0.600980 -0.088706
C18   C     C_R   0.072139 0.200453 0.600696 -0.002891
H2    H     H_    0.423798 0.477252 0.841081 0.121780
H3    H     H_    0.468989 0.374515 0.960494 0.111051
H4    H     H_    0.101222 0.032217 0.783556 0.122085
H5    H     H_    0.296794 0.005267 0.665672 0.131035
C19   C     C_R   0.721784 0.249018 0.188012 0.101747
C20   C     C_R   0.881458 0.191185 0.178113 -0.106710
C21   C     C_R   0.038629 0.207376 0.230349 -0.183991
H6    H     H_    0.164891 0.164742 0.225210 0.144190
C22   C     C_R   0.028831 0.273778 0.293771 -0.160710
H7    H     H_    0.152161 0.283506 0.332243 0.190423
C23   C     C_R   0.858286 0.322614 0.310428 -0.108446
C24   C     C_R   0.709943 0.312434 0.252906 0.095197
C25   C     C_3   0.503300 0.292956 0.266150 -0.418186
C26   C     C_3   0.515696 0.224323 0.195224 -0.407835
H8    H     H_    0.412594 0.354190 0.252114 0.165779
H9    H     H_    0.477444 0.259591 0.326815 0.200582
H10   H     H_    0.432148 0.245771 0.140046 0.170842
H11   H     H_    0.495735 0.151250 0.214579 0.176667
C27   C     C_R   0.506712 0.682110 0.742922 0.002748
C28   C     C_R   0.354079 0.682382 0.685874 -0.088400
C29   C     C_R   0.203430 0.745583 0.700419 -0.113374
H12   H     H_    0.082156 0.748220 0.658908 0.131969
C30   C     C_R   0.212789 0.809952 0.765748 -0.199149
H13   H     H_    0.097213 0.859165 0.773121 0.123154
C31   C     C_R   0.375424 0.814785 0.817354 -0.093257
C32   C     C_R   0.518303 0.748720 0.805116 0.081524
C33   C     C_3   0.728160 0.762355 0.794355 -0.465959
C34   C     C_3   0.719190 0.686522 0.729277 -0.151469
H14   H     H_    0.810082 0.744811 0.851133 0.166998
H15   H     H_    0.757617 0.709501 0.666037 0.153284
C35   C     C_R   0.503184 0.751616 0.312624 0.147091
C36   C     C_R   0.351965 0.688070 0.318980 -0.140119
C37   C     C_R   0.202201 0.696228 0.260797 -0.186459
H16   H     H_    0.080760 0.649853 0.263497 0.118804
C38   C     C_R   0.214039 0.759865 0.194952 -0.173696
C39   C     C_R   0.376805 0.816797 0.184712 -0.118605
C40   C     C_R   0.515801 0.813634 0.247084 0.104838
C41   C     C_3   0.728663 0.804339 0.241994 -0.421768
C42   C     C_3   0.715359 0.737193 0.314360 -0.197782
H17   H     H_    0.803310 0.870524 0.255916 0.193173
H18   H     H_    0.773548 0.770393 0.183628 0.151575
H19   H     H_    0.756185 0.665038 0.298492 0.090557
O11   O     O_R   0.229140 0.916090 0.913340 -0.545169
O12   O     O_R   0.558860 0.905090 0.086080 -0.540137
O13   O     O_R   0.729100 0.083920 0.086690 -0.539161
C43   C     C_R   0.389886 0.882859 0.114710 0.699030
O14   O     O_R   0.558860 0.905090 0.913930 -0.537729
O15   O     O_R   0.729100 0.083920 0.913310 -0.537012
C44   C     C_R   0.389683 0.884206 0.884441 0.695743
O16   O     O_R   0.229140 0.916080 0.086720 -0.538721
O17   O     O_3   0.395570 0.058660 0.000020 -0.368958
V3    V     V_3+5 0.670450 0.989140 0.000000 1.402823
O18   O     O_R   0.058810 0.094980 0.913910 -0.540467
C45   C     C_R   0.889811 0.117244 0.886079 0.687510
O19   O     O_R   0.058810 0.094980 0.086060 -0.543553
C46   C     C_R   0.889810 0.118189 0.113768 0.692187
V4    V     V_3+5 0.170450 0.010950 0.999970 1.401971
O20   O     O_3   0.895460 0.941370 0.999990 -0.371923
H20   H     H_    0.761193 0.831442 0.768070 0.168704
C47   C     C_2   0.818973 0.600408 0.757938 0.358335
H21   H     H_    0.792366 0.573571 0.819332 0.057102
O21   O     O_2   0.931959 0.560398 0.713125 -0.532154
H22   H     H_    0.594719 0.451556 0.715673 0.137921
H23   H     H_    0.100369 0.761120 0.149509 0.126565
C48   C     C_2   0.807075 0.772460 0.392478 0.413576
H24   H     H_    0.920799 0.732799 0.421190 0.061236
O22   O     O_2   0.757620 0.845767 0.423442 -0.533644
H25   H     H_    0.683117 0.243733 0.952380 0.111349
C49   C     C_2   0.041986 0.241319 0.519386 0.391335
H26   H     H_    0.898408 0.257967 0.498618 0.004066
O23   O     O_2   0.179095 0.254133 0.474184 -0.546922

loop_
_geom_bond_atom_site_label_1
_geom_bond_atom_site_label_2
_ccdc_geom_bond_type
C21   C22   A    
C42   C48   S    
C6    C7    A    
C39   C43   S    
C1    O6    A    
C29   H12   S    
C12   C15   A    
C13   C14   A    
C35   C36   A    
C27   C34   S    
C15   C16   A    
C20   C21   A    
O5    C3    A    
C17   C18   A    
C8    H25   S    
O19   V4    S    
C33   H14   S    
V2    O10   S    
C31   C32   A    
C35   C42   S    
C5    C6    A    
C41   H17   S    
C3    C23   S    
O8    V2    S    
O14   V3    S    
C25   H8    S    
C40   C41   S    
C48   O22   D    
O1    V2    S    
C26   H11   S    
C4    C14   S    
C11   C45   S    
C25   H9    S    
V4    O20   S    
C22   C23   A    
C38   C39   A    
C15   H4    S    
C13   C18   A    
O11   C44   A    
O9    C4    A    
H1    C17   S    
C6    H2    S    
O13   V3    S    
C29   C30   A    
V3    O20   S    
C30   C31   A    
C34   H15   S    
C1    C28   S    
C39   C40   A    
C11   C12   A    
C47   H21   S    
O4    C2    A    
O19   C46   A    
C33   C34   S    
C5    C10   A    
C37   C38   A    
C41   H18   S    
O2    C1    A    
C24   C25   S    
C16   C17   A    
C47   O21   D    
O12   C43   A    
C43   O16   A    
C48   H24   S    
C42   H19   S    
C49   O23   D    
C27   C28   A    
C19   C26   S    
C34   C47   S    
C18   C49   S    
O18   C45   A    
C33   H20   S    
O13   C46   A    
C2    C36   S    
O3    C4    A    
C7    H3    S    
C22   H7    S    
O6    V2    S    
C10   C14   A    
O9    V2    S    
C5    H22   S    
C9    C11   A    
C23   C24   A    
O2    V1    S    
O15   C45   A    
C25   C26   S    
O7    V1    S    
C26   H10   S    
C30   H13   S    
C19   C20   A    
O1    C2    A    
C27   C32   A    
C20   C46   S    
O18   V4    S    
O5    V1    S    
O8    C3    A    
C16   H5    S    
C31   C44   S    
C35   C40   A    
C37   H16   S    
C12   C13   A    
C28   C29   A    
O3    V1    S    
V1    O10   S    
O15   V3    S    
O12   V3    S    
C32   C33   S    
C21   H6    S    
O17   V4    S    
C49   H26   S    
O14   C44   A    
O7    V2    S    
C41   C42   S    
O16   V4    S    
C36   C37   A    
O4    V1    S    
C7    C8    A    
O17   V3    S    
C9    C10   A    
C19   C24   A    
O11   V4    S    
C8    C9    A    
C38   H23   S    
