data_mof_unit_65629.cif
_audit_creation_date              2013-03-05T15:56:26-0500
_audit_creation_method            fapswitch 2.2
_symmetry_space_group_name_H-M    P1
_symmetry_Int_Tables_number       1
_space_group_crystal_system       triclinic
_cell_length_a                    18.722433
_cell_length_b                    18.768802
_cell_length_c                    18.833021
_cell_angle_alpha                 109.389538
_cell_angle_beta                  109.867008
_cell_angle_gamma                 109.194995
_cell_volume                      5091.92353324

loop_
_atom_site_label
_atom_site_type_symbol
_atom_site_description
_atom_site_fract_x
_atom_site_fract_y
_atom_site_fract_z
_atom_type_partial_charge
O1    O     O_R   0.590610 0.537990 0.448230 -0.553958
O2    O     O_R   0.589770 0.642360 0.551790 -0.562134
C1    C     C_R   0.619555 0.618932 0.500799 0.859062
O3    O     O_R   0.409550 0.447810 0.357350 -0.583341
O4    O     O_R   0.408710 0.552190 0.460910 -0.595055
C2    C     C_R   0.380933 0.500063 0.380578 0.805068
Cu1   Cu    Cu3+1 0.500500 0.438200 0.438680 1.021470
Cu2   Cu    Cu3+1 0.499500 0.561800 0.561320 1.042886
O5    O     O_R   0.410230 0.357640 0.448210 -0.583392
O6    O     O_R   0.409390 0.462010 0.551770 -0.584259
O7    O     O_R   0.591290 0.447810 0.539090 -0.580586
O8    O     O_R   0.590450 0.552190 0.642650 -0.526718
C3    C     C_R   0.381195 0.381224 0.499954 0.791613
C4    C     C_R   0.619744 0.499946 0.619823 0.843854
C5    C     C_3   0.314226 0.583768 0.315830 -0.256100
C6    C     C_3   0.214932 0.540022 0.287355 -0.266064
H1    H     H_    0.182526 0.571021 0.315448 0.161258
H2    H     H_    0.365762 0.651605 0.367753 0.159764
C7    C     C_3   0.191629 0.500663 0.190807 -0.033006
C8    C     C_3   0.289113 0.543137 0.219283 0.186883
C9    C     C_3   0.291295 0.460756 0.216115 -0.208651
C10   C     C_3   0.193755 0.419474 0.189621 0.164587
C11   C     C_3   0.217092 0.457834 0.284714 0.203789
C12   C     C_3   0.314155 0.500315 0.312548 -0.063672
H3    H     H_    0.322708 0.428952 0.187148 0.181140
C13   C     C_R   0.763599 0.755397 0.581196 0.295425
C14   C     C_R   0.826543 0.818863 0.579234 -0.233539
H4    H     H_    0.885850 0.871482 0.639522 0.189697
C15   C     C_R   0.813907 0.815167 0.500429 -0.085582
C16   C     C_R   0.737634 0.748271 0.422236 -0.151549
H5    H     H_    0.728371 0.746377 0.361477 0.159320
C17   C     C_R   0.673884 0.683092 0.421917 0.126384
C18   C     C_R   0.687155 0.686224 0.501580 -0.153728
C19   C     C_R   0.677608 0.496000 0.757395 0.123690
C20   C     C_R   0.742385 0.495169 0.821364 -0.191932
H6    H     H_    0.735680 0.492111 0.875383 0.153336
C21   C     C_R   0.816452 0.499544 0.816679 -0.070073
C22   C     C_R   0.825904 0.502991 0.747307 -0.196010
H7    H     H_    0.883252 0.505373 0.743962 0.150921
C23   C     C_R   0.760995 0.501560 0.681342 0.149647
C24   C     C_R   0.687237 0.499625 0.687311 -0.023677
C25   C     C_R   0.241846 0.321103 0.497677 -0.175671
H8    H     H_    0.235374 0.375681 0.495228 0.145070
C26   C     C_R   0.176752 0.256880 0.496946 0.149610
C27   C     C_R   0.186659 0.186540 0.500801 0.000801
C28   C     C_R   0.261431 0.181122 0.505078 0.157710
C29   C     C_R   0.324386 0.245037 0.503392 -0.206216
H9    H     H_    0.381717 0.241375 0.505907 0.142098
C30   C     C_R   0.314655 0.314618 0.500120 -0.062404
O9    O     O_R   0.951000 0.537980 0.093230 -0.586386
O10   O     O_R   0.055400 0.642330 0.093210 -0.588428
C31   C     C_R   0.003114 0.618868 0.121795 0.816449
O11   O     O_R   0.042570 0.447790 0.094640 -0.579452
O12   O     O_R   0.146970 0.552140 0.094620 -0.559537
C32   C     C_R   0.123443 0.499974 0.122933 0.837315
Cu3   Cu    Cu3+1 0.942090 0.438180 0.003770 0.997762
Cu4   Cu    Cu3+1 0.065710 0.561750 0.003750 1.037538
O13   O     O_R   0.952400 0.357600 0.914310 -0.588261
O14   O     O_R   0.056800 0.461950 0.914290 -0.546462
O15   O     O_R   0.860830 0.447790 0.912900 -0.591015
O16   O     O_R   0.965230 0.552140 0.912880 -0.581212
C33   C     C_R   0.005662 0.381089 0.886709 0.868126
C34   C     C_R   0.884010 0.499934 0.884097 0.792766
O17   O     O_R   0.053290 0.909730 0.462990 -0.564142
O18   O     O_R   0.948100 0.909770 0.357840 -0.555489
C35   C     C_R   0.000964 0.881300 0.381827 0.910363
O19   O     O_R   0.962410 0.909720 0.552480 -0.562960
O20   O     O_R   0.857220 0.909750 0.447330 -0.603865
C36   C     C_R   0.880989 0.881426 0.500109 0.839358
Cu5   Cu    Cu3+1 0.062280 0.999890 0.562170 1.091995
Cu6   Cu    Cu3+1 0.937720 0.999930 0.437650 1.059613
O21   O     O_R   0.051900 0.090060 0.641980 -0.562325
O22   O     O_R   0.946710 0.090090 0.536830 -0.568651
O23   O     O_R   0.142780 0.090070 0.552500 -0.551808
O24   O     O_R   0.037590 0.090110 0.447350 -0.547785
C37   C     C_R   0.000198 0.119655 0.618070 0.847404
C38   C     C_R   0.119102 0.119050 0.500260 0.873942
C39   C     C_R   0.012603 0.761666 0.185407 -0.215921
H10   H     H_    0.021290 0.770566 0.134330 0.196062
C40   C     C_R   0.011695 0.826403 0.248085 0.293682
C41   C     C_R   0.000927 0.814142 0.314885 -0.262608
C42   C     C_R   0.989715 0.736532 0.316794 0.304171
C43   C     C_R   0.990986 0.673173 0.253122 -0.226180
H11   H     H_    0.982203 0.613470 0.253936 0.189700
C44   C     C_R   0.002521 0.685721 0.187981 -0.141114
C45   C     C_R   0.085973 0.322907 0.825409 0.246499
C46   C     C_R   0.083956 0.259762 0.757574 0.207249
C47   C     C_R   0.002455 0.188371 0.685813 -0.187948
C48   C     C_R   0.923478 0.179850 0.682075 0.145086
C49   C     C_R   0.926445 0.243033 0.749932 -0.252098
H12   H     H_    0.865925 0.237407 0.747177 0.166564
C50   C     C_R   0.006579 0.314207 0.820630 -0.208252
N1    N     N_3   0.594779 0.614685 0.341428 -0.544549
H13   H     H_    0.543113 0.623703 0.343420 0.190209
H14   H     H_    0.597227 0.619726 0.288551 0.230068
N2    N     N_3   0.601098 0.491050 0.761953 -0.540538
H15   H     H_    0.606204 0.492789 0.819618 0.235364
H16   H     H_    0.547624 0.430403 0.710737 0.202942
N3    N     N_3   0.769673 0.502231 0.608508 -0.548577
H17   H     H_    0.782382 0.563074 0.614577 0.258958
H18   H     H_    0.823736 0.496064 0.610495 0.225195
N4    N     N_3   0.101388 0.263414 0.493697 -0.545559
H19   H     H_    0.101773 0.316021 0.485636 0.223536
H20   H     H_    0.106126 0.276813 0.554100 0.244804
N5    N     N_3   0.272635 0.110403 0.510213 -0.549354
H21   H     H_    0.226649 0.053908 0.449921 0.247221
H22   H     H_    0.334306 0.120224 0.520043 0.218323
N6    N     N_R   0.022920 0.903996 0.243248 0.138142
O25   O     O_R   0.072800 0.980243 0.313270 -0.399934
O26   O     O_R   0.992803 0.899652 0.167756 -0.318019
N7    N     N_R   0.973729 0.719550 0.380578 0.137692
O27   O     O_R   0.918404 0.736036 0.399859 -0.372487
O28   O     O_R   0.003717 0.675344 0.409280 -0.341400
N8    N     N_R   0.168456 0.395262 0.898984 0.163092
O29   O     O_R   0.226722 0.443106 0.887358 -0.279671
O30   O     O_R   0.186262 0.412432 0.977790 -0.363101
N9    N     N_R   0.164687 0.267668 0.762366 0.164246
O31   O     O_R   0.225106 0.277249 0.830759 -0.279115
O32   O     O_R   0.178768 0.267061 0.699182 -0.383791
N10   N     N_3   0.840767 0.105789 0.610419 -0.545434
H23   H     H_    0.837226 0.051016 0.615411 0.209394
H24   H     H_    0.788875 0.111988 0.615280 0.222067
N11   N     N_3   0.328557 0.590231 0.182734 -0.492731
H25   H     H_    0.394916 0.608758 0.212809 0.210898
H26   H     H_    0.325474 0.647660 0.201785 0.224533
N12   N     N_3   0.126484 0.330351 0.121665 -0.544835
H27   H     H_    0.146729 0.289258 0.137270 0.242963
H28   H     H_    0.125824 0.322271 0.063762 0.245924
N13   N     N_3   0.178556 0.409106 0.320569 -0.578614
H29   H     H_    0.112071 0.390122 0.291126 0.243286
H30   H     H_    0.206493 0.452358 0.386756 0.214721
N14   N     N_R   0.779164 0.762052 0.664082 0.136233
O33   O     O_R   0.823780 0.838251 0.734026 -0.326809
O34   O     O_R   0.758711 0.693124 0.672238 -0.382797

loop_
_geom_bond_atom_site_label_1
_geom_bond_atom_site_label_2
_geom_bond_distance
_ccdc_geom_bond_type
O13   C33   1.293963 A    
C5    H2    1.110178 S    
C22   C23   1.396846 A    
C46   C47   1.414839 A    
N1    H13   1.045869 S    
C14   C15   1.394864 A    
C20   H6    1.083922 S    
O21   C37   1.292931 A    
C23   N3    1.438621 S    
N8    O29   1.301188 A    
N11   H25   1.045050 S    
C29   C30   1.394539 A    
C27   C28   1.413866 A    
Cu3   Cu4   2.684619 S    
Cu1   O7    1.971051 S    
O20   Cu6   1.970719 S    
N5    H22   1.045720 S    
C13   C14   1.394558 A    
N12   H27   1.044955 S    
O15   C34   1.293688 A    
O4    C2    1.290108 A    
C31   C44   1.452002 S    
C20   C21   1.396632 A    
C21   C22   1.395745 A    
C19   N2    1.438489 S    
C46   N9    1.437244 S    
N9    O32   1.300680 A    
C22   H7    1.084008 S    
O7    C4    1.293020 A    
C39   C40   1.394591 A    
C10   N12   1.455992 S    
C6    H1    1.110157 S    
C1    C18   1.456408 S    
C5    C6    1.563346 S    
C28   N5    1.438617 S    
N6    O25   1.300082 A    
C11   N13   1.456102 S    
C19   C20   1.397986 A    
O16   C34   1.293674 A    
O5    C3    1.293426 A    
C8    N11   1.456258 S    
C28   C29   1.396531 A    
C7    C8    1.532441 S    
N6    O26   1.301489 A    
O20   C36   1.293992 A    
O23   C38   1.295269 A    
C33   C50   1.454723 S    
Cu5   O23   1.970600 S    
O9    C31   1.293500 A    
C11   C12   1.528137 S    
Cu5   Cu6   2.687603 S    
O10   Cu4   1.970858 S    
O17   Cu5   1.970050 S    
C16   C17   1.396869 A    
C37   C47   1.458703 S    
C17   N1    1.439164 S    
N1    H14   1.045690 S    
C9    C10   1.542026 S    
C19   C24   1.411566 A    
C25   C26   1.396426 A    
O3    Cu1   1.972523 S    
C21   C34   1.451958 S    
N10   H24   1.045707 S    
C41   C42   1.416343 A    
C15   C36   1.451571 S    
O11   C32   1.290657 A    
C5    C8    1.539878 S    
O19   C36   1.294830 A    
O10   C31   1.293888 A    
Cu1   Cu2   2.686425 S    
C7    C10   1.530370 S    
O3    C2    1.288486 A    
Cu6   O22   1.970046 S    
C26   N4    1.438666 S    
C45   C46   1.403773 A    
N14   O33   1.301533 A    
O18   Cu6   1.971412 S    
O9    Cu3   1.970555 S    
Cu3   O15   1.972728 S    
N2    H16   1.045777 S    
O1    C1    1.295033 A    
O17   C35   1.295307 A    
C15   C16   1.395811 A    
C13   C18   1.417472 A    
C49   C50   1.397010 A    
C29   H9    1.084086 S    
C48   N10   1.438754 S    
Cu2   O8    1.972523 S    
C2    C12   1.457333 S    
N2    H15   1.045695 S    
N7    O28   1.301396 A    
C8    C9    1.542042 S    
N4    H20   1.044980 S    
O24   C38   1.295736 A    
C4    C24   1.459704 S    
C3    C30   1.447740 S    
C39   C44   1.394605 A    
N14   O34   1.300020 A    
C23   C24   1.412866 A    
N3    H18   1.045712 S    
O8    C4    1.296570 A    
C42   C43   1.394211 A    
C6    C11   1.541136 S    
O22   C37   1.296600 A    
C43   H11   1.083919 S    
Cu4   O14   1.970553 S    
C25   H8    1.084127 S    
C13   N14   1.440362 S    
N10   H23   1.045780 S    
N13   H29   1.044943 S    
O11   Cu3   1.970795 S    
C7    C32   1.460445 S    
Cu1   O5    1.969961 S    
C9    H3    1.110182 S    
O12   C32   1.288268 A    
C5    C12   1.546436 S    
O14   C33   1.293389 A    
N12   H28   1.045039 S    
N7    O27   1.300899 A    
C43   C44   1.394855 A    
O1    Cu1   1.969466 S    
O2    Cu2   1.969959 S    
C26   C27   1.413542 A    
C40   C41   1.417876 A    
O6    C3    1.292707 A    
O4    Cu2   1.971052 S    
N8    O30   1.301228 A    
Cu4   O16   1.970795 S    
N5    H21   1.044373 S    
C40   N6    1.439859 S    
N3    H17   1.043972 S    
C45   N8    1.437419 S    
O19   Cu5   1.968713 S    
C17   C18   1.412283 A    
O2    C1    1.292806 A    
C45   C50   1.408544 A    
N9    O31   1.301202 A    
C42   N7    1.438745 S    
C35   C41   1.456685 S    
Cu6   O24   1.968714 S    
C39   H10   1.083908 S    
C49   H12   1.084162 S    
C16   H5    1.083872 S    
C6    C7    1.548944 S    
Cu3   O13   1.970856 S    
N4    H19   1.045742 S    
N11   H26   1.045022 S    
C25   C30   1.394747 A    
C47   C48   1.408272 A    
Cu2   O6    1.969469 S    
O18   C35   1.293577 A    
C9    C12   1.549246 S    
C14   H4    1.083945 S    
C10   C11   1.523719 S    
Cu5   O21   1.971531 S    
C27   C38   1.460687 S    
C48   C49   1.394535 A    
N13   H30   1.045060 S    
O12   Cu4   1.972730 S    
