data_mof_unit_33394.cif
_audit_creation_date              2012-12-11T14:56:08-0500
_audit_creation_method            fapswitch 2.2
_symmetry_space_group_name_H-M    P1
_symmetry_Int_Tables_number       1
_space_group_crystal_system       triclinic
_cell_length_a                    28.04108
_cell_length_b                    17.178
_cell_length_c                    18.20859
_cell_angle_alpha                 89.84414
_cell_angle_beta                  137.292403
_cell_angle_gamma                 90.065169
_cell_volume                      5948.89150799

loop_
_atom_site_label
_atom_site_type_symbol
_atom_type_description
_atom_site_fract_x
_atom_site_fract_y
_atom_site_fract_z
_atom_type_partial_charge
C1    C     C_R   0.685597 0.895311 0.798049 -0.210406
C2    C     C_R   0.313488 0.103523 0.202393 -0.217972
C3    C     C_R   0.313786 0.898826 0.201686 -0.276221
C4    C     C_R   0.676984 0.087599 0.813806 -0.237552
C5    C     C_R   0.170594 0.414006 0.815062 -0.177817
C6    C     C_R   0.815530 0.600295 0.195798 -0.212835
C7    C     C_R   0.814549 0.399143 0.199662 -0.281432
C8    C     C_R   0.177377 0.591269 0.813005 -0.241853
C9    C     C_3   0.706449 0.304586 0.993429 -0.591981
C10   C     C_3   0.270591 0.670683 0.032785 -0.564184
C11   C     C_3   0.220830 0.342794 0.033042 -0.623035
C12   C     C_3   0.768558 0.671162 0.996279 -0.516358
C13   C     C_3   0.204707 0.807001 0.993627 -0.587496
C14   C     C_3   0.776281 0.172668 0.030901 -0.564446
C15   C     C_3   0.733905 0.819483 0.992507 -0.614498
C16   C     C_3   0.240135 0.196792 0.000150 -0.525203
C17   C     C_R   0.616915 0.846088 0.367242 0.122884
C18   C     C_R   0.383298 0.147569 0.635655 0.132355
C19   C     C_R   0.286843 0.753664 0.384606 0.170698
C20   C     C_R   0.630809 0.170296 0.391150 0.125474
C21   C     C_R   0.213447 0.254267 0.615263 0.111038
C22   C     C_R   0.788163 0.742524 0.393625 0.112631
C23   C     C_R   0.781908 0.255538 0.364952 0.165114
C24   C     C_R   0.115437 0.646709 0.361798 0.116364
C25   C     C_R   0.390510 0.248667 0.735846 -0.254124
C26   C     C_R   0.610198 0.745528 0.267404 -0.212306
C27   C     C_R   0.617251 0.266239 0.279051 -0.221840
C28   C     C_R   0.264930 0.623461 0.405993 -0.257295
C29   C     C_R   0.763859 0.873251 0.408500 -0.224440
C30   C     C_R   0.234965 0.124143 0.593694 -0.222188
C31   C     C_R   0.109409 0.748576 0.262898 -0.224332
C32   C     C_R   0.760790 0.129035 0.394850 -0.258951
C33   C     C_R   0.418852 0.211278 0.707246 -0.152947
C34   C     C_R   0.582535 0.781127 0.297931 -0.182952
C35   C     C_R   0.596510 0.236072 0.322759 -0.161230
C36   C     C_R   0.308603 0.675938 0.419619 -0.103510
C37   C     C_R   0.809194 0.820469 0.427373 -0.200427
C38   C     C_R   0.191598 0.176609 0.580537 -0.195296
C39   C     C_R   0.080591 0.711125 0.290905 -0.149248
C40   C     C_R   0.801821 0.177226 0.397564 -0.092379
C41   C     C_R   0.330045 0.110729 0.615325 -0.278504
C42   C     C_R   0.667641 0.885348 0.383513 -0.266458
C43   C     C_R   0.677992 0.128284 0.401091 -0.268466
C44   C     C_R   0.216261 0.773287 0.316556 -0.288917
C45   C     C_R   0.717479 0.722524 0.323016 -0.286620
C46   C     C_R   0.283823 0.273917 0.682267 -0.296334
C47   C     C_R   0.169055 0.609945 0.382882 -0.271306
C48   C     C_R   0.712909 0.277883 0.302446 -0.304451
C49   C     C_R   0.299226 0.149898 0.638827 0.189642
C50   C     C_R   0.699188 0.846933 0.361105 0.190664
C51   C     C_R   0.701817 0.160552 0.362652 0.190840
C52   C     C_R   0.173541 0.722409 0.307553 0.172962
C53   C     C_R   0.673481 0.773232 0.310485 0.174650
C54   C     C_R   0.326373 0.222842 0.691370 0.199080
C55   C     C_R   0.200471 0.649322 0.360242 0.191175
C56   C     C_R   0.674426 0.232911 0.307764 0.177481
C57   C     C_R   0.358627 0.071071 0.489384 -0.112162
C58   C     C_R   0.646271 0.919561 0.519101 -0.118957
C59   C     C_R   0.652901 0.087947 0.532081 -0.113574
C60   C     C_R   0.326488 0.894679 0.406869 -0.140120
C61   C     C_R   0.827454 0.602707 0.412544 -0.105287
C62   C     C_R   0.173660 0.395016 0.593295 -0.135709
C63   C     C_R   0.140787 0.570890 0.509629 -0.105559
C64   C     C_R   0.825493 0.396022 0.403305 -0.111657
C65   C     C_R   0.409581 0.802941 0.498503 -0.072363
C66   C     C_R   0.564241 0.174073 0.434448 -0.171995
C67   C     C_R   0.558360 0.833257 0.423807 -0.176234
C68   C     C_R   0.438826 0.166606 0.573714 -0.194912
C69   C     C_R   0.906293 0.302453 0.488302 -0.023544
C70   C     C_R   0.058515 0.664563 0.422071 -0.156502
C71   C     C_R   0.091249 0.303112 0.503658 -0.168033
C72   C     C_R   0.910405 0.695056 0.504542 -0.112434
C73   C     C_R   0.598055 0.184669 0.725236 0.591673
C74   C     C_R   0.395711 0.804294 0.291915 0.585652
C75   C     C_R   0.395775 0.195543 0.292423 0.608650
C76   C     C_R   0.601773 0.805065 0.707910 0.585953
C77   C     C_R   0.093745 0.683064 0.724017 0.641006
C78   C     C_R   0.897785 0.305989 0.288402 0.599769
C79   C     C_R   0.897250 0.693516 0.287226 0.596048
C80   C     C_R   0.086485 0.323532 0.723868 0.567664
C81   C     C_R   0.671399 0.818667 0.799405 -0.033725
C82   C     C_R   0.325714 0.180932 0.201941 -0.015770
C83   C     C_R   0.325480 0.821963 0.201144 0.086821
C84   C     C_R   0.659142 0.157222 0.824805 0.072187
C85   C     C_R   0.145022 0.350644 0.825097 -0.008032
C86   C     C_R   0.829693 0.675682 0.190884 -0.022194
C87   C     C_R   0.827929 0.323198 0.197733 0.077304
C88   C     C_R   0.156261 0.658054 0.824112 0.047639
C89   C     C_R   0.393305 0.128370 0.569139 0.063321
C90   C     C_R   0.607899 0.865618 0.434536 0.059110
C91   C     C_R   0.618350 0.146562 0.453154 0.056434
C92   C     C_R   0.339158 0.815423 0.431704 0.020154
C93   C     C_R   0.840512 0.681314 0.440431 0.039912
C94   C     C_R   0.161302 0.315884 0.569157 0.064062
C95   C     C_R   0.104900 0.627149 0.427843 0.045588
C96   C     C_R   0.835876 0.316072 0.419302 -0.001579
C97   C     C_3   0.682019 0.220066 0.979191 0.558604
C98   C     C_3   0.298364 0.753371 0.049056 0.547547
C99   C     C_3   0.291047 0.307711 0.084473 0.617967
C100  C     C_3   0.693091 0.702981 0.921513 0.568721
C101  C     C_3   0.176402 0.724223 0.976264 0.569759
C102  C     C_3   0.800634 0.256971 0.045061 0.542643
C103  C     C_3   0.809069 0.787531 0.066137 0.600847
C104  C     C_3   0.170085 0.231611 0.948311 0.600999
C105  C     C_3   0.248055 0.695849 0.085260 0.554666
C106  C     C_3   0.727593 0.282596 0.937852 0.614898
C107  C     C_3   0.787216 0.744221 0.972081 0.570497
C108  C     C_3   0.206375 0.264647 0.057784 0.542729
C109  C     C_3   0.755518 0.194123 0.086786 0.572885
C110  C     C_3   0.226977 0.781296 0.940683 0.616940
C111  C     C_3   0.255716 0.273156 0.977100 0.546161
C112  C     C_3   0.715216 0.745964 0.016528 0.538510
C113  C     C_3   0.277463 0.777105 0.103805 -0.202208
C114  C     C_3   0.702454 0.199389 0.923129 -0.139993
C115  C     C_3   0.712593 0.774977 0.897364 -0.190951
C116  C     C_3   0.276201 0.231379 0.109438 -0.180135
C117  C     C_3   0.780911 0.277299 0.102257 -0.194222
C118  C     C_3   0.198376 0.699832 0.923288 -0.134919
C119  C     C_3   0.185590 0.307720 0.923997 -0.196573
C120  C     C_3   0.789875 0.715637 0.090740 -0.174265
H1    H     H_    0.736284 0.923539 0.855357 0.130898
H2    H     H_    0.263055 0.074578 0.147532 0.152902
H3    H     H_    0.264102 0.929397 0.146871 0.142095
H4    H     H_    0.724917 0.054529 0.874404 0.133034
H5    H     H_    0.220605 0.441752 0.879787 0.131640
H6    H     H_    0.766085 0.569595 0.135837 0.148566
H7    H     H_    0.764390 0.428697 0.144577 0.140404
H8    H     H_    0.228624 0.564549 0.873123 0.136047
H9    H     H_    0.783365 0.930460 0.444847 0.121938
H10   H     H_    0.214569 0.067197 0.556553 0.129227
H11   H     H_    0.086430 0.802917 0.218239 0.134007
H12   H     H_    0.780830 0.072242 0.432859 0.122225
H13   H     H_    0.413840 0.302695 0.780793 0.130121
H14   H     H_    0.588251 0.690593 0.224537 0.131282
H15   H     H_    0.594587 0.320717 0.234640 0.129311
H16   H     H_    0.285194 0.566385 0.443203 0.126779
H17   H     H_    0.319303 0.031079 0.464679 0.097312
H18   H     H_    0.694897 0.945678 0.557543 0.088681
H19   H     H_    0.703732 0.064197 0.576648 0.086447
H20   H     H_    0.275461 0.921805 0.343919 0.096552
H21   H     H_    0.776690 0.574970 0.351318 0.087651
H22   H     H_    0.224581 0.422299 0.655754 0.094306
H23   H     H_    0.180643 0.531430 0.535160 0.095655
H24   H     H_    0.775438 0.425357 0.342076 0.090647
H25   H     H_    0.435055 0.747455 0.519919 0.169185
H26   H     H_    0.527296 0.219361 0.379709 0.167197
H27   H     H_    0.519898 0.790387 0.366732 0.113196
H28   H     H_    0.470227 0.216201 0.622132 0.166963
H29   H     H_    0.928960 0.246767 0.501202 0.146974
H30   H     H_    0.023047 0.710589 0.367563 0.170930
H31   H     H_    0.067227 0.247656 0.486131 0.110092
H32   H     H_    0.935365 0.750874 0.528843 0.139360
H33   H     H_    0.678497 0.357690 0.980472 0.177392
H34   H     H_    0.297620 0.615737 0.048215 0.171727
H35   H     H_    0.211740 0.402210 0.044618 0.185903
H36   H     H_    0.782667 0.610055 0.998864 0.182556
H37   H     H_    0.178236 0.861965 0.979738 0.179537
H38   H     H_    0.804067 0.119466 0.043596 0.172481
H39   H     H_    0.719029 0.880230 0.989577 0.187243
H40   H     H_    0.247173 0.136679 0.987008 0.181207
H41   H     H_    0.690852 0.938599 0.429897 0.111503
H42   H     H_    0.305355 0.058356 0.567001 0.119861
H43   H     H_    0.197178 0.831392 0.283476 0.116143
H44   H     H_    0.702249 0.075597 0.449138 0.110359
H45   H     H_    0.302895 0.332015 0.714877 0.124863
H46   H     H_    0.699033 0.664291 0.290764 0.124379
H47   H     H_    0.694539 0.335949 0.268728 0.117983
H48   H     H_    0.193428 0.557252 0.430951 0.118333
H49   H     H_    0.539264 0.752546 0.276306 0.133568
H50   H     H_    0.464349 0.237263 0.733065 0.156559
H51   H     H_    0.361230 0.656740 0.466330 0.117145
H52   H     H_    0.557153 0.268076 0.308386 0.137053
H53   H     H_    0.139096 0.157381 0.534323 0.111454
H54   H     H_    0.862066 0.840031 0.476364 0.121956
H55   H     H_    0.852547 0.155571 0.437833 0.120088
H56   H     H_    0.035310 0.737627 0.265255 0.151041
N1    N     N_R   0.625380 0.928280 0.709340 -0.067376
N2    N     N_R   0.374620 0.071720 0.290660 -0.069611
N3    N     N_R   0.374620 0.928280 0.290660 -0.065008
N4    N     N_R   0.625380 0.071720 0.709340 -0.066737
N5    N     N_R   0.125380 0.428280 0.709340 -0.069249
N6    N     N_R   0.874620 0.571720 0.290660 -0.068501
N7    N     N_R   0.874620 0.428280 0.290660 -0.064892
N8    N     N_R   0.125380 0.571720 0.709340 -0.067596
N9    N     N_R   0.386100 0.070250 0.452470 -0.040068
N10   N     N_R   0.613900 0.929750 0.547530 -0.041635
N11   N     N_R   0.613900 0.070250 0.547530 -0.036351
N12   N     N_R   0.386100 0.929750 0.452470 -0.042106
N13   N     N_R   0.886100 0.570250 0.452470 -0.041433
N14   N     N_R   0.113900 0.429750 0.547530 -0.039450
N15   N     N_R   0.113900 0.570250 0.547530 -0.039538
N16   N     N_R   0.886100 0.429750 0.452470 -0.044241
N17   N     N_R   0.437800 0.869550 0.507970 -0.045021
N18   N     N_R   0.562200 0.130450 0.492030 -0.051891
N19   N     N_R   0.562200 0.869550 0.492030 -0.046149
N20   N     N_R   0.437800 0.130450 0.507970 -0.056682
N21   N     N_R   0.937800 0.369550 0.507970 -0.050818
N22   N     N_R   0.062200 0.630450 0.492030 -0.052245
N23   N     N_R   0.062200 0.369550 0.492030 -0.045647
N24   N     N_R   0.937800 0.630450 0.507970 -0.054605
N25   N     N_R   0.573690 0.128980 0.653840 -0.119338
N26   N     N_R   0.426310 0.871020 0.346160 -0.099910
N27   N     N_R   0.426310 0.128980 0.346160 -0.110597
N28   N     N_R   0.573690 0.871020 0.653840 -0.101626
N29   N     N_R   0.073690 0.628980 0.653840 -0.123474
N30   N     N_R   0.926310 0.371020 0.346160 -0.105858
N31   N     N_R   0.926310 0.628980 0.346160 -0.108695
N32   N     N_R   0.073690 0.371020 0.653840 -0.111060
Ni1   Ni    Ni4+2 0.616560 0.000000 0.627280 0.204383
Ni2   Ni    Ni4+2 0.383440 0.000000 0.372720 0.200251
Ni3   Ni    Ni4+2 0.116560 0.500000 0.627280 0.201865
Ni4   Ni    Ni4+2 0.883440 0.500000 0.372720 0.191520
Ni5   Ni    Ni4+2 0.497990 0.870580 0.500000 0.266763
Ni6   Ni    Ni4+2 0.502010 0.129420 0.500000 0.215494
Ni7   Ni    Ni4+2 0.997990 0.370580 0.500000 0.232307
Ni8   Ni    Ni4+2 0.002010 0.629420 0.500000 0.219956
O1    O     O_3   0.577608 0.262028 0.702165 -0.637050
C121  C     C_3   0.569047 0.288069 0.619645 -0.209504
H57   H     H_    0.525630 0.256921 0.543161 0.165331
H58   H     H_    0.618424 0.281062 0.643347 0.173951
H59   H     H_    0.555751 0.350927 0.605432 0.155708
O2    O     O_3   0.417740 0.734858 0.348160 -0.616776
C122  C     C_3   0.429126 0.676957 0.307603 -0.239940
H60   H     H_    0.384560 0.635732 0.256553 0.196646
H61   H     H_    0.476413 0.643121 0.377142 0.139242
H62   H     H_    0.438838 0.699151 0.262343 0.153530
O3    O     O_3   0.428432 0.267053 0.336752 -0.614900
C123  C     C_3   0.398005 0.309481 0.360478 -0.242035
H63   H     H_    0.433017 0.358977 0.413514 0.160738
H64   H     H_    0.392083 0.273777 0.404446 0.110634
H65   H     H_    0.347167 0.335217 0.286307 0.166187
O4    O     O_3   0.567923 0.734391 0.662491 -0.627421
C124  C     C_3   0.598858 0.691141 0.640271 -0.162018
H66   H     H_    0.649895 0.666138 0.715739 0.144884
H67   H     H_    0.605504 0.726224 0.596783 0.108256
H68   H     H_    0.563675 0.641738 0.587102 0.161788
O5    O     O_3   0.067075 0.757776 0.698650 -0.619019
C125  C     C_3   0.063646 0.790709 0.623647 -0.259395
H69   H     H_    0.024903 0.760263 0.544649 0.160048
H70   H     H_    0.115865 0.790228 0.655190 0.186430
H71   H     H_    0.046466 0.852207 0.609034 0.158333
O6    O     O_3   0.921549 0.233628 0.337428 -0.636158
C126  C     C_3   0.945948 0.191600 0.303788 -0.206756
H72   H     H_    0.902673 0.158185 0.229892 0.188097
H73   H     H_    0.984866 0.147987 0.367171 0.130684
H74   H     H_    0.972482 0.228612 0.291753 0.150416
O7    O     O_3   0.929182 0.765885 0.327335 -0.617727
C127  C     C_3   0.888967 0.817580 0.324915 -0.219220
H75   H     H_    0.923226 0.866351 0.381088 0.154518
H76   H     H_    0.868287 0.789781 0.351769 0.090014
H77   H     H_    0.844850 0.842932 0.243364 0.171007
O8    O     O_3   0.048313 0.257763 0.697174 -0.619618
C128  C     C_3   0.062723 0.200149 0.660678 -0.236651
H78   H     H_    0.117687 0.179125 0.727751 0.141586
H79   H     H_    0.051319 0.220748 0.591202 0.126226
H80   H     H_    0.028078 0.149502 0.632281 0.173040
O9    O     O_3   0.260184 0.657605 0.166481 -0.595750
C129  C     C_3   0.236622 0.580161 0.135009 -0.239763
H81   H     H_    0.270071 0.546237 0.134598 0.121169
H82   H     H_    0.180479 0.576806 0.054684 0.167177
H83   H     H_    0.241194 0.552788 0.195226 0.169338
O10   O     O_3   0.714806 0.322367 0.856666 -0.608392
C130  C     C_3   0.695184 0.400021 0.848591 -0.206293
H84   H     H_    0.642592 0.402504 0.815616 0.181659
H85   H     H_    0.691404 0.431570 0.791234 0.152882
H86   H     H_    0.734833 0.430620 0.927728 0.113681
O11   O     O_3   0.829536 0.746432 0.956298 -0.602314
C131  C     C_3   0.796996 0.704736 0.862458 -0.235116
H87   H     H_    0.751300 0.737589 0.788756 0.133106
H88   H     H_    0.781318 0.645103 0.862139 0.126413
H89   H     H_    0.835239 0.698257 0.860172 0.172526
O12   O     O_3   0.175880 0.254788 0.093403 -0.620657
C132  C     C_3   0.217256 0.290684 0.194246 -0.240810
H90   H     H_    0.229831 0.352153 0.194393 0.123765
H91   H     H_    0.265373 0.255890 0.259170 0.141291
H92   H     H_    0.186932 0.291698 0.211942 0.172749
O13   O     O_3   0.772222 0.153820 0.171003 -0.590098
C133  C     C_3   0.753120 0.075073 0.141987 -0.223954
H93   H     H_    0.787366 0.045257 0.140086 0.123222
H94   H     H_    0.696798 0.068485 0.062970 0.160734
H95   H     H_    0.760809 0.045644 0.204403 0.163569
O14   O     O_3   0.217179 0.819141 0.861373 -0.612180
C134  C     C_3   0.198480 0.897586 0.851382 -0.263556
H96   H     H_    0.145329 0.902005 0.816300 0.182695
H97   H     H_    0.196444 0.927286 0.794959 0.160148
H98   H     H_    0.237881 0.928559 0.930256 0.125838
O15   O     O_3   0.288477 0.281833 0.944894 -0.613528
C135  C     C_3   0.255072 0.235847 0.853710 -0.208629
H99   H     H_    0.204651 0.262666 0.779505 0.130358
H100  H     H_    0.247563 0.174611 0.863250 0.121307
H101  H     H_    0.289335 0.233960 0.843305 0.180360
O16   O     O_3   0.674246 0.743352 0.034877 -0.634607
C136  C     C_3   0.703619 0.790982 0.122694 -0.219296
H102  H     H_    0.715660 0.850600 0.116080 0.121093
H103  H     H_    0.750769 0.762741 0.199697 0.145707
H104  H     H_    0.664771 0.797221 0.123753 0.177981
O17   O     O_3   0.617563 0.195287 0.936643 -0.620420
C137  C     C_3   0.608350 0.230134 0.995476 -0.221133
H105  H     H_    0.600634 0.294031 0.981270 0.132549
H106  H     H_    0.652983 0.217247 0.083597 0.175165
H107  H     H_    0.560146 0.205856 0.966448 0.170501
O18   O     O_3   0.364583 0.764339 0.090176 -0.634205
C138  C     C_3   0.373989 0.842447 0.079249 -0.245537
H108  H     H_    0.354946 0.884792 0.099183 0.122370
H109  H     H_    0.348260 0.853133 0.996362 0.198261
H110  H     H_    0.431065 0.853078 0.136499 0.162034
O19   O     O_3   0.357307 0.344695 0.157781 -0.566187
C139  C     C_3   0.352561 0.416995 0.116051 -0.181583
H111  H     H_    0.311642 0.455140 0.094038 0.093641
H112  H     H_    0.343153 0.409125 0.045764 0.168548
H113  H     H_    0.403569 0.447543 0.179770 0.152875
O20   O     O_3   0.635698 0.652350 0.844423 -0.618943
C140  C     C_3   0.578253 0.671858 0.824607 -0.045734
H114  H     H_    0.568788 0.735811 0.816318 0.132842
H115  H     H_    0.585771 0.647088 0.888946 0.144513
H116  H     H_    0.530204 0.644897 0.747003 0.138351
O21   O     O_3   0.110169 0.703871 0.930413 -0.609266
C141  C     C_3   0.100524 0.741672 0.987318 -0.183520
H117  H     H_    0.095616 0.805652 0.974064 0.134089
H118  H     H_    0.143510 0.728032 0.075389 0.164346
H119  H     H_    0.050711 0.720738 0.955705 0.162054
O22   O     O_3   0.866163 0.271406 0.085087 -0.625324
C142  C     C_3   0.872173 0.350062 0.070857 -0.235154
H120  H     H_    0.853491 0.390975 0.092646 0.120021
H121  H     H_    0.844083 0.360440 0.986545 0.190501
H122  H     H_    0.928542 0.363018 0.125018 0.161680
O23   O     O_3   0.873328 0.828145 0.144215 -0.573398
C143  C     C_3   0.868340 0.900037 0.101623 -0.190759
H123  H     H_    0.829854 0.939229 0.085290 0.100740
H124  H     H_    0.854995 0.892122 0.027606 0.156644
H125  H     H_    0.920341 0.929063 0.162860 0.159869
O24   O     O_3   0.107865 0.186754 0.877071 -0.604270
C144  C     C_3   0.055002 0.222327 0.860041 -0.010631
H126  H     H_    0.055462 0.287100 0.856880 0.114906
H127  H     H_    0.059390 0.203105 0.923033 0.146846
H128  H     H_    0.003051 0.202435 0.780984 0.143738

loop_
_geom_bond_atom_site_label_1
_geom_bond_atom_site_label_2
_ccdc_geom_bond_type
C14   C109  S    
C58   N10   A    
C122  H60   S    
C70   H30   S    
C74   C83   A    
N22   Ni8   S    
C110  C118  S    
C122  H62   S    
C62   N14   A    
C144  H126  S    
O14   C134  S    
C14   H38   S    
C12   H36   S    
C14   C102  S    
C132  H92   S    
C30   C38   A    
N12   Ni2   S    
C16   C104  S    
C77   C88   A    
O12   C132  S    
C9    C97   S    
C99   O19   S    
C25   H13   S    
C31   C52   A    
C57   N9    A    
C139  H113  S    
C60   N12   A    
C103  O23   S    
C41   H42   S    
C61   N13   A    
C35   H52   S    
C10   H34   S    
C100  C115  S    
C33   H50   S    
C41   C49   A    
C123  H63   S    
C64   N16   A    
C127  H76   S    
N14   N23   A    
C8    C88   A    
C125  H70   S    
C42   H41   S    
C50   C53   A    
C142  H120  S    
C135  H101  S    
C138  H109  S    
N4    N25   A    
C99   C116  S    
C112  C120  S    
C27   C35   A    
C14   C114  S    
C73   N25   A    
N8    N29   A    
C77   N29   A    
C138  H108  S    
N3    Ni2   S    
N3    N26   A    
N6    Ni4   S    
N1    N28   A    
C59   C91   A    
C30   C49   A    
C131  H88   S    
C67   H27   S    
C15   C115  S    
C137  H105  S    
C19   C44   A    
C144  H128  S    
C130  H85   S    
C84   C114  S    
C141  H119  S    
C18   C89   S    
C38   H53   S    
N17   Ni5   S    
C7    N7    A    
C75   O3    S    
O1    C121  S    
C79   N31   A    
N31   Ni8   S    
C98   O18   S    
N25   Ni6   S    
C66   H26   S    
C22   C45   A    
N10   Ni1   S    
C103  C107  S    
C15   C103  S    
C123  H65   S    
C23   C40   A    
C16   C111  S    
C135  H100  S    
O8    C128  S    
C78   C87   A    
C46   H45   S    
C16   H40   S    
C141  H117  S    
C6    N6    A    
N23   Ni7   S    
C101  C118  S    
C102  O22   S    
C105  C113  S    
N15   Ni3   S    
C128  H78   S    
C100  O20   S    
C140  H115  S    
C106  O10   S    
C97   C109  S    
O20   C140  S    
N2    Ni2   S    
C111  C119  S    
O9    C129  S    
C85   C119  S    
N16   Ni4   S    
C141  H118  S    
C19   C92   S    
C20   C35   A    
C8    H8    S    
C29   H9    S    
C21   C38   A    
N11   Ni1   S    
N29   Ni8   S    
C76   O4    S    
C59   N11   A    
C44   H43   S    
C124  H66   S    
C68   H28   S    
C11   H35   S    
C104  C119  S    
C5    C85   A    
C43   H44   S    
C58   H18   S    
C9    H33   S    
C70   N22   A    
O13   C133  S    
C134  H98   S    
C62   H22   S    
C13   H37   S    
C139  H112  S    
C60   C92   A    
C7    C87   A    
N19   Ni5   S    
O24   C144  S    
C64   C96   A    
C75   N27   A    
N7    Ni4   S    
C67   C90   A    
C142  H121  S    
C79   O7    S    
C136  H102  S    
C26   H14   S    
N20   Ni6   S    
C121  H58   S    
C126  H74   S    
C99   C111  S    
C57   H17   S    
C102  C117  S    
C34   H49   S    
C42   C50   A    
C61   H21   S    
C80   N32   A    
C60   H20   S    
N12   N17   A    
N32   Ni7   S    
C88   C118  S    
N8    Ni3   S    
C15   C112  S    
C143  H123  S    
N13   Ni4   S    
C128  H80   S    
C109  O13   S    
O11   C131  S    
C122  H61   S    
C75   C82   A    
O10   C130  S    
C110  O14   S    
C6    C86   A    
C27   H15   S    
C129  H81   S    
C47   H48   S    
C48   H47   S    
N24   Ni8   S    
C18   C33   A    
C1    H1    S    
C80   O8    S    
C5    H5    S    
C134  H96   S    
C63   H23   S    
C133  H93   S    
C86   C120  S    
C2    N2    A    
C7    H7    S    
C97   C114  S    
C13   C101  S    
C25   C33   A    
N30   Ni7   S    
C98   C110  S    
C130  H86   S    
C83   C113  S    
C103  C120  S    
N15   N22   A    
C32   H12   S    
C123  H64   S    
C109  C117  S    
C130  H84   S    
C125  H71   S    
C57   C89   A    
C121  H59   S    
C87   C117  S    
C136  H104  S    
C61   C93   A    
C1    C81   A    
C126  H72   S    
C63   C95   A    
C24   C39   A    
C17   C42   A    
C66   N18   A    
C37   H54   S    
C71   H31   S    
C3    H3    S    
C72   H32   S    
C133  H95   S    
C101  O21   S    
C52   C55   A    
C144  H127  S    
O22   C142  S    
C77   O5    S    
C137  H106  S    
C4    N4    A    
C143  H125  S    
C16   C116  S    
C5    N5    A    
C138  H110  S    
C65   N17   A    
C2    H2    S    
C20   C91   S    
O19   C139  S    
C108  O12   S    
N5    N32   A    
C97   O17   S    
C25   C54   A    
C6    H6    S    
C24   C95   S    
C27   C56   A    
C98   C113  S    
C74   N26   A    
C30   H10   S    
C22   C37   A    
C137  H107  S    
N14   Ni3   S    
C78   N30   A    
C32   C51   A    
C15   H39   S    
C80   C85   A    
O15   C135  S    
C59   H19   S    
C46   C54   A    
O6    C126  S    
C68   N20   A    
N16   N21   A    
C58   C90   A    
C72   C93   A    
C100  C112  S    
C62   C94   A    
N11   N18   A    
C2    C82   A    
N9    N20   A    
C104  C108  S    
C127  H75   S    
C125  H69   S    
C105  O9    S    
C28   H16   S    
C17   C90   S    
N18   Ni6   S    
C12   C107  S    
C71   N23   A    
C74   O2    S    
C69   H29   S    
C108  C116  S    
C82   C116  S    
O23   C143  S    
C43   C51   A    
C140  H114  S    
C63   N15   A    
O4    C124  S    
N26   Ni5   S    
N4    Ni1   S    
C12   C100  S    
C131  H87   S    
C28   C36   A    
C29   C37   A    
C111  O15   S    
N9    Ni2   S    
C79   C86   A    
C65   C92   A    
C134  H97   S    
C9    C117  S    
O17   C137  S    
N27   Ni6   S    
C69   C96   A    
C11   C119  S    
C71   C94   A    
C4    H4    S    
C78   O6    S    
C106  C114  S    
C11   C99   S    
O16   C136  S    
N6    N31   A    
C19   C36   A    
C21   C94   S    
C49   C54   A    
C23   C96   S    
C51   C56   A    
N1    Ni1   S    
C10   C98   S    
C3    N3    A    
C132  H91   S    
C12   C120  S    
C1    N1    A    
C26   C34   A    
O3    C123  S    
C126  H73   S    
C4    C84   A    
C31   H11   S    
N2    N27   A    
C73   C84   A    
N21   Ni7   S    
C127  H77   S    
C8    N8    A    
C69   N21   A    
O21   C141  S    
C67   N19   A    
C104  O24   S    
C124  H68   S    
C28   C55   A    
C68   C89   A    
C29   C50   A    
C101  C105  S    
N10   N19   A    
C143  H124  S    
C18   C41   A    
C128  H79   S    
C140  H116  S    
C64   H24   S    
C9    C106  S    
N28   Ni5   S    
C129  H82   S    
C13   C110  S    
C10   C118  S    
C72   N24   A    
C131  H89   S    
C81   C115  S    
C132  H90   S    
C73   O1    S    
C124  H67   S    
C107  C115  S    
N13   N24   A    
C107  O11   S    
C112  O16   S    
C22   C93   S    
C133  H94   S    
C129  H83   S    
C65   H25   S    
C26   C53   A    
C11   C108  S    
C20   C43   A    
C139  H111  S    
C47   C55   A    
C21   C46   A    
C45   H46   S    
C48   C56   A    
O18   C138  S    
C36   H51   S    
C23   C48   A    
C24   C47   A    
C39   H56   S    
C76   C81   A    
C40   H55   S    
O7    C127  S    
C76   N28   A    
C66   C91   A    
N5    Ni3   S    
C142  H122  S    
C135  H99   S    
C70   C95   A    
C136  H103  S    
C3    C83   A    
C44   C52   A    
C121  H57   S    
C31   C39   A    
C102  C106  S    
C32   C40   A    
O2    C122  S    
C45   C53   A    
C17   C34   A    
N7    N30   A    
C10   C105  S    
O5    C125  S    
C13   C113  S    
