data_mof_unit_51133.cif
_audit_creation_date              2012-12-11T14:01:11-0500
_audit_creation_method            fapswitch 2.2
_symmetry_space_group_name_H-M    P1
_symmetry_Int_Tables_number       1
_space_group_crystal_system       triclinic
_cell_length_a                    19.01614
_cell_length_b                    10.949976
_cell_length_c                    18.738724
_cell_angle_alpha                 89.664163
_cell_angle_beta                  89.809917
_cell_angle_gamma                 90.482083
_cell_volume                      3901.66746922

loop_
_atom_site_label
_atom_site_type_symbol
_atom_type_description
_atom_site_fract_x
_atom_site_fract_y
_atom_site_fract_z
_atom_type_partial_charge
C1    C     C_R   0.271712 0.043004 0.853051 0.564124
C2    C     C_R   0.728201 0.043052 0.146884 0.557170
C3    C     C_R   0.771712 0.543004 0.853051 0.564123
C4    C     C_R   0.228201 0.543052 0.146884 0.557170
C5    C     C_R   0.490455 0.057056 0.071481 -0.085976
C6    C     C_R   0.516770 0.055012 0.925133 -0.088076
C7    C     C_R   0.990455 0.557056 0.071481 -0.085976
C8    C     C_R   0.016770 0.555011 0.925133 -0.088076
C9    C     C_R   0.997717 0.666753 0.033904 -0.119964
C10   C     C_R   0.013121 0.665663 0.961320 -0.119624
C11   C     C_R   0.497717 0.166753 0.033904 -0.119964
C12   C     C_R   0.513122 0.165663 0.961320 -0.119624
C13   C     C_2   0.248119 0.580177 0.920613 -0.102308
C14   C     C_2   0.751454 0.581152 0.079383 -0.101562
C15   C     C_2   0.748120 0.080177 0.920613 -0.102308
C16   C     C_2   0.251454 0.081152 0.079383 -0.101562
C17   C     C_2   0.255661 0.591024 0.079513 0.139012
C18   C     C_2   0.744149 0.590746 0.920018 0.137501
C19   C     C_2   0.755661 0.091024 0.079513 0.139012
C20   C     C_2   0.244149 0.090746 0.920018 0.137501
C21   C     C_2   0.289955 0.513294 0.035958 -0.138945
C22   C     C_2   0.709654 0.512636 0.964329 -0.140030
C23   C     C_2   0.789955 0.013294 0.035958 -0.138945
C24   C     C_2   0.209654 0.012636 0.964329 -0.140030
C25   C     C_2   0.301700 0.541030 0.960613 -0.147136
C26   C     C_2   0.697842 0.540777 0.039515 -0.147147
C27   C     C_2   0.801700 0.041030 0.960613 -0.147136
C28   C     C_2   0.197842 0.040777 0.039515 -0.147146
C29   C     C_2   0.511217 0.836618 0.583163 -0.107111
C30   C     C_2   0.558134 0.828021 0.435872 -0.088844
C31   C     C_2   0.011217 0.336618 0.583163 -0.107111
C32   C     C_2   0.058134 0.328021 0.435872 -0.088844
C33   C     C_2   0.565977 0.732957 0.481470 0.133657
C34   C     C_2   0.555384 0.749564 0.559518 0.123563
C35   C     C_2   0.065977 0.232957 0.481470 0.133657
C36   C     C_2   0.055384 0.249564 0.559518 0.123563
C37   C     C_2   0.245940 0.569476 0.582406 -0.100463
C38   C     C_2   0.759169 0.554723 0.412417 -0.104195
C39   C     C_2   0.745940 0.069476 0.582406 -0.100463
C40   C     C_2   0.259169 0.054723 0.412417 -0.104195
C41   C     C_2   0.239769 0.573592 0.426681 -0.093075
C42   C     C_2   0.778987 0.517794 0.565293 -0.091202
C43   C     C_2   0.739769 0.073592 0.426681 -0.093075
C44   C     C_2   0.278987 0.017794 0.565293 -0.091202
C45   C     C_R   0.471759 0.822236 0.852896 0.536563
C46   C     C_R   0.528469 0.822259 0.146884 0.547022
C47   C     C_R   0.971759 0.322236 0.852896 0.536563
C48   C     C_R   0.028469 0.322259 0.146884 0.547022
C49   C     C_2   0.183424 0.579896 0.470021 -0.159149
C50   C     C_2   0.832564 0.532029 0.519662 -0.171021
C51   C     C_2   0.683424 0.079896 0.470021 -0.159149
C52   C     C_2   0.332564 0.032029 0.519662 -0.171021
C53   C     C_2   0.188138 0.597046 0.546000 -0.164658
C54   C     C_2   0.820954 0.570947 0.445839 -0.150079
C55   C     C_2   0.688138 0.097046 0.546000 -0.164658
C56   C     C_2   0.320954 0.070947 0.445839 -0.150079
C57   C     C_R   0.260818 0.636440 0.851492 0.547380
C58   C     C_R   0.739013 0.636623 0.148419 0.547152
C59   C     C_R   0.760818 0.136440 0.851492 0.547380
C60   C     C_R   0.239013 0.136623 0.148419 0.547152
C61   C     C_R   0.291830 0.996545 0.640213 0.578698
C62   C     C_R   0.726450 0.043227 0.353236 0.545415
C63   C     C_R   0.791830 0.496545 0.640213 0.578698
C64   C     C_R   0.226450 0.543227 0.353236 0.545415
C65   C     C_R   0.473545 0.824630 0.650098 0.541785
C66   C     C_R   0.565689 0.818728 0.358769 0.600814
C67   C     C_R   0.973545 0.324630 0.650098 0.541785
C68   C     C_R   0.065689 0.318728 0.358769 0.600814
C69   C     C_R   0.259840 0.634310 0.647561 0.548077
C70   C     C_R   0.740709 0.632452 0.352120 0.558860
C71   C     C_R   0.759840 0.134310 0.647561 0.548077
C72   C     C_R   0.240709 0.132452 0.352120 0.558860
C73   C     C_R   0.501101 0.830882 0.074325 -0.013080
C74   C     C_R   0.499677 0.830056 0.925186 -0.011637
C75   C     C_R   0.001101 0.330882 0.074325 -0.013080
C76   C     C_R   0.999677 0.330056 0.925186 -0.011637
C77   C     C_R   0.498719 0.943752 0.036686 0.019772
C78   C     C_R   0.505296 0.943021 0.961468 0.020474
C79   C     C_R   0.998719 0.443752 0.036686 0.019772
C80   C     C_R   0.005295 0.443021 0.961468 0.020474
C81   C     C_R   0.499174 0.720468 0.963928 -0.173914
C82   C     C_R   0.498902 0.720908 0.036760 -0.175061
C83   C     C_R   0.999174 0.220468 0.963928 -0.173914
C84   C     C_R   0.998902 0.220908 0.036760 -0.175061
Cr1   Cr    Cr6+3 0.230530 0.836340 0.748870 0.997882
Cr2   Cr    Cr6+3 0.769470 0.836340 0.251130 1.007335
Cr3   Cr    Cr6+3 0.730530 0.336340 0.748870 0.997882
Cr4   Cr    Cr6+3 0.269470 0.336340 0.251130 1.007335
Cr5   Cr    Cr6+3 0.387420 0.989430 0.750820 1.004882
Cr6   Cr    Cr6+3 0.612580 0.989430 0.249180 1.004145
Cr7   Cr    Cr6+3 0.887420 0.489430 0.750820 1.004882
Cr8   Cr    Cr6+3 0.112580 0.489430 0.249180 1.004145
Cr9   Cr    Cr6+3 0.385640 0.677860 0.749230 0.998368
Cr10  Cr    Cr6+3 0.614360 0.677860 0.250770 1.009534
Cr11  Cr    Cr6+3 0.885640 0.177860 0.749230 0.998368
Cr12  Cr    Cr6+3 0.114360 0.177860 0.250770 1.009534
H1    H     H_    0.495995 0.632293 0.938116 0.140917
H2    H     H_    0.499607 0.632959 0.063572 0.141368
H3    H     H_    0.995995 0.132293 0.938116 0.140917
H4    H     H_    0.999607 0.132959 0.063572 0.141368
H5    H     H_    0.130353 0.578741 0.448936 0.147492
H6    H     H_    0.886281 0.530426 0.539084 0.132319
H7    H     H_    0.630353 0.078741 0.448936 0.147492
H8    H     H_    0.386281 0.030426 0.539084 0.132319
H9    H     H_    0.144568 0.644788 0.570715 0.149736
H10   H     H_    0.862315 0.626903 0.421988 0.154980
H11   H     H_    0.644568 0.144788 0.570715 0.149736
H12   H     H_    0.362315 0.126903 0.421988 0.154980
H13   H     H_    0.293444 0.575948 0.446096 0.090231
H14   H     H_    0.724769 0.522694 0.548138 0.106131
H15   H     H_    0.793444 0.075948 0.446096 0.090231
H16   H     H_    0.224769 0.022694 0.548138 0.106131
H17   H     H_    0.287753 0.515309 0.559350 0.105899
H18   H     H_    0.719955 0.490969 0.432671 0.095150
H19   H     H_    0.787753 0.015309 0.559350 0.105899
H20   H     H_    0.219955 0.990969 0.432671 0.095150
H21   H     H_    0.476805 0.062153 0.127421 0.130101
H22   H     H_    0.530033 0.058036 0.868987 0.125917
H23   H     H_    0.976806 0.562153 0.127421 0.130101
H24   H     H_    0.030033 0.558036 0.868987 0.125917
H25   H     H_    0.992317 0.752852 0.061406 0.106084
H26   H     H_    0.021134 0.750852 0.932713 0.107070
H27   H     H_    0.492317 0.252852 0.061406 0.106084
H28   H     H_    0.521134 0.250852 0.932713 0.107070
H29   H     H_    0.304085 0.422137 0.053751 0.139273
H30   H     H_    0.695337 0.421078 0.947286 0.137930
H31   H     H_    0.804085 0.922137 0.053751 0.139273
H32   H     H_    0.195337 0.921078 0.947286 0.137930
H33   H     H_    0.354362 0.531088 0.938921 0.143565
H34   H     H_    0.645163 0.529620 0.061292 0.142779
H35   H     H_    0.854363 0.031088 0.938921 0.143565
H36   H     H_    0.145162 0.029620 0.061292 0.142779
H37   H     H_    0.195557 0.586382 0.943384 0.130885
H38   H     H_    0.804045 0.588497 0.056605 0.130051
H39   H     H_    0.695557 0.086382 0.943384 0.130885
H40   H     H_    0.304045 0.088497 0.056605 0.130051
H41   H     H_    0.550470 0.919548 0.455597 0.043192
H42   H     H_    0.489046 0.904424 0.547873 0.050503
H43   H     H_    0.050470 0.419548 0.455597 0.043192
H44   H     H_    0.989046 0.404424 0.547873 0.050503
O1    O     O_R   0.215090 0.709860 0.828130 -0.522409
O2    O     O_R   0.784910 0.709860 0.171870 -0.521511
O3    O     O_R   0.715090 0.209860 0.828130 -0.522409
O4    O     O_R   0.284910 0.209860 0.171870 -0.521511
O5    O     O_R   0.445660 0.919250 0.676780 -0.525052
O6    O     O_R   0.554340 0.919250 0.323220 -0.514869
O7    O     O_R   0.945660 0.419250 0.676780 -0.525052
O8    O     O_R   0.054340 0.419250 0.323220 -0.514869
O9    O     O_R   0.456260 0.718170 0.670000 -0.505239
O10   O     O_R   0.543740 0.718170 0.330000 -0.493370
O11   O     O_R   0.956260 0.218170 0.670000 -0.505239
O12   O     O_R   0.043740 0.218170 0.330000 -0.493370
O13   O     O_R   0.320940 0.626760 0.674370 -0.501657
O14   O     O_R   0.679060 0.626760 0.325630 -0.499512
O15   O     O_R   0.820940 0.126760 0.674370 -0.501657
O16   O     O_R   0.179060 0.126760 0.325630 -0.499512
O17   O     O_3   0.334530 0.834540 0.749640 -0.261217
O18   O     O_3   0.665470 0.834540 0.250360 -0.268283
O19   O     O_3   0.834530 0.334540 0.749640 -0.261217
O20   O     O_3   0.165470 0.334540 0.250360 -0.268283
O21   O     O_R   0.236990 0.958390 0.823710 -0.510983
O22   O     O_R   0.763010 0.958390 0.176290 -0.512917
O23   O     O_R   0.736990 0.458390 0.823710 -0.510983
O24   O     O_R   0.263010 0.458390 0.176290 -0.512917
O25   O     O_R   0.332380 0.074750 0.830850 -0.511165
O26   O     O_R   0.667620 0.074750 0.169150 -0.513684
O27   O     O_R   0.832380 0.574750 0.830850 -0.511165
O28   O     O_R   0.167620 0.574750 0.169150 -0.513684
O29   O     O_R   0.445800 0.917770 0.825070 -0.505450
O30   O     O_R   0.554200 0.917770 0.174930 -0.502113
O31   O     O_R   0.945800 0.417770 0.825070 -0.505450
O32   O     O_R   0.054200 0.417770 0.174930 -0.502113
O33   O     O_R   0.456410 0.716580 0.829970 -0.526879
O34   O     O_R   0.543590 0.716580 0.170030 -0.523317
O35   O     O_R   0.956410 0.216580 0.829970 -0.526879
O36   O     O_R   0.043590 0.216580 0.170030 -0.523317
O37   O     O_R   0.321080 0.625290 0.822650 -0.494960
O38   O     O_R   0.678920 0.625290 0.177350 -0.500060
O39   O     O_R   0.821080 0.125290 0.822650 -0.494960
O40   O     O_R   0.178920 0.125290 0.177350 -0.500060
O41   O     O_R   0.214930 0.711450 0.668160 -0.528881
O42   O     O_R   0.785070 0.711450 0.331840 -0.517599
O43   O     O_R   0.714930 0.211450 0.668160 -0.528881
O44   O     O_R   0.285070 0.211450 0.331840 -0.517599
O45   O     O_R   0.236850 0.959870 0.675420 -0.501714
O46   O     O_R   0.763150 0.959870 0.324580 -0.496911
O47   O     O_R   0.736850 0.459870 0.675420 -0.501714
O48   O     O_R   0.263150 0.459870 0.324580 -0.496911
O49   O     O_R   0.332230 0.076350 0.670880 -0.505442
O50   O     O_R   0.667770 0.076350 0.329120 -0.527403
O51   O     O_R   0.832230 0.576350 0.670880 -0.505442
O52   O     O_R   0.167770 0.576350 0.329120 -0.527403
N1    N     N_2   0.244625 0.715546 0.059945 -0.526023
H45   H     H_    0.204289 0.758603 0.086454 0.259450
C85   C     C_3   0.308185 0.789224 0.053764 -0.292574
H46   H     H_    0.311697 0.853817 0.099057 0.128692
H47   H     H_    0.307720 0.840680 0.002699 0.162735
H48   H     H_    0.356339 0.732772 0.054376 0.164253
N2    N     N_2   0.755179 0.715757 0.938337 -0.525260
H49   H     H_    0.795532 0.759700 0.911391 0.259709
C86   C     C_3   0.691616 0.787674 0.943709 -0.292908
H50   H     H_    0.688161 0.851699 0.897735 0.127131
H51   H     H_    0.692114 0.839751 0.994212 0.162794
H52   H     H_    0.643394 0.729882 0.943697 0.163138
N3    N     N_2   0.744625 0.215546 0.059945 -0.526023
H53   H     H_    0.704289 0.258603 0.086454 0.259450
C87   C     C_3   0.808185 0.289224 0.053764 -0.292575
H54   H     H_    0.811697 0.353817 0.099056 0.128692
H55   H     H_    0.807720 0.340680 0.002699 0.162735
H56   H     H_    0.856339 0.232772 0.054376 0.164253
N4    N     N_2   0.255179 0.215757 0.938337 -0.525260
H57   H     H_    0.295532 0.259700 0.911391 0.259709
C88   C     C_3   0.191616 0.287674 0.943709 -0.292908
H58   H     H_    0.188161 0.351699 0.897735 0.127131
H59   H     H_    0.192114 0.339751 0.994212 0.162794
H60   H     H_    0.143394 0.229882 0.943697 0.163138
N5    N     N_2   0.584225 0.615163 0.455457 -0.473793
H61   H     H_    0.623128 0.573066 0.484162 0.248715
C89   C     C_3   0.525946 0.533795 0.438887 -0.260968
H62   H     H_    0.533570 0.496284 0.384563 0.168785
H63   H     H_    0.474522 0.581466 0.440725 0.151982
H64   H     H_    0.524328 0.455575 0.476833 0.096129
N6    N     N_2   0.590727 0.670800 0.608788 -0.500685
H65   H     H_    0.606152 0.712261 0.655587 0.255429
C90   C     C_3   0.561784 0.548959 0.619255 -0.250593
H66   H     H_    0.552799 0.531195 0.677040 0.141727
H67   H     H_    0.599660 0.480477 0.599393 0.137847
H68   H     H_    0.510686 0.536999 0.591507 0.160392
N7    N     N_2   0.084225 0.115163 0.455457 -0.473793
H69   H     H_    0.123128 0.073066 0.484162 0.248715
C91   C     C_3   0.025946 0.033795 0.438887 -0.260968
H70   H     H_    0.033570 0.996284 0.384563 0.168785
H71   H     H_    0.974522 0.081466 0.440725 0.151982
H72   H     H_    0.024328 0.955575 0.476833 0.096129
N8    N     N_2   0.090727 0.170800 0.608788 -0.500685
H73   H     H_    0.106152 0.212261 0.655587 0.255429
C92   C     C_3   0.061784 0.048959 0.619255 -0.250593
H74   H     H_    0.052799 0.031195 0.677040 0.141727
H75   H     H_    0.099660 0.980477 0.599393 0.137847
H76   H     H_    0.010686 0.036999 0.591507 0.160392

loop_
_geom_bond_atom_site_label_1
_geom_bond_atom_site_label_2
_ccdc_geom_bond_type
C16   C28   D    
Cr3   O23   S    
C38   C70   S    
C72   O16   A    
C37   C69   S    
Cr8   O8    S    
C27   H35   S    
C86   H50   S    
C17   N1    S    
C35   C36   S    
C53   H9    S    
C25   H33   S    
C2    O22   A    
Cr7   O7    S    
C81   C82   A    
C3    O27   A    
C62   O50   A    
Cr12  O16   S    
C77   C78   A    
C36   N8    S    
Cr5   O5    S    
C29   H42   S    
Cr2   O2    S    
C50   C54   S    
C7    C79   A    
Cr1   O17   S    
Cr11  O19   S    
Cr5   O49   S    
Cr7   O27   S    
C47   C76   S    
C66   O10   A    
Cr3   O43   S    
C38   H18   S    
C63   O51   A    
C75   C84   A    
Cr4   O44   S    
C37   H17   S    
C51   H7    S    
Cr12  O12   S    
C90   H68   S    
Cr1   O21   S    
C3    C18   S    
C16   C60   S    
C20   N4    S    
Cr9   O33   S    
Cr11  O35   S    
C56   H12   S    
C22   C26   S    
C48   O32   A    
Cr11  O11   S    
Cr9   O9    S    
C70   O42   A    
C39   C55   D    
N6    H65   S    
C24   H32   S    
C40   C56   D    
C12   H28   S    
N8    C92   S    
C87   H56   S    
C9    H25   S    
N8    H73   S    
C4    O24   A    
Cr2   O22   S    
C23   C27   S    
C18   C22   D    
Cr12  O36   S    
C9    C10   A    
C2    O26   A    
Cr7   O19   S    
C68   O8    A    
C3    O23   A    
C32   C68   S    
C85   H48   S    
C37   C53   D    
C44   C52   D    
N3    C87   S    
C1    O21   A    
N2    H49   S    
Cr10  O18   S    
C30   H41   S    
Cr10  O38   S    
C92   H74   S    
Cr6   O26   S    
C61   O49   A    
C86   H51   S    
C48   C75   S    
C13   C25   D    
C43   H15   S    
C76   C83   A    
C41   C49   D    
C64   O52   A    
C61   O45   A    
C90   H66   S    
C88   H59   S    
Cr1   O45   S    
C14   C58   S    
C54   H10   S    
C67   O11   A    
C87   H54   S    
C84   H4    S    
C32   C35   D    
C7    H23   S    
C13   C57   S    
C79   C80   A    
C72   O44   A    
C32   H43   S    
C91   H71   S    
Cr1   O1    S    
C89   H62   S    
Cr9   O37   S    
Cr3   O47   S    
C14   H38   S    
C51   C55   S    
N1    C85   S    
N5    H61   S    
C88   H58   S    
Cr7   O51   S    
C29   C34   D    
C69   O13   A    
C4    O28   A    
C55   H11   S    
C45   C74   S    
C28   H36   S    
Cr6   O18   S    
C19   C23   D    
N4    H57   S    
N7    H69   S    
C68   O12   A    
C45   O33   A    
C89   H63   S    
Cr2   O46   S    
Cr8   O28   S    
C15   C27   D    
C83   C84   A    
C38   C54   D    
Cr4   O4    S    
C1    O25   A    
Cr10  O14   S    
C71   O15   A    
Cr6   O30   S    
C46   O34   A    
C33   C34   S    
C58   O38   A    
C64   O48   A    
C14   C26   D    
Cr9   O17   S    
Cr2   O18   S    
Cr5   O25   S    
C30   C66   S    
C42   C50   D    
C29   C65   S    
C4    C17   S    
C44   H16   S    
N3    H53   S    
Cr11  O39   S    
C41   H13   S    
Cr12  O20   S    
Cr10  O34   S    
C50   H6    S    
C39   H19   S    
Cr7   O31   S    
C92   H75   S    
C5    C11   A    
C67   O7    A    
C62   O46   A    
C86   H52   S    
C76   C80   A    
C74   C81   A    
C21   H29   S    
C16   H40   S    
C6    C12   A    
C73   C82   A    
C91   H70   S    
C34   N6    S    
C8    H24   S    
C8    C80   A    
Cr6   O50   S    
C88   H60   S    
C7    C9    A    
C21   C25   S    
C52   H8    S    
C1    C20   S    
C15   C59   S    
C58   O2    A    
C40   C72   S    
C30   C33   D    
N4    C88   S    
C2    C19   S    
C70   O14   A    
C13   H37   S    
C8    C10   A    
C11   H27   S    
C24   C28   S    
C87   H55   S    
Cr2   O42   S    
C10   H26   S    
C26   H34   S    
C47   O31   A    
C11   C12   A    
N6    C90   S    
Cr5   O17   S    
Cr1   O41   S    
C33   N5    S    
C44   C61   S    
C60   O40   A    
C23   H31   S    
C63   O47   A    
C57   O1    A    
Cr8   O20   S    
C19   N3    S    
Cr12  O40   S    
C59   O39   A    
C42   H14   S    
Cr5   O29   S    
N7    C91   S    
Cr4   O24   S    
C75   C79   A    
C60   O4    A    
C89   H64   S    
C57   O37   A    
C43   C51   D    
C40   H20   S    
C81   H1    S    
Cr8   O32   S    
C49   C53   S    
C52   C56   S    
Cr9   O13   S    
C90   H67   S    
C5    C77   A    
Cr3   O19   S    
C91   H72   S    
Cr11  O15   S    
Cr4   O20   S    
C35   N7    S    
C65   O9    A    
N5    C89   S    
C20   C24   D    
C17   C21   D    
C82   H2    S    
C66   O6    A    
C6    C78   A    
C31   C67   S    
C59   O3    A    
C85   H46   S    
C46   O30   A    
Cr10  O10   S    
Cr4   O48   S    
C15   H39   S    
C43   C62   S    
C73   C77   A    
Cr6   O6    S    
N1    H45   S    
C74   C78   A    
C92   H76   S    
C5    H21   S    
C18   N2    S    
N2    C86   S    
C39   C71   S    
C31   C36   D    
C83   H3    S    
C22   H30   S    
C41   C64   S    
Cr3   O3    S    
C31   H44   S    
C65   O5    A    
C42   C63   S    
C6    H22   S    
C46   C73   S    
C47   O35   A    
C45   O29   A    
Cr8   O52   S    
C49   H5    S    
C69   O41   A    
C48   O36   A    
C85   H47   S    
C71   O43   A    
