data_mof_unit_48172.cif
_audit_creation_date              2012-12-10T18:45:08-0500
_audit_creation_method            fapswitch 2.2
_symmetry_space_group_name_H-M    P1
_symmetry_Int_Tables_number       1
_space_group_crystal_system       triclinic
_cell_length_a                    10.645747
_cell_length_b                    9.932532
_cell_length_c                    10.634936
_cell_angle_alpha                 89.740133
_cell_angle_beta                  91.377982
_cell_angle_gamma                 89.714387
_cell_volume                      1124.17850079

loop_
_atom_site_label
_atom_site_type_symbol
_atom_type_description
_atom_site_fract_x
_atom_site_fract_y
_atom_site_fract_z
_atom_type_partial_charge
C1    C     C_R   0.260689 0.500090 0.505218 0.851653
C2    C     C_R   0.739455 0.499531 0.506073 0.880146
C3    C     C_R   0.933514 0.580479 0.431159 -0.250581
C4    C     C_R   0.061425 0.581368 0.431467 -0.257762
C5    C     C_R   0.589526 0.072295 0.565655 -0.085427
C6    C     C_R   0.410418 0.074032 0.434617 -0.078536
C7    C     C_R   0.590972 0.929174 0.565960 0.223277
C8    C     C_R   0.409013 0.931095 0.434478 0.226152
C9    C     C_R   0.497289 0.500041 0.260670 0.866842
C10   C     C_R   0.498166 0.499967 0.739343 0.836252
C11   C     C_R   0.272437 0.587803 0.124727 -0.198187
C12   C     C_R   0.278534 0.604787 0.863388 -0.189604
C13   C     C_R   0.168594 0.637929 0.056784 -0.135962
C14   C     C_R   0.172077 0.647530 0.926285 -0.134835
C15   C     C_R   0.383977 0.552306 0.931055 0.097121
C16   C     C_R   0.382132 0.547697 0.062696 0.101132
C17   C     C_R   0.489720 0.499105 0.128193 -0.094128
C18   C     C_R   0.490628 0.500235 0.871540 -0.086085
C19   C     C_R   0.592771 0.446524 0.067202 -0.202973
C20   C     C_R   0.592567 0.445770 0.938652 -0.214335
C21   C     C_R   0.069090 0.422023 0.609010 0.176224
C22   C     C_R   0.937416 0.421366 0.608887 0.201533
C23   C     C_R   0.872135 0.499224 0.516509 -0.059722
C24   C     C_R   0.128540 0.500709 0.516773 -0.055842
H1    H     H_    0.673847 0.407338 0.119459 0.148956
H2    H     H_    0.673262 0.405398 0.891631 0.144787
H3    H     H_    0.085098 0.668680 0.105428 0.133854
H4    H     H_    0.091399 0.686125 0.873442 0.141898
N1    N     N_R   0.500000 0.857200 0.500000 -0.082397
N2    N     N_R   0.500000 0.142810 0.500000 -0.114895
O1    O     O_R   0.316770 0.614620 0.499990 -0.630198
O2    O     O_R   0.683230 0.614620 0.500010 -0.621293
O3    O     O_R   0.316800 0.385290 0.500000 -0.613152
O4    O     O_R   0.683200 0.385290 0.500000 -0.614267
O5    O     O_R   0.500010 0.614690 0.316770 -0.620293
O6    O     O_R   0.499990 0.614690 0.683230 -0.623679
O7    O     O_R   0.500040 0.385360 0.316770 -0.606255
O8    O     O_R   0.499960 0.385360 0.683230 -0.620300
Zn1   Zn    Zn3+2 0.500000 0.653120 0.500000 0.936469
Zn2   Zn    Zn3+2 0.500000 0.346880 0.500000 0.945270
H5    H     H_    0.265674 0.578064 0.225436 0.122939
H6    H     H_    0.276332 0.611197 0.761943 0.154701
C25   C     C_3   0.142718 0.341494 0.708290 -0.886014
H7    H     H_    0.244982 0.359329 0.708957 0.250137
H8    H     H_    0.112542 0.369670 0.803734 0.242566
H9    H     H_    0.126615 0.232277 0.693812 0.249361
C26   C     C_3   0.870072 0.341783 0.709074 -0.941542
H10   H     H_    0.892538 0.233024 0.700283 0.248836
H11   H     H_    0.899709 0.377189 0.803953 0.235090
H12   H     H_    0.767014 0.352815 0.704856 0.242491
H13   H     H_    0.882016 0.640786 0.361764 0.162333
H14   H     H_    0.107898 0.642250 0.362173 0.152652
H15   H     H_    0.661171 0.127706 0.617149 0.146554
H16   H     H_    0.338648 0.130767 0.383290 0.149435
C27   C     C_3   0.696941 0.860787 0.637300 -0.833430
H17   H     H_    0.745107 0.931416 0.703037 0.193418
H18   H     H_    0.662922 0.776928 0.695357 0.272806
H19   H     H_    0.768528 0.825784 0.570774 0.249791
C28   C     C_3   0.303097 0.864798 0.363965 -0.857267
H20   H     H_    0.254036 0.936177 0.298508 0.202200
H21   H     H_    0.338386 0.782142 0.306033 0.273338
H22   H     H_    0.232706 0.829491 0.431406 0.248748

loop_
_geom_bond_atom_site_label_1
_geom_bond_atom_site_label_2
_ccdc_geom_bond_type
C15   C18   A    
O5    Zn1   S    
C25   H7    S    
C7    N1    A    
C13   C14   A    
O7    Zn2   S    
C11   C13   A    
C11   C16   A    
C3    C23   A    
C19   C20   A    
O1    Zn1   S    
C12   C15   A    
C7    C27   S    
C10   O8    A    
C14   H4    S    
N1    Zn1   S    
C27   H17   S    
C9    O7    A    
C22   C26   S    
C1    O3    A    
C28   H20   S    
C26   H11   S    
C21   C22   A    
O8    Zn2   S    
C25   H8    S    
C2    O4    A    
C27   H19   S    
C20   H2    S    
C4    H14   S    
C4    C24   A    
C6    C8    A    
C8    N1    A    
C9    C17   S    
C6    N2    A    
C10   C18   S    
C11   H5    S    
C26   H12   S    
C18   C20   A    
C27   H18   S    
C8    C28   S    
C19   H1    S    
C25   H9    S    
O4    Zn2   S    
C21   C24   A    
O3    Zn2   S    
C28   H21   S    
N2    Zn2   S    
C15   C16   A    
C1    O1    A    
C1    C24   S    
C2    O2    A    
C5    N2    A    
O2    Zn1   S    
C5    H15   S    
C2    C23   S    
C5    C7    A    
C3    H13   S    
C22   C23   A    
C13   H3    S    
C9    O5    A    
C12   H6    S    
C10   O6    A    
C17   C19   A    
C21   C25   S    
O6    Zn1   S    
C6    H16   S    
C3    C4    A    
C26   H10   S    
C12   C14   A    
C16   C17   A    
C28   H22   S    
