data_mof_unit_65934.cif
_audit_creation_date              2012-10-26T18:03:10-0400
_audit_creation_method            fapswitch 2.2
_symmetry_space_group_name_H-M    P1
_symmetry_Int_Tables_number       1
_space_group_crystal_system       triclinic
_cell_length_a                    18.380817
_cell_length_b                    18.380817
_cell_length_c                    35.830314
_cell_angle_alpha                 90.000036
_cell_angle_beta                  90.000036
_cell_angle_gamma                 90.0
_cell_volume                      12105.4304417

loop_
_atom_site_label
_atom_site_type_symbol
_atom_type_description
_atom_site_fract_x
_atom_site_fract_y
_atom_site_fract_z
_atom_type_partial_charge
C1    C     C_R   0.500000 0.139788 0.500000 0.611436
C2    C     C_1   0.717550 0.500000 0.500000 -0.012562
C3    C     C_2   0.106374 0.586705 0.193540 0.254718
C4    C     C_2   0.413295 0.893626 0.806460 0.254718
C5    C     C_2   0.893625 0.586704 0.806460 0.254718
C6    C     C_2   0.586704 0.106374 0.806460 0.254718
C7    C     C_2   0.106374 0.413296 0.806460 0.254719
C8    C     C_2   0.913296 0.606375 0.693540 0.254718
C9    C     C_2   0.393626 0.913296 0.693540 0.254718
C10   C     C_2   0.086704 0.393626 0.693540 0.254718
C11   C     C_2   0.606374 0.086705 0.693540 0.254718
C12   C     C_2   0.913295 0.393626 0.306460 0.254718
C13   C     C_1   0.500000 0.717550 0.500000 -0.012562
C14   C     C_2   0.393626 0.086705 0.306460 0.254717
C15   C     C_2   0.086704 0.606374 0.306460 0.254718
C16   C     C_2   0.606374 0.913295 0.306460 0.254719
C17   C     C_2   0.401747 0.096635 0.113559 0.227593
C18   C     C_2   0.903364 0.401747 0.113559 0.227595
C19   C     C_2   0.598253 0.903365 0.113559 0.227594
C20   C     C_2   0.096636 0.598252 0.113559 0.227594
C21   C     C_2   0.401748 0.903363 0.886441 0.227594
C22   C     C_2   0.903364 0.598252 0.886441 0.227593
C23   C     C_2   0.598252 0.096636 0.886441 0.227595
C24   C     C_1   0.282450 0.500000 0.500000 -0.012562
C25   C     C_2   0.096636 0.401748 0.886441 0.227594
C26   C     C_2   0.901748 0.596636 0.613559 0.227593
C27   C     C_2   0.403364 0.901748 0.613559 0.227595
C28   C     C_2   0.098252 0.403364 0.613559 0.227594
C29   C     C_2   0.596637 0.098252 0.613559 0.227594
C30   C     C_2   0.901748 0.403364 0.386441 0.227595
C31   C     C_2   0.403365 0.098253 0.386441 0.227593
C32   C     C_2   0.098252 0.596636 0.386441 0.227595
C33   C     C_2   0.596635 0.901747 0.386441 0.227594
C34   C     C_1   1.000000 0.782450 1.000000 -0.012562
C35   C     C_1   0.217550 0.000000 0.000000 -0.012562
C36   C     C_1   0.000000 0.217550 0.000000 -0.012562
C37   C     C_1   0.782450 1.000000 1.000000 -0.012562
C38   C     C_1   0.500000 0.217223 0.500000 0.019278
C39   C     C_1   0.782777 0.500000 0.500000 0.019278
C40   C     C_1   0.500000 0.782777 0.500000 0.019278
C41   C     C_R   0.860212 0.500000 0.500000 0.611436
C42   C     C_1   0.217223 0.500000 0.500000 0.019278
C43   C     C_1   1.000000 0.717222 1.000000 0.019278
C44   C     C_1   0.282777 0.000000 0.000000 0.019278
C45   C     C_1   0.000000 0.282777 0.000000 0.019278
C46   C     C_1   0.717222 1.000000 1.000000 0.019278
C47   C     C_R   0.500000 0.000000 0.427891 0.627571
C48   C     C_R   0.000000 0.500000 0.427891 0.627570
C49   C     C_R   0.500000 0.000000 0.572109 0.627570
C50   C     C_R   0.000000 0.500000 0.572109 0.627570
C51   C     C_R   1.000000 0.500000 0.927891 0.627570
C52   C     C_R   0.500000 0.860212 0.500000 0.611437
C53   C     C_R   0.500000 1.000000 0.927891 0.627570
C54   C     C_R   0.000000 0.500000 0.072109 0.627570
C55   C     C_R   0.500000 0.000000 0.072109 0.627571
C56   C     C_R   0.457100 0.051143 0.173000 -0.028145
C57   C     C_R   0.948857 0.457101 0.173000 -0.028146
C58   C     C_R   0.542900 0.948857 0.173000 -0.028145
C59   C     C_R   0.051143 0.542900 0.173000 -0.028145
C60   C     C_R   0.457100 0.948857 0.827000 -0.028144
C61   C     C_R   0.948857 0.542899 0.827000 -0.028145
C62   C     C_R   0.542899 0.051143 0.827000 -0.028146
C63   C     C_R   0.139788 0.500000 0.500000 0.611436
C64   C     C_R   0.051143 0.457101 0.827000 -0.028146
C65   C     C_R   0.957101 0.551143 0.673000 -0.028145
C66   C     C_R   0.448857 0.957101 0.673000 -0.028146
C67   C     C_R   0.042899 0.448857 0.673000 -0.028145
C68   C     C_R   0.551143 0.042900 0.673000 -0.028144
C69   C     C_R   0.957100 0.448857 0.327000 -0.028145
C70   C     C_R   0.448857 0.042900 0.327000 -0.028145
C71   C     C_R   0.042899 0.551143 0.327000 -0.028146
C72   C     C_R   0.551143 0.957100 0.327000 -0.028145
C73   C     C_R   0.453953 0.048462 0.133563 -0.045189
C74   C     C_R   0.000000 0.639788 0.000000 0.611436
C75   C     C_R   0.951537 0.453953 0.133563 -0.045188
C76   C     C_R   0.546047 0.951538 0.133563 -0.045189
C77   C     C_R   0.048463 0.546047 0.133563 -0.045189
C78   C     C_R   0.453953 0.951537 0.866437 -0.045190
C79   C     C_R   0.951537 0.546047 0.866437 -0.045189
C80   C     C_R   0.546047 0.048463 0.866437 -0.045188
C81   C     C_R   0.048463 0.453953 0.866437 -0.045189
C82   C     C_R   0.953953 0.548463 0.633563 -0.045189
C83   C     C_R   0.451537 0.953953 0.633563 -0.045188
C84   C     C_R   0.046047 0.451537 0.633563 -0.045189
C85   C     C_R   0.360212 0.000000 0.000000 0.611436
C86   C     C_R   0.548463 0.046047 0.633563 -0.045190
C87   C     C_R   0.953953 0.451537 0.366437 -0.045189
C88   C     C_R   0.451538 0.046047 0.366437 -0.045189
C89   C     C_R   0.046047 0.548462 0.366437 -0.045189
C90   C     C_R   0.548462 0.953953 0.366437 -0.045189
C91   C     C_R   0.500000 0.000000 0.113643 0.023119
C92   C     C_R   0.000000 0.500000 0.113643 0.023119
C93   C     C_R   0.500000 1.000000 0.886357 0.023119
C94   C     C_R   1.000000 0.500000 0.886357 0.023119
C95   C     C_R   0.000000 0.500000 0.613643 0.023119
C96   C     C_R   0.000000 0.360212 0.000000 0.611436
C97   C     C_R   0.500000 0.000000 0.613643 0.023119
C98   C     C_R   1.000000 0.500000 0.386357 0.023119
C99   C     C_R   0.500000 0.000000 0.386357 0.023119
C100  C     C_R   0.359898 0.500000 0.500000 0.554428
C101  C     C_R   0.500000 0.359898 0.500000 0.554428
C102  C     C_R   0.640102 0.500000 0.500000 0.554428
C103  C     C_R   0.500000 0.640102 0.500000 0.554428
C104  C     C_R   0.859898 1.000000 0.000000 0.554428
C105  C     C_R   1.000000 0.859898 0.000000 0.554428
C106  C     C_R   0.140102 0.000000 0.000000 0.554428
C107  C     C_R   0.639788 0.000000 1.000000 0.611436
C108  C     C_R   1.000000 0.140102 0.000000 0.554428
C109  C     C_R   0.500000 0.000000 0.192636 0.031367
C110  C     C_R   1.000000 0.500001 0.192636 0.031367
C111  C     C_R   0.499999 0.000000 0.807364 0.031367
C112  C     C_R   1.000000 0.500000 0.807364 0.031367
C113  C     C_R   1.000000 0.500000 0.692636 0.031367
C114  C     C_R   0.499999 0.000001 0.692636 0.031367
C115  C     C_R   0.999999 0.500000 0.307364 0.031367
C116  C     C_R   0.500000 0.000000 0.307364 0.031367
C117  C     C_1   0.500000 0.000000 0.233154 0.160194
C118  C     C_1   0.500000 0.282450 0.500000 -0.012562
C119  C     C_1   0.999999 0.500001 0.233154 0.160195
C120  C     C_1   0.499999 0.000001 0.766846 0.160195
C121  C     C_1   1.000000 0.500000 0.766846 0.160196
C122  C     C_1   1.000000 0.500000 0.733154 0.160196
C123  C     C_1   0.499999 0.000001 0.733154 0.160195
C124  C     C_1   0.999999 0.500001 0.266846 0.160195
C125  C     C_1   0.500000 0.000000 0.266846 0.160194
C126  C     C_2   0.413295 0.106374 0.193540 0.254717
C127  C     C_2   0.893626 0.413296 0.193540 0.254718
C128  C     C_2   0.586705 0.893626 0.193540 0.254719
Cu1   Cu    Cu3+1 0.572400 0.000000 0.500000 1.060439
Cu2   Cu    Cu3+1 0.500000 0.500000 0.537120 1.034141
Cu3   Cu    Cu3+1 0.000000 0.000000 0.962880 1.034142
Cu4   Cu    Cu3+1 0.000000 0.000000 0.037120 1.034141
Cu5   Cu    Cu3+1 0.000000 0.572400 0.500000 1.060440
Cu6   Cu    Cu3+1 0.427600 0.000000 0.500000 1.060440
Cu7   Cu    Cu3+1 0.000000 0.427600 0.500000 1.060439
Cu8   Cu    Cu3+1 0.072400 0.500000 0.000000 1.060439
Cu9   Cu    Cu3+1 0.500000 0.072400 0.000000 1.060440
Cu10  Cu    Cu3+1 0.927600 0.500000 0.000000 1.060440
Cu11  Cu    Cu3+1 0.500000 0.927600 0.000000 1.060439
Cu12  Cu    Cu3+1 0.500000 0.500000 0.462880 1.034142
H1    H     H_    0.358879 0.120193 0.184202 0.123056
H2    H     H_    0.379808 0.858879 0.684203 0.123058
H3    H     H_    0.141120 0.379805 0.684202 0.123056
H4    H     H_    0.620195 0.141121 0.684201 0.123055
H5    H     H_    0.858879 0.379805 0.315798 0.123055
H6    H     H_    0.379807 0.141121 0.315798 0.123056
H7    H     H_    0.141121 0.620192 0.315797 0.123058
H8    H     H_    0.620193 0.858879 0.315798 0.123056
H9    H     H_    0.394385 0.152615 0.122389 0.109956
H10   H     H_    0.847385 0.394385 0.122389 0.109956
H11   H     H_    0.605615 0.847385 0.122389 0.109955
H12   H     H_    0.879808 0.358879 0.184203 0.123058
H13   H     H_    0.152616 0.605612 0.122389 0.109954
H14   H     H_    0.394388 0.847384 0.877611 0.109954
H15   H     H_    0.847384 0.605614 0.877611 0.109955
H16   H     H_    0.605614 0.152615 0.877611 0.109956
H17   H     H_    0.152615 0.394386 0.877611 0.109955
H18   H     H_    0.894386 0.652615 0.622389 0.109955
H19   H     H_    0.347385 0.894385 0.622389 0.109956
H20   H     H_    0.105613 0.347385 0.622389 0.109955
H21   H     H_    0.652616 0.105612 0.622389 0.109954
H22   H     H_    0.894388 0.347384 0.377611 0.109954
H23   H     H_    0.641121 0.879806 0.184202 0.123056
H24   H     H_    0.347385 0.105615 0.377611 0.109956
H25   H     H_    0.105615 0.652615 0.377611 0.109956
H26   H     H_    0.652615 0.894385 0.377611 0.109955
H27   H     H_    0.120195 0.641121 0.184201 0.123055
H28   H     H_    0.358879 0.879805 0.815798 0.123055
H29   H     H_    0.879806 0.641120 0.815798 0.123056
H30   H     H_    0.641121 0.120192 0.815797 0.123058
H31   H     H_    0.120195 0.358880 0.815798 0.123056
H32   H     H_    0.858880 0.620194 0.684202 0.123056
O1    O     O_R   0.561120 0.105710 0.500130 -0.490463
O2    O     O_R   0.394290 0.061120 0.000130 -0.490463
O3    O     O_R   0.938880 0.394290 0.000130 -0.490462
O4    O     O_R   0.605710 0.938880 0.000130 -0.490463
O5    O     O_R   0.061120 0.394290 0.999870 -0.490463
O6    O     O_R   0.394290 0.938880 0.999870 -0.490462
O7    O     O_R   0.938880 0.605710 0.999870 -0.490462
O8    O     O_R   0.605710 0.061120 0.999870 -0.490462
O9    O     O_R   0.561120 0.999900 0.445770 -0.491526
O10   O     O_R   0.000100 0.561120 0.445770 -0.491525
O11   O     O_R   0.438880 0.000100 0.445770 -0.491525
O12   O     O_R   0.894290 0.561120 0.500130 -0.490463
O13   O     O_R   0.999900 0.438880 0.445770 -0.491526
O14   O     O_R   0.561120 0.000100 0.554230 -0.491526
O15   O     O_R   0.000100 0.438880 0.554230 -0.491526
O16   O     O_R   0.438880 0.999900 0.554230 -0.491525
O17   O     O_R   0.999900 0.561120 0.554230 -0.491526
O18   O     O_R   0.061120 0.499900 0.945770 -0.491526
O19   O     O_R   0.500100 0.061120 0.945770 -0.491525
O20   O     O_R   0.938880 0.500100 0.945770 -0.491526
O21   O     O_R   0.499900 0.938880 0.945770 -0.491526
O22   O     O_R   0.061120 0.500100 0.054230 -0.491526
O23   O     O_R   0.438880 0.894290 0.500130 -0.490462
O24   O     O_R   0.500100 0.938880 0.054230 -0.491526
O25   O     O_R   0.938880 0.499900 0.054230 -0.491525
O26   O     O_R   0.499900 0.061120 0.054230 -0.491526
O27   O     O_R   0.394010 0.499860 0.468680 -0.498372
O28   O     O_R   0.500140 0.394010 0.468680 -0.498372
O29   O     O_R   0.605990 0.500140 0.468680 -0.498372
O30   O     O_R   0.499860 0.605990 0.468680 -0.498372
O31   O     O_R   0.394010 0.500140 0.531320 -0.498372
O32   O     O_R   0.500140 0.605990 0.531320 -0.498372
O33   O     O_R   0.605990 0.499860 0.531320 -0.498372
O34   O     O_R   0.105710 0.438880 0.500130 -0.490463
O35   O     O_R   0.499860 0.394010 0.531320 -0.498372
O36   O     O_R   0.894010 0.999860 0.968680 -0.498372
O37   O     O_R   0.000140 0.894010 0.968680 -0.498372
O38   O     O_R   0.105990 0.000140 0.968680 -0.498372
O39   O     O_R   0.999860 0.105990 0.968680 -0.498372
O40   O     O_R   0.894010 0.000140 0.031320 -0.498372
O41   O     O_R   0.000140 0.105990 0.031320 -0.498372
O42   O     O_R   0.105990 0.999860 0.031320 -0.498372
O43   O     O_R   0.999860 0.894010 0.031320 -0.498372
O44   O     O_2   0.438656 0.138840 0.220265 -0.466282
O45   O     O_R   0.561120 0.894290 0.499870 -0.490463
O46   O     O_2   0.861159 0.438658 0.220264 -0.466280
O47   O     O_2   0.561344 0.861160 0.220265 -0.466283
O48   O     O_2   0.138838 0.561345 0.220266 -0.466284
O49   O     O_2   0.438655 0.861162 0.779734 -0.466284
O50   O     O_2   0.861160 0.561343 0.779735 -0.466283
O51   O     O_2   0.561342 0.138841 0.779736 -0.466280
O52   O     O_2   0.138840 0.438657 0.779735 -0.466283
O53   O     O_2   0.938657 0.638840 0.720265 -0.466283
O54   O     O_2   0.361159 0.938658 0.720264 -0.466280
O55   O     O_2   0.061343 0.361160 0.720265 -0.466282
O56   O     O_R   0.894290 0.438880 0.499870 -0.490462
O57   O     O_2   0.638838 0.061345 0.720266 -0.466284
O58   O     O_2   0.938655 0.361162 0.279734 -0.466284
O59   O     O_2   0.361160 0.061344 0.279735 -0.466282
O60   O     O_2   0.061342 0.638841 0.279736 -0.466280
O61   O     O_2   0.638839 0.938656 0.279735 -0.466283
O62   O     O_2   0.364482 0.073348 0.088003 -0.491519
O63   O     O_2   0.926651 0.364483 0.088003 -0.491519
O64   O     O_2   0.635517 0.926652 0.088003 -0.491519
O65   O     O_2   0.073350 0.635517 0.088004 -0.491518
O66   O     O_2   0.364483 0.926650 0.911996 -0.491518
O67   O     O_R   0.438880 0.105710 0.499870 -0.490463
O68   O     O_2   0.926651 0.635517 0.911996 -0.491518
O69   O     O_2   0.635517 0.073349 0.911997 -0.491519
O70   O     O_2   0.073349 0.364483 0.911996 -0.491518
O71   O     O_2   0.864483 0.573349 0.588003 -0.491518
O72   O     O_2   0.426651 0.864483 0.588003 -0.491519
O73   O     O_2   0.135517 0.426651 0.588004 -0.491518
O74   O     O_2   0.573350 0.135517 0.588004 -0.491518
O75   O     O_2   0.864483 0.426650 0.411996 -0.491518
O76   O     O_2   0.426652 0.135518 0.411997 -0.491519
O77   O     O_2   0.135517 0.573349 0.411997 -0.491519
O78   O     O_R   0.105710 0.561120 0.499870 -0.490462
O79   O     O_2   0.573348 0.864482 0.411996 -0.491518
O80   O     O_R   0.061120 0.605710 0.000130 -0.490463

loop_
_geom_bond_atom_site_label_1
_geom_bond_atom_site_label_2
_ccdc_geom_bond_type
C14   H6    S    
C17   C73   S    
C12   C69   S    
C77   C92   A    
C58   C128  S    
C18   C75   S    
C54   O22   A    
C96   O3    A    
C7    H31   S    
C15   O60   D    
C28   C84   S    
C58   C109  A    
C53   O21   A    
Cu6   O67   S    
C90   C99   A    
C33   H26   S    
C16   C72   S    
C15   C71   S    
Cu6   O11   S    
C47   O9    A    
Cu2   Cu12  S    
C27   O72   D    
C59   C77   A    
C3    H27   S    
C101  O28   A    
Cu5   O17   S    
C39   C41   S    
C67   C113  A    
C10   C67   S    
C1    O67   A    
Cu8   O22   S    
Cu9   Cu11  S    
C1    O1    A    
C52   O45   A    
C54   O25   A    
C20   C77   S    
C105  O43   A    
C101  C118  S    
C62   C80   A    
C19   C76   S    
C102  O29   A    
C22   C79   S    
Cu11  O21   S    
C107  O8    A    
C100  O31   A    
C50   C95   S    
C64   C112  A    
C55   O26   A    
C36   C108  S    
C107  O4    A    
C2    C102  S    
C78   C93   A    
C27   H19   S    
C20   O65   D    
C106  O38   A    
C28   H20   S    
C59   C110  A    
C47   C99   S    
Cu7   O56   S    
Cu10  O25   S    
C104  O40   A    
C28   O73   D    
C29   O74   D    
C33   O79   D    
C86   C97   A    
C9    C66   S    
C13   C40   T    
Cu1   O45   S    
Cu2   O35   S    
C101  O35   A    
C66   C83   A    
C103  O32   A    
C2    C39   T    
C35   C106  S    
C62   C111  A    
C57   C110  A    
C85   O6    A    
C63   O34   A    
Cu4   O40   S    
C21   C78   S    
Cu3   O37   S    
C19   H11   S    
C21   H14   S    
C41   O12   A    
C9    O54   D    
C82   C95   A    
C56   C126  S    
C23   C80   S    
C23   O69   D    
C11   H4    S    
C108  O41   A    
C69   C87   A    
C120  C123  T    
C49   O14   A    
C87   C98   A    
C48   O13   A    
C43   C74   S    
C5    O50   D    
C41   O56   A    
C70   C88   A    
C67   C84   A    
C11   O57   D    
C119  C124  T    
Cu1   O14   S    
C19   O64   D    
C25   C81   S    
C14   C70   S    
Cu1   O1    S    
Cu11  O4    S    
C52   O23   A    
C55   C91   S    
C30   C87   S    
Cu2   O33   S    
Cu3   O36   S    
Cu7   O15   S    
C22   O68   D    
C22   H15   S    
C106  O42   A    
C17   H9    S    
C121  C122  T    
C30   O75   D    
C113  C122  S    
C58   C76   A    
Cu6   O16   S    
C73   C91   A    
Cu10  O7    S    
Cu8   Cu10  S    
C20   H13   S    
C18   O63   D    
C3    O48   D    
C76   C91   A    
C70   C116  A    
C40   C52   S    
C53   C93   S    
Cu8   O5    S    
C128  H23   S    
C4    H28   S    
C50   O15   A    
Cu8   O18   S    
C111  C120  S    
C84   C95   A    
C12   H5    S    
C109  C117  S    
Cu9   O8    S    
C54   C92   S    
Cu12  O30   S    
C127  H12   S    
C72   C90   A    
C7    O52   D    
Cu5   O12   S    
C32   C89   S    
C71   C89   A    
C8    O53   D    
C33   C90   S    
C60   C78   A    
C46   C107  S    
C4    C60   S    
Cu3   O38   S    
C85   O2    A    
C29   C86   S    
C71   C115  A    
C36   C45   T    
Cu4   O43   S    
C64   C81   A    
C12   O58   D    
C35   C44   T    
C53   O19   A    
C128  O47   D    
C14   O59   D    
C51   O18   A    
C126  O44   D    
C1    C38   S    
C79   C94   A    
Cu7   O34   S    
C25   O70   D    
C68   C86   A    
C75   C92   A    
C26   O71   D    
C47   O11   A    
Cu6   O23   S    
C116  C125  S    
Cu3   O39   S    
C10   O55   D    
C96   O5    A    
C31   O76   D    
C50   O17   A    
C13   C103  S    
C114  C123  S    
C105  O37   A    
C44   C85   S    
C31   C88   S    
C56   C109  A    
C115  C124  S    
C108  O39   A    
Cu2   O32   S    
C11   C68   S    
Cu5   Cu7   S    
C6    O51   D    
C6    H30   S    
Cu9   O19   S    
C42   C63   S    
Cu1   O9    S    
C31   H24   S    
C69   C115  A    
C5    H29   S    
C56   C73   A    
C66   C114  A    
C24   C100  S    
C34   C105  S    
C65   C113  A    
Cu12  O27   S    
Cu10  O20   S    
C34   C43   T    
C74   O7    A    
C110  C119  S    
C57   C127  S    
C37   C104  S    
C74   O80   A    
C9    H2    S    
C25   H17   S    
C17   O62   D    
C48   O10   A    
C48   C98   S    
C72   C116  A    
C126  H1    S    
C89   C98   A    
C16   H8    S    
C6    C62   S    
C27   C83   S    
C37   C46   T    
C103  O30   A    
C112  C121  S    
Cu11  O6    S    
C18   H10   S    
Cu12  O29   S    
Cu9   O2    S    
C15   H7    S    
C81   C94   A    
C61   C112  A    
C57   C75   A    
C65   C82   A    
C49   O16   A    
C16   O61   D    
C61   C79   A    
C5    C61   S    
Cu11  O24   S    
C32   O77   D    
C32   H25   S    
C26   H18   S    
C10   H3    S    
C104  O36   A    
Cu12  O28   S    
Cu3   Cu4   S    
C55   O24   A    
C102  O33   A    
C7    C64   S    
C88   C99   A    
C24   C42   T    
C51   O20   A    
C51   C94   S    
C49   C97   S    
Cu1   Cu6   S    
C38   C118  T    
C100  O27   A    
C8    H32   S    
Cu5   O10   S    
C8    C65   S    
C63   O78   A    
Cu4   O42   S    
Cu9   O26   S    
C26   C82   S    
C83   C97   A    
C68   C114  A    
Cu10  O3    S    
C60   C111  A    
C30   H22   S    
Cu8   O80   S    
Cu4   O41   S    
C29   H21   S    
C80   C93   A    
C23   H16   S    
C45   C96   S    
C117  C125  T    
Cu5   O78   S    
Cu7   O13   S    
Cu2   O31   S    
C4    O49   D    
C127  O46   D    
C21   O66   D    
C3    C59   S    
