data_mof_unit_11991.cif
_audit_creation_date              2012-12-10T18:57:11-0500
_audit_creation_method            fapswitch 2.2
_symmetry_space_group_name_H-M    P1
_symmetry_Int_Tables_number       1
_space_group_crystal_system       triclinic
_cell_length_a                    10.801835
_cell_length_b                    9.804771
_cell_length_c                    10.686375
_cell_angle_alpha                 90.284316
_cell_angle_beta                  91.35162
_cell_angle_gamma                 90.448852
_cell_volume                      1131.42421082

loop_
_atom_site_label
_atom_site_type_symbol
_atom_type_description
_atom_site_fract_x
_atom_site_fract_y
_atom_site_fract_z
_atom_type_partial_charge
C1    C     C_R   0.259887 0.500159 0.502762 0.899540
C2    C     C_R   0.449011 0.621069 0.935509 0.039345
C3    C     C_R   0.476165 0.498209 0.127538 -0.079871
C4    C     C_R   0.465001 0.499271 0.869941 -0.118465
C5    C     C_R   0.461456 0.374063 0.062884 -0.239358
C6    C     C_R   0.456895 0.374467 0.933369 -0.216131
C7    C     C_3   0.514385 0.755800 0.926122 -0.019760
C8    C     C_3   0.532251 0.752514 0.068048 -0.017802
C9    C     C_R   0.062632 0.379234 0.499700 -0.260707
C10   C     C_R   0.935721 0.379931 0.497161 -0.267292
C11   C     C_R   0.872966 0.504147 0.495861 -0.203879
C12   C     C_R   0.740329 0.500983 0.497803 0.918812
C13   C     C_R   0.127665 0.502644 0.506161 -0.204711
C14   C     C_R   0.937854 0.629674 0.495086 0.364765
C15   C     C_R   0.065263 0.628337 0.511794 0.344972
C16   C     C_3   0.429473 0.870167 0.880189 -0.921330
C17   C     C_3   0.668636 0.738162 0.108392 -0.973710
C18   C     C_3   0.897410 0.816983 0.373879 0.136690
C19   C     C_3   0.809094 0.935792 0.356364 -0.836206
C20   C     C_3   0.146452 0.780685 0.654785 0.165240
C21   C     C_3   0.158953 0.934291 0.672258 -0.857639
C22   C     C_3   0.749254 0.928348 0.722047 0.129691
C23   C     C_R   0.574751 0.074144 0.581364 -0.255140
C24   C     C_3   0.838088 0.833587 0.791139 -0.821136
C25   C     C_3   0.260167 0.915770 0.267251 0.096353
C26   C     C_3   0.182307 0.813744 0.191087 -0.842933
C27   C     C_R   0.425145 0.071369 0.418383 -0.261719
C28   C     C_R   0.577479 0.928001 0.581338 0.471094
C29   C     C_R   0.423720 0.925020 0.417802 0.474021
C30   C     C_R   0.496780 0.499587 0.259472 0.880648
C31   C     C_R   0.492082 0.500157 0.739916 0.864194
C32   C     C_R   0.461207 0.620335 0.063268 0.091270
H1    H     H_    0.463218 0.277027 0.110951 0.166943
H2    H     H_    0.476643 0.970140 0.895116 0.239313
H3    H     H_    0.409361 0.857084 0.778681 0.268491
H4    H     H_    0.713500 0.653337 0.057550 0.243276
H5    H     H_    0.718651 0.834846 0.089318 0.246149
H6    H     H_    0.676596 0.717786 0.209833 0.275573
H7    H     H_    0.883057 0.744466 0.294121 0.113662
H8    H     H_    0.992544 0.859694 0.371387 0.187742
H9    H     H_    0.824764 0.984861 0.264611 0.201072
H10   H     H_    0.711845 0.899249 0.358638 0.260338
H11   H     H_    0.825321 0.012959 0.431381 0.238185
H12   H     H_    0.457882 0.277582 0.884193 0.170188
H13   H     H_    0.232840 0.731785 0.689709 0.151483
H14   H     H_    0.069651 0.743788 0.713494 0.111911
H15   H     H_    0.171430 0.959306 0.773216 0.205716
H16   H     H_    0.240286 0.973019 0.621234 0.251444
H17   H     H_    0.074203 0.985367 0.635628 0.257642
H18   H     H_    0.710214 0.998754 0.792640 0.113716
H19   H     H_    0.803825 0.986215 0.652675 0.151486
H20   H     H_    0.857045 0.742372 0.733284 0.284499
H21   H     H_    0.925781 0.889001 0.813816 0.203655
H22   H     H_    0.799471 0.799415 0.880576 0.217781
H23   H     H_    0.600235 0.747556 0.872739 0.233099
H24   H     H_    0.303079 0.987551 0.200268 0.112337
H25   H     H_    0.198130 0.971032 0.331661 0.151207
H26   H     H_    0.144767 0.733621 0.253022 0.264994
H27   H     H_    0.104232 0.866870 0.143234 0.193576
H28   H     H_    0.239673 0.764160 0.119441 0.244294
H29   H     H_    0.483286 0.834210 0.119096 0.206309
H30   H     H_    0.109515 0.281962 0.497150 0.187385
H31   H     H_    0.887010 0.282863 0.495423 0.183736
H32   H     H_    0.631581 0.134869 0.644988 0.139796
H33   H     H_    0.367728 0.129672 0.354627 0.139061
H34   H     H_    0.340702 0.870184 0.930649 0.233452
N1    N     N_R   0.500000 0.857200 0.500000 -0.149311
N2    N     N_R   0.500000 0.142810 0.500000 -0.091555
O1    O     O_R   0.316770 0.614620 0.499990 -0.548072
O2    O     O_3   0.127446 0.751738 0.526015 -0.587778
O3    O     O_3   0.653607 0.851531 0.661527 -0.561505
O4    O     O_3   0.352200 0.844484 0.335385 -0.557769
O5    O     O_R   0.683230 0.614620 0.500010 -0.533894
O6    O     O_R   0.316800 0.385290 0.500000 -0.634200
O7    O     O_R   0.683200 0.385290 0.500000 -0.634399
O8    O     O_R   0.500000 0.614690 0.316780 -0.584265
O9    O     O_R   0.500000 0.614690 0.683220 -0.597330
O10   O     O_R   0.500020 0.385360 0.316780 -0.631531
O11   O     O_R   0.499980 0.385360 0.683220 -0.627053
O12   O     O_3   0.876445 0.753568 0.490172 -0.565991
Zn1   Zn    Zn3+2 0.500000 0.653120 0.500000 1.041978
Zn2   Zn    Zn3+2 0.500000 0.346880 0.500000 0.934319

loop_
_geom_bond_atom_site_label_1
_geom_bond_atom_site_label_2
_ccdc_geom_bond_type
C24   H20   S    
C27   C29   A    
C2    C7    S    
C25   H24   S    
C7    H23   S    
C21   H17   S    
C7    C8    S    
C1    O6    A    
C16   H3    S    
C5    C6    A    
C11   C14   A    
C24   H22   S    
C2    C32   A    
C18   C19   S    
C9    C13   A    
C18   H8    S    
C27   N2    A    
C16   H2    S    
C29   N1    A    
C10   H31   S    
C5    H1    S    
C17   H4    S    
C14   O12   S    
C26   H27   S    
C20   H13   S    
C19   H10   S    
C8    H29   S    
C22   H18   S    
C21   H16   S    
C6    H12   S    
C12   O5    A    
C20   O2    S    
C25   H25   S    
O6    Zn2   S    
O5    Zn1   S    
C19   H11   S    
C31   O9    A    
C9    H30   S    
C8    C32   S    
C28   N1    A    
C4    C6    A    
C25   C26   S    
C1    O1    A    
C23   N2    A    
C3    C30   S    
C2    C4    A    
C18   H7    S    
C27   H33   S    
C30   O8    A    
O10   Zn2   S    
O9    Zn1   S    
C25   O4    S    
C17   H5    S    
C23   C28   A    
C26   H26   S    
C7    C16   S    
N1    Zn1   S    
C13   C15   A    
C22   C24   S    
C28   O3    S    
C16   H34   S    
C22   O3    S    
C9    C10   A    
C15   O2    S    
C23   H32   S    
C3    C5    A    
O8    Zn1   S    
O11   Zn2   S    
C11   C12   S    
O7    Zn2   S    
C31   O11   A    
C8    C17   S    
N2    Zn2   S    
C29   O4    S    
C24   H21   S    
C17   H6    S    
C3    C32   A    
C4    C31   S    
O1    Zn1   S    
C10   C11   A    
C30   O10   A    
C1    C13   S    
C20   C21   S    
C18   O12   S    
C12   O7    A    
C14   C15   A    
C26   H28   S    
C20   H14   S    
C19   H9    S    
C22   H19   S    
C21   H15   S    
