data_mof_unit_35482.cif
_audit_creation_date              2012-12-10T16:44:40-0500
_audit_creation_method            fapswitch 2.2
_symmetry_space_group_name_H-M    P1
_symmetry_Int_Tables_number       1
_space_group_crystal_system       triclinic
_cell_length_a                    15.017945
_cell_length_b                    8.666711
_cell_length_c                    7.446669
_cell_angle_alpha                 102.999886
_cell_angle_beta                  93.918405
_cell_angle_gamma                 92.39292
_cell_volume                      940.553372211

loop_
_atom_site_label
_atom_site_type_symbol
_atom_type_description
_atom_site_fract_x
_atom_site_fract_y
_atom_site_fract_z
_atom_type_partial_charge
C1    C     C_R   0.497035 0.199696 0.453238 0.867684
C2    C     C_R   0.502962 0.800304 0.546762 0.867720
C3    C     C_R   0.038342 0.225311 0.324381 0.178923
C4    C     C_R   0.961647 0.774834 0.675242 0.178901
C5    C     C_2   0.495891 0.031707 0.426916 -0.369849
C6    C     C_2   0.504104 0.968292 0.573084 -0.369823
C7    C     C_R   0.329382 0.503137 0.503341 0.808524
C8    C     C_R   0.670618 0.496885 0.496661 0.808518
C9    C     C_R   0.817277 0.628941 0.579503 -0.294054
C10   C     C_R   0.182718 0.371132 0.420361 -0.294023
C11   C     C_R   0.766536 0.491980 0.490161 -0.051994
C12   C     C_R   0.233464 0.508058 0.509824 -0.052014
C13   C     C_R   0.807049 0.353984 0.403063 0.135188
C14   C     C_R   0.192950 0.646071 0.596875 0.135222
C15   C     C_R   0.901423 0.357894 0.405863 0.068665
C16   C     C_R   0.098571 0.642212 0.593894 0.068683
C17   C     C_R   0.952929 0.498328 0.497457 -0.017535
C18   C     C_R   0.047064 0.501781 0.502285 -0.017542
C19   C     C_R   0.910361 0.635101 0.584608 0.109584
C20   C     C_R   0.089632 0.365006 0.415141 0.109558
C21   C     C_R   0.945385 0.223873 0.320414 -0.204026
C22   C     C_R   0.054604 0.776280 0.679187 -0.204039
Cu1   Cu    Cu3+1 0.510010 0.517380 0.684380 0.953047
Cu2   Cu    Cu3+1 0.489990 0.482620 0.315620 0.953081
H1    H     H_    0.782458 0.731049 0.644935 0.155893
H2    H     H_    0.217537 0.269022 0.354929 0.155901
H3    H     H_    0.907836 0.115828 0.248980 0.160702
H4    H     H_    0.092150 0.884372 0.750485 0.160714
H5    H     H_    0.488396 0.959938 0.286132 0.181583
H6    H     H_    0.511599 0.040062 0.713868 0.181574
H7    H     H_    0.430107 0.377866 0.948624 0.227457
H8    H     H_    0.569893 0.622133 0.051376 0.227455
N1    N     N_2   0.474890 0.456420 0.038520 -0.213648
N2    N     N_2   0.525110 0.543580 0.961480 -0.213653
O1    O     O_R   0.506510 0.286130 0.619770 -0.581351
O2    O     O_R   0.493490 0.713870 0.380230 -0.581348
O3    O     O_R   0.489600 0.256770 0.308360 -0.590842
O4    O     O_R   0.510400 0.743230 0.691640 -0.590892
O5    O     O_R   0.378710 0.514640 0.655720 -0.584953
O6    O     O_R   0.621290 0.485360 0.344280 -0.584884
O7    O     O_R   0.361800 0.485290 0.344300 -0.576978
O8    O     O_R   0.638200 0.514710 0.655700 -0.576995
C23   C     C_3   0.751066 0.202403 0.313999 -0.872648
H9    H     H_    0.771934 0.105045 0.379401 0.220636
H10   H     H_    0.678635 0.211197 0.329103 0.237573
H11   H     H_    0.760052 0.169437 0.163675 0.235039
C24   C     C_3   0.248934 0.797626 0.686071 -0.872823
H12   H     H_    0.228281 0.894883 0.620282 0.220685
H13   H     H_    0.239697 0.830829 0.836284 0.234983
H14   H     H_    0.321401 0.788676 0.671579 0.237737
C25   C     C_3   0.080800 0.075982 0.231145 -0.888456
H15   H     H_    0.030227 0.978028 0.168644 0.240252
H16   H     H_    0.120353 0.099881 0.118660 0.229874
H17   H     H_    0.124926 0.034071 0.333988 0.235673
C26   C     C_3   0.919187 0.924189 0.768379 -0.888456
H18   H     H_    0.969757 0.022179 0.830748 0.240252
H19   H     H_    0.875029 0.966003 0.665510 0.235679
H20   H     H_    0.879666 0.900374 0.880947 0.229866

loop_
_geom_bond_atom_site_label_1
_geom_bond_atom_site_label_2
_ccdc_geom_bond_type
C15   C21   A    
C26   H18   S    
H7    N1    S    
C14   C24   S    
Cu2   N1    S    
Cu1   O4    S    
C4    C22   A    
C2    O4    A    
Cu1   O1    S    
C24   H12   S    
C1    C5    S    
C1    O3    A    
Cu1   Cu2   S    
C25   H17   S    
C10   H2    S    
C26   H19   S    
Cu2   O3    S    
C21   H3    S    
C9    H1    S    
C3    C20   A    
C24   H13   S    
C22   H4    S    
Cu2   O7    S    
C11   C13   A    
C9    C11   A    
Cu2   O2    S    
Cu1   O8    S    
C10   C12   A    
C8    C11   S    
Cu1   O5    S    
C17   C19   A    
C12   C14   A    
C17   C18   A    
C24   H14   S    
C18   C20   A    
C13   C15   A    
C23   H9    S    
C5    C6    D    
C23   H11   S    
C14   C16   A    
C7    C12   S    
C3    C21   A    
C3    C25   S    
C8    O8    A    
C25   H15   S    
C5    H5    S    
C13   C23   S    
N1    N2    D    
C1    O1    A    
C16   C18   A    
C9    C19   A    
C26   H20   S    
C2    O2    A    
C4    C26   S    
C15   C17   A    
C7    O5    A    
Cu1   N2    S    
C16   C22   A    
C8    O6    A    
Cu2   O6    S    
C4    C19   A    
C23   H10   S    
C6    H6    S    
C2    C6    S    
C7    O7    A    
C10   C20   A    
C25   H16   S    
H8    N2    S    
