data_mof_unit_33919.cif
_audit_creation_date              2012-12-10T16:55:04-0500
_audit_creation_method            fapswitch 2.2
_symmetry_space_group_name_H-M    P1
_symmetry_Int_Tables_number       1
_space_group_crystal_system       triclinic
_cell_length_a                    9.692123
_cell_length_b                    10.922095
_cell_length_c                    15.407574
_cell_angle_alpha                 89.889898
_cell_angle_beta                  73.982235
_cell_angle_gamma                 90.059608
_cell_volume                      1567.69202707

loop_
_atom_site_label
_atom_site_type_symbol
_atom_type_description
_atom_site_fract_x
_atom_site_fract_y
_atom_site_fract_z
_atom_type_partial_charge
C1    C     C_R   0.998648 0.265408 0.502982 0.851418
C2    C     C_R   0.671418 0.505969 0.907222 0.088913
C3    C     C_R   0.763955 0.551045 0.956944 0.061402
C4    C     C_R   0.522647 0.486514 0.950879 0.041022
C5    C     C_R   0.478181 0.483814 0.047314 -0.034258
C6    C     C_R   0.584833 0.492559 0.095110 -0.035888
C7    C     C_R   0.720544 0.538506 0.050844 -0.214180
C8    C     C_R   0.415623 0.472626 0.902993 0.167973
C9    C     C_R   0.276708 0.436071 0.949732 -0.168451
C10   C     C_R   0.231064 0.440656 0.043395 0.124144
C11   C     C_R   0.328846 0.474570 0.092191 0.109581
C12   C     C_R   0.917126 0.501462 0.672339 0.796949
C13   C     C_R   0.085328 0.422210 0.088358 -0.176300
C14   C     C_R   0.034913 0.441854 0.181135 -0.157242
C15   C     C_R   0.272319 0.506964 0.183232 -0.155419
C16   C     C_2   0.890614 0.933063 0.505374 -0.221811
C17   C     C_2   0.010652 0.865416 0.474976 -0.158947
C18   C     C_2   0.888077 0.066620 0.499046 -0.102894
C19   C     C_2   0.996446 0.133644 0.511538 -0.276732
C20   C     C_2   0.398132 0.432650 0.554399 -0.065911
C21   C     C_2   0.555142 0.428210 0.551230 -0.057801
C22   C     C_R   0.002414 0.734649 0.494758 0.787471
C23   C     C_R   0.082910 0.498130 0.327571 0.812478
C24   C     C_R   0.871203 0.512576 0.770924 -0.075743
C25   C     C_R   0.128621 0.485088 0.228950 -0.066370
C26   C     C_R   0.903841 0.593646 0.910905 -0.027454
C27   C     C_R   0.955676 0.573466 0.817528 -0.248650
C28   C     C_R   0.733190 0.474709 0.816835 -0.238972
Cu1   Cu    Cu3+1 0.138640 0.500020 0.499980 0.985257
Cu2   Cu    Cu3+1 0.861360 0.499980 0.500020 0.972040
H1    H     H_    0.798144 0.549819 0.088973 0.198295
H2    H     H_    0.010218 0.394017 0.051539 0.131742
H3    H     H_    0.789818 0.889618 0.540801 0.172420
H4    H     H_    0.792887 0.109622 0.488622 0.173929
H5    H     H_    0.087062 0.090710 0.528057 0.150599
H6    H     H_    0.324985 0.375405 0.604044 0.149033
H7    H     H_    0.415481 0.548915 0.451185 0.225475
H8    H     H_    0.587136 0.362700 0.594980 0.143635
H9    H     H_    0.622511 0.564442 0.462285 0.218002
H10   H     H_    0.338680 0.551820 0.219518 0.156703
H11   H     H_    0.923153 0.423951 0.215167 0.191688
H12   H     H_    0.198571 0.418411 0.912531 0.151218
H13   H     H_    0.060292 0.608033 0.780544 0.181359
H14   H     H_    0.675826 0.418353 0.781080 0.162851
N1    N     N_2   0.346430 0.498660 0.500980 -0.270459
N2    N     N_2   0.652550 0.498630 0.501000 -0.266921
O1    O     O_R   0.117050 0.321960 0.499980 -0.573933
O2    O     O_R   0.882890 0.321920 0.500020 -0.579727
O3    O     O_R   0.052910 0.500040 0.629810 -0.582954
O4    O     O_R   0.818750 0.499990 0.629840 -0.579486
O5    O     O_R   0.117110 0.678080 0.499980 -0.537077
O6    O     O_R   0.882950 0.678040 0.500020 -0.576592
O7    O     O_R   0.181250 0.500010 0.370160 -0.567690
O8    O     O_R   0.947090 0.499960 0.370190 -0.562011
C29   C     C_2   0.145422 0.913899 0.411635 0.845808
O9    O     O_2   0.262187 0.874744 0.414640 -0.581142
O10   O     O_R   0.138269 0.001470 0.346624 -0.735826
H15   H     H_    0.236573 0.026691 0.307588 0.344139
C30   C     C_2   0.993052 0.667721 0.956252 0.820808
O11   O     O_2   0.122923 0.674554 0.923275 -0.609352
O12   O     O_R   0.928491 0.735304 0.033820 -0.747340
H16   H     H_    0.000764 0.782283 0.057499 0.348538
C31   C     C_2   0.566505 0.438793 0.186495 0.815131
O13   O     O_2   0.627054 0.484704 0.238462 -0.612303
O14   O     O_R   0.482595 0.333605 0.212237 -0.745113
H17   H     H_    0.477897 0.306038 0.275866 0.342164
C32   C     C_3   0.433958 0.513244 0.806428 -0.820469
H18   H     H_    0.517911 0.584684 0.784929 0.248780
H19   H     H_    0.456388 0.433120 0.760533 0.202368
H20   H     H_    0.333935 0.556400 0.799236 0.258089

loop_
_geom_bond_atom_site_label_1
_geom_bond_atom_site_label_2
_ccdc_geom_bond_type
C6    C31   S    
C8    C9    A    
C2    C4    A    
C29   O9    D    
C31   O14   S    
C1    O2    A    
C23   O7    A    
Cu1   Cu2   S    
C12   C24   S    
C16   H3    S    
C3    C26   A    
C18   H4    S    
C26   C30   S    
C17   C29   S    
C13   H2    S    
C12   O4    A    
C17   C22   S    
C24   C27   A    
Cu2   N2    S    
C4    C8    A    
C32   H20   S    
O12   H16   S    
C29   O10   S    
C2    C3    A    
Cu2   O4    S    
C30   O11   D    
C21   N2    D    
Cu1   O3    S    
C13   C14   A    
C20   N1    D    
Cu2   O8    S    
Cu1   N1    S    
C9    H12   S    
C6    C7    A    
Cu1   O7    S    
Cu1   O1    S    
H9    N2    S    
C16   C18   S    
Cu1   O5    S    
C5    C11   A    
C3    C7    A    
C23   O8    A    
C23   C25   S    
C14   C25   A    
C26   C27   A    
C5    C6    A    
C14   H11   S    
C15   H10   S    
C15   C25   A    
C12   O3    A    
C7    H1    S    
C10   C11   A    
H7    N1    S    
C32   H18   S    
C20   H6    S    
C27   H13   S    
C20   C21   S    
C8    C32   S    
C22   O6    A    
O14   H17   S    
C9    C10   A    
C30   O12   S    
Cu2   O2    S    
C19   H5    S    
Cu2   O6    S    
C18   C19   D    
C2    C28   A    
O10   H15   S    
C1    C19   S    
C11   C15   A    
C28   H14   S    
C22   O5    A    
C1    O1    A    
C21   H8    S    
C31   O13   D    
C16   C17   D    
C24   C28   A    
C4    C5    A    
C32   H19   S    
C10   C13   A    
