data_mof_unit_46548.cif
_audit_creation_date              2012-10-26T19:41:52-0400
_audit_creation_method            fapswitch 2.2
_symmetry_space_group_name_H-M    P1
_symmetry_Int_Tables_number       1
_space_group_crystal_system       triclinic
_cell_length_a                    10.635207
_cell_length_b                    10.875568
_cell_length_c                    9.58907
_cell_angle_alpha                 91.322131
_cell_angle_beta                  89.466273
_cell_angle_gamma                 94.227405
_cell_volume                      1105.76515671

loop_
_atom_site_label
_atom_site_type_symbol
_atom_type_description
_atom_site_fract_x
_atom_site_fract_y
_atom_site_fract_z
_atom_type_partial_charge
C1    C     C_R   0.488976 0.262083 0.498707 0.578058
C2    C     C_R   0.430528 0.061329 0.615292 0.046383
C3    C     C_R   0.473879 0.126987 0.496292 0.014309
C4    C     C_R   0.259463 0.502169 0.500323 0.593096
C5    C     C_R   0.521459 0.063318 0.381470 -0.136096
C6    C     C_R   0.530923 0.937292 0.386108 -0.135185
C7    C     C_R   0.504802 0.873874 0.509982 -0.000573
C8    C     C_R   0.673712 0.662041 0.146632 -0.084873
C9    C     C_R   0.759918 0.740293 0.075556 0.048179
C10   C     C_R   0.759924 0.740095 0.931580 -0.147599
C11   C     C_R   0.673961 0.661700 0.858138 -0.133577
C12   C     C_3   0.961276 0.520273 0.367546 -0.096887
C13   C     C_R   0.585750 0.579353 0.926330 0.144751
C14   C     C_R   0.585621 0.579473 0.075960 0.136740
C15   C     C_R   0.418797 0.424107 0.072915 0.008503
C16   C     C_R   0.503889 0.738527 0.502734 0.530107
C17   C     C_R   0.418663 0.424484 0.925157 0.009314
C18   C     C_R   0.740614 0.503255 0.499429 0.547361
C19   C     C_3   0.037763 0.491034 0.630373 -0.115648
C20   C     C_3   0.948212 0.398050 0.547443 -0.085061
C21   C     C_3   0.877440 0.506224 0.497996 0.014814
C22   C     C_3   0.964606 0.599334 0.580575 -0.134819
C23   C     C_3   0.034159 0.412363 0.417494 0.112525
C24   C     C_3   0.051305 0.612847 0.450362 -0.134988
C25   C     C_3   0.122354 0.504341 0.500104 0.040599
C26   C     C_R   0.350902 0.110552 0.718235 0.100380
C27   C     C_R   0.341281 0.059840 0.850314 -0.092705
C28   C     C_R   0.402162 0.954820 0.877470 -0.133258
C29   C     C_R   0.460318 0.892968 0.768720 -0.099128
C30   C     C_R   0.466784 0.940447 0.631797 0.014023
Cu1   Cu    Cu3+1 0.499990 0.499990 0.640660 0.951984
Cu2   Cu    Cu3+1 0.500010 0.500010 0.359340 0.962396
H1    H     H_    0.903290 0.310049 0.586831 0.158813
H2    H     H_    0.070944 0.479535 0.738405 0.157926
H3    H     H_    0.932772 0.676065 0.647226 0.127967
H4    H     H_    0.096304 0.700717 0.410748 0.158331
H5    H     H_    0.927428 0.532392 0.259879 0.158329
H6    H     H_    0.552773 0.111130 0.288066 0.153828
H7    H     H_    0.281931 0.098389 0.929945 0.150425
H8    H     H_    0.397232 0.916489 0.980794 0.132189
H9    H     H_    0.502887 0.811695 0.798063 0.155733
H10   H     H_    0.562673 0.889940 0.293082 0.151569
H11   H     H_    0.352425 0.361683 0.127207 0.147670
H12   H     H_    0.679517 0.670687 0.256840 0.190554
H13   H     H_    0.825736 0.802269 0.875850 0.153168
H14   H     H_    0.677689 0.672473 0.748261 0.177637
H15   H     H_    0.351858 0.362854 0.869703 0.145708
I1    I     I_    0.889171 0.860998 0.187465 -0.397337
I2    I     I_    0.084178 0.265564 0.280352 -0.324335
I3    I     I_    0.200900 0.215144 0.664090 -0.381242
N1    N     N_R   0.501210 0.501210 0.147910 -0.246489
N2    N     N_R   0.501250 0.501290 0.852040 -0.242373
O1    O     O_R   0.499990 0.319640 0.618810 -0.483366
O2    O     O_R   0.500000 0.319660 0.381240 -0.495543
O3    O     O_R   0.316850 0.499960 0.618770 -0.489791
O4    O     O_R   0.316860 0.499980 0.381190 -0.482769
O5    O     O_R   0.500000 0.680340 0.618760 -0.540199
O6    O     O_R   0.500010 0.680360 0.381190 -0.524404
O7    O     O_R   0.683140 0.500020 0.618810 -0.515868
O8    O     O_R   0.683150 0.500040 0.381230 -0.519257

loop_
_geom_bond_atom_site_label_1
_geom_bond_atom_site_label_2
_ccdc_geom_bond_type
C8    C14   A    
C1    O2    A    
C19   H2    S    
Cu2   N1    S    
C6    C7    A    
C15   N1    A    
C13   N2    A    
C17   H15   S    
C9    C10   A    
C12   C24   S    
C19   C20   S    
C20   C23   S    
Cu2   O6    S    
Cu1   N2    S    
C2    C30   A    
C29   H9    S    
Cu1   O5    S    
C10   H13   S    
C23   C25   S    
C2    C3    A    
C3    C5    A    
C15   H11   S    
C2    C26   A    
C7    C30   A    
C16   O6    A    
C21   C22   S    
C4    O4    A    
C22   H3    S    
C11   C13   A    
C12   C23   S    
C26   C27   A    
C24   H4    S    
C20   H1    S    
C17   N2    A    
Cu2   O2    S    
C7    C16   S    
C4    C25   S    
C16   O5    A    
C26   I3    S    
C4    O3    A    
C5    C6    A    
C19   C25   S    
C22   C24   S    
C23   I2    S    
C10   C11   A    
Cu2   O8    S    
C29   C30   A    
C18   C21   S    
C8    H12   S    
C18   O7    A    
C27   C28   A    
C19   C22   S    
C24   C25   S    
C9    I1    S    
C6    H10   S    
C18   O8    A    
C12   H5    S    
C15   C17   A    
C28   H8    S    
C28   C29   A    
C11   H14   S    
C1    O1    A    
C13   C14   A    
Cu1   O3    S    
C20   C21   S    
C5    H6    S    
C12   C21   S    
Cu2   O4    S    
Cu1   Cu2   S    
Cu1   O1    S    
C14   N1    A    
C27   H7    S    
C8    C9    A    
C1    C3    S    
Cu1   O7    S    
