data_mof_unit_54310.cif
_audit_creation_date              2012-12-10T17:35:38-0500
_audit_creation_method            fapswitch 2.2
_symmetry_space_group_name_H-M    P1
_symmetry_Int_Tables_number       1
_space_group_crystal_system       triclinic
_cell_length_a                    10.705136
_cell_length_b                    12.307751
_cell_length_c                    13.073025
_cell_angle_alpha                 116.591232
_cell_angle_beta                  77.321945
_cell_angle_gamma                 101.312036
_cell_volume                      1493.20817362

loop_
_atom_site_label
_atom_site_type_symbol
_atom_type_description
_atom_site_fract_x
_atom_site_fract_y
_atom_site_fract_z
_atom_type_partial_charge
C1    C     C_R   0.512542 0.854626 0.285133 0.776661
C2    C     C_3   0.122186 0.001499 0.500596 0.168214
C3    C     C_3   0.043342 0.015190 0.619680 -0.387495
C4    C     C_3   0.070873 0.880141 0.404788 -0.376589
C5    C     C_R   0.356303 0.270058 0.032005 -0.208300
C6    C     C_R   0.466131 0.226026 0.837567 -0.057432
C7    C     C_R   0.616051 0.805568 0.077956 0.075716
C8    C     C_R   0.692326 0.718494 0.990527 -0.202099
C9    C     C_R   0.667691 0.595070 0.970176 0.065335
C10   C     C_R   0.549493 0.555587 0.025961 0.048785
C11   C     C_R   0.485179 0.644290 0.126661 0.038051
C12   C     C_R   0.740013 0.999943 0.500074 0.752207
C13   C     C_R   0.495046 0.431831 0.988819 0.073264
C14   C     C_R   0.401676 0.394185 0.065208 0.166132
C15   C     C_R   0.345775 0.481890 0.168203 -0.237166
C16   C     C_R   0.379333 0.605041 0.193279 -0.173909
C17   C     C_R   0.517286 0.348399 0.873128 -0.253014
C18   C     C_R   0.391131 0.185509 0.918857 -0.208429
C19   C     C_R   0.529370 0.770200 0.159889 -0.166815
C20   C     C_R   0.704383 0.345461 0.325345 -0.306269
C21   C     C_R   0.325298 0.759597 0.646406 0.069249
C22   C     C_R   0.287037 0.662809 0.678230 -0.268916
C23   C     C_R   0.482478 0.144921 0.714095 0.795859
C24   C     C_R   0.352337 0.559092 0.622629 -0.195166
C25   C     C_R   0.457573 0.550941 0.533982 -0.006070
C26   C     C_R   0.493322 0.652679 0.504352 0.292762
C27   C     C_R   0.528814 0.446421 0.474044 -0.038505
C28   C     C_R   0.632861 0.445675 0.385444 0.183199
C29   C     C_R   0.665782 0.545241 0.357723 -0.295476
C30   C     C_R   0.598393 0.646602 0.416401 -0.187500
C31   C     C_R   0.502169 0.341880 0.497881 0.015440
C32   C     C_R   0.673762 0.246287 0.353541 0.059265
C33   C     C_R   0.260022 0.000799 0.500585 0.748678
C34   C     C_3   0.959278 0.109208 0.477437 -0.368461
C35   C     C_3   0.102269 0.109538 0.477241 -0.375082
C36   C     C_3   0.899007 0.013890 0.619286 -0.373769
C37   C     C_3   0.926699 0.879622 0.404627 -0.394838
C38   C     C_3   0.878146 0.000541 0.500373 0.165825
Cu1   Cu    Cu3+1 0.529690 0.098270 0.475420 0.912790
Cu2   Cu    Cu3+1 0.470310 0.901730 0.524580 0.911458
H1    H     H_    0.926750 0.197546 0.545418 0.169474
H2    H     H_    0.083739 0.800809 0.419352 0.169110
H3    H     H_    0.843003 0.936694 0.637787 0.175289
H4    H     H_    0.055984 0.939197 0.639328 0.166098
H5    H     H_    0.351064 0.090731 0.892948 0.149567
H6    H     H_    0.268345 0.455352 0.224411 0.138981
H7    H     H_    0.288545 0.239619 0.091324 0.129151
H8    H     H_    0.563576 0.380730 0.808346 0.155202
H9    H     H_    0.775277 0.748176 0.941044 0.128886
H10   H     H_    0.946256 0.102224 0.392392 0.162248
H11   H     H_    0.320908 0.669059 0.265395 0.160494
H12   H     H_    0.728835 0.168826 0.307817 0.114746
H13   H     H_    0.745556 0.545417 0.290294 0.143078
H14   H     H_    0.783817 0.344092 0.257282 0.132169
H15   H     H_    0.424627 0.334275 0.563333 0.120843
H16   H     H_    0.274132 0.839768 0.690118 0.118335
H17   H     H_    0.318425 0.486945 0.650715 0.130727
H18   H     H_    0.206453 0.668178 0.746241 0.136486
H19   H     H_    0.632990 0.718487 0.389774 0.204076
H20   H     H_    0.157396 0.102091 0.391964 0.169310
H21   H     H_    0.138381 0.198126 0.544812 0.163163
H22   H     H_    0.863758 0.099855 0.689324 0.146268
H23   H     H_    0.078424 0.102340 0.689413 0.150859
H24   H     H_    0.912204 0.868253 0.318474 0.146190
N1    N     N_R   0.574690 0.246280 0.438200 -0.177002
N2    N     N_R   0.426100 0.754320 0.561190 -0.202866
O1    O     O_R   0.537340 0.972510 0.318130 -0.587331
O2    O     O_R   0.487200 0.806530 0.359650 -0.589871
O3    O     O_R   0.707380 0.082980 0.479220 -0.587244
O4    O     O_R   0.657240 0.917000 0.520740 -0.601449
O5    O     O_R   0.512800 0.193470 0.640350 -0.584715
O6    O     O_R   0.462660 0.027490 0.681870 -0.585330
O7    O     O_R   0.342760 0.083000 0.479260 -0.589695
O8    O     O_R   0.292620 0.917020 0.520780 -0.595622
C39   C     C_3   0.637419 0.934851 0.085644 -0.388912
C40   C     C_3   0.632452 0.937186 0.969811 -0.366970
C41   C     C_3   0.642358 0.068191 0.982742 -0.843135
H25   H     H_    0.560249 0.115031 0.045259 0.261461
H26   H     H_    0.734172 0.120379 0.013484 0.247572
H27   H     H_    0.640071 0.066966 0.897681 0.250020
H28   H     H_    0.713241 0.892514 0.903484 0.214424
H29   H     H_    0.540246 0.886912 0.938341 0.229164
H30   H     H_    0.560626 0.989386 0.148034 0.230500
H31   H     H_    0.732209 0.979564 0.114201 0.182271
C42   C     C_3   0.778073 0.516162 0.904436 -0.408758
C43   C     C_3   0.816751 0.462962 0.977791 -0.326097
C44   C     C_3   0.933798 0.392618 0.915120 -0.874909
H32   H     H_    0.958013 0.353644 0.969326 0.240739
H33   H     H_    0.018295 0.454486 0.898810 0.252947
H34   H     H_    0.912741 0.316585 0.831398 0.249648
H35   H     H_    0.840140 0.538320 0.061281 0.211759
H36   H     H_    0.736138 0.399580 0.996969 0.230022
H37   H     H_    0.757576 0.442714 0.820093 0.189801
H38   H     H_    0.864551 0.572709 0.882006 0.188825
H39   H     H_    0.870926 0.800116 0.419211 0.167984
H40   H     H_    0.126359 0.868942 0.318656 0.144432

loop_
_geom_bond_atom_site_label_1
_geom_bond_atom_site_label_2
_ccdc_geom_bond_type
C2    C35   S    
C44   H32   S    
C21   N2    A    
C16   H11   S    
C12   O3    A    
C7    C8    A    
C41   H25   S    
C5    H7    S    
C11   C19   A    
C29   C30   A    
Cu2   O4    S    
C28   C29   A    
C43   H35   S    
C39   H31   S    
C15   C16   A    
C1    O2    A    
C37   H39   S    
C34   C35   S    
C11   C16   A    
C32   H12   S    
C9    C42   S    
C4    H40   S    
C42   H37   S    
C8    C9    A    
C17   H8    S    
C9    C10   A    
Cu2   N2    S    
C21   C22   A    
Cu1   N1    S    
C34   H1    S    
C36   H22   S    
C41   H26   S    
C6    C18   A    
C3    H4    S    
C34   H10   S    
C1    C19   S    
C27   C31   A    
C26   N2    A    
C23   O5    A    
C24   C25   A    
C20   H14   S    
C40   H29   S    
Cu1   Cu2   S    
C43   C44   S    
C24   H17   S    
C7    C39   S    
C5    C18   A    
C20   C28   A    
C25   C26   A    
C42   C43   S    
C35   H20   S    
C29   H13   S    
C2    C4    S    
C39   C40   S    
C37   C38   S    
C42   H38   S    
C30   H19   S    
Cu1   O3    S    
C35   H21   S    
C40   C41   S    
C5    C14   A    
C2    C33   S    
C33   O7    A    
C26   C30   A    
C7    C19   A    
C44   H33   S    
C22   C24   A    
C18   H5    S    
C37   H24   S    
C20   C32   A    
C41   H27   S    
C31   N1    A    
C6    C17   A    
C12   O4    A    
Cu2   O6    S    
C34   C38   S    
Cu1   O1    S    
C23   O6    A    
C10   C13   A    
C40   H28   S    
C22   H18   S    
C21   H16   S    
C3    H23   S    
C25   C27   A    
C13   C17   A    
C36   C38   S    
C2    C3    S    
C43   H36   S    
C39   H30   S    
C4    H2    S    
C3    C36   S    
C6    C23   S    
C1    O1    A    
Cu2   O8    S    
Cu1   O7    S    
C12   C38   S    
C10   C11   A    
C33   O8    A    
C4    C37   S    
Cu2   O2    S    
C44   H34   S    
C27   C28   A    
Cu1   O5    S    
C14   C15   A    
C36   H3    S    
C15   H6    S    
C31   H15   S    
C13   C14   A    
C8    H9    S    
C32   N1    A    
