data_mof_unit_12779.cif
_audit_creation_date              2012-10-26T17:13:03-0400
_audit_creation_method            fapswitch 2.2
_symmetry_space_group_name_H-M    P1
_symmetry_Int_Tables_number       1
_space_group_crystal_system       triclinic
_cell_length_a                    16.978325
_cell_length_b                    16.877553
_cell_length_c                    16.691703
_cell_angle_alpha                 67.833551
_cell_angle_beta                  67.974059
_cell_angle_gamma                 68.70643
_cell_volume                      3967.03166474

loop_
_atom_site_label
_atom_site_type_symbol
_atom_type_description
_atom_site_fract_x
_atom_site_fract_y
_atom_site_fract_z
_atom_type_partial_charge
C1    C     C_R   0.319100 0.972040 0.447679 0.007344
C2    C     C_R   0.309207 0.427534 0.014364 0.007649
C3    C     C_R   0.543939 0.427814 0.962078 -0.048337
C4    C     C_R   0.999972 0.462718 0.590970 -0.061361
C5    C     C_R   0.000028 0.537282 0.409030 -0.061361
C6    C     C_3   0.398208 0.141638 0.750559 -0.303060
C7    C     C_3   0.601792 0.858362 0.249441 -0.303060
C8    C     C_3   0.950036 0.777494 0.444736 -0.332299
C9    C     C_3   0.049964 0.222506 0.555264 -0.332299
C10   C     C_3   0.817322 0.521026 0.858813 -0.295706
C11   C     C_3   0.182678 0.478974 0.141187 -0.295706
C12   C     C_3   0.216007 0.088769 0.516794 -0.347693
C13   C     C_R   0.044771 0.676247 0.544116 0.003902
C14   C     C_3   0.783993 0.911231 0.483206 -0.347693
C15   C     C_3   0.578495 0.265695 0.835605 -0.297676
C16   C     C_3   0.421505 0.734305 0.164395 -0.297676
C17   C     C_3   0.875119 0.610731 0.244613 -0.297315
C18   C     C_3   0.124881 0.389269 0.755387 -0.297315
C19   C     C_R   0.955229 0.323753 0.455884 0.003902
C20   C     C_R   0.457044 0.976986 0.457166 0.025987
C21   C     C_R   0.542956 0.023014 0.542834 0.025987
C22   C     C_R   0.971701 0.460303 0.458624 0.029315
C23   C     C_R   0.028299 0.539697 0.541376 0.029315
C24   C     C_R   0.451322 0.450780 0.993324 0.029717
C25   C     C_R   0.548678 0.549219 0.006676 0.029717
C26   C     C_R   0.025754 0.828242 0.565222 0.536610
C27   C     C_R   0.680900 0.027960 0.552321 0.007344
C28   C     C_R   0.974246 0.171758 0.434778 0.536610
C29   C     C_R   0.831412 0.569606 0.014057 0.530765
C30   C     C_R   0.168588 0.430394 0.985943 0.530764
C31   C     C_R   0.564356 0.028889 0.828164 0.526692
C32   C     C_R   0.435643 0.971111 0.171836 0.526692
C33   C     C_R   0.434482 0.171477 0.973823 0.524544
C34   C     C_R   0.565518 0.828523 0.026177 0.524544
C35   C     C_R   0.972042 0.435321 0.171925 0.526352
C36   C     C_R   0.027958 0.564678 0.828075 0.526352
C37   C     C_R   0.171110 0.977020 0.433259 0.537008
C38   C     C_R   0.949538 0.455036 0.324429 -0.004008
C39   C     C_R   0.828890 0.022980 0.566740 0.537008
C40   C     C_R   0.410492 0.961978 0.411351 0.001969
C41   C     C_R   0.589508 0.038022 0.588649 0.001969
C42   C     C_R   0.954788 0.413935 0.414028 0.001506
C43   C     C_R   0.045212 0.586065 0.585972 0.001506
C44   C     C_R   0.402543 0.401900 0.986563 0.007753
C45   C     C_R   0.597456 0.598100 0.013437 0.007753
C46   C     C_R   0.268706 0.967452 0.397786 -0.030527
C47   C     C_R   0.731294 0.032548 0.602214 -0.030527
C48   C     C_R   0.955141 0.402170 0.271773 -0.033727
C49   C     C_R   0.050462 0.544964 0.675571 -0.004008
C50   C     C_R   0.044859 0.597830 0.728227 -0.033727
C51   C     C_R   0.396714 0.269537 0.963370 -0.031434
C52   C     C_R   0.603286 0.730463 0.036630 -0.031434
C53   C     C_R   0.598366 0.046128 0.728382 -0.033708
C54   C     C_R   0.401634 0.953872 0.271618 -0.033709
C55   C     C_R   0.737923 0.611854 0.008931 -0.029040
C56   C     C_R   0.262077 0.388146 0.991069 -0.029040
C57   C     C_R   0.039398 0.729383 0.597831 -0.031249
C58   C     C_R   0.960602 0.270617 0.402169 -0.031249
C59   C     C_R   0.453231 0.069564 0.703778 0.041625
C60   C     C_R   0.446853 0.326560 0.953146 0.009680
C61   C     C_R   0.546769 0.930435 0.296222 0.041625
C62   C     C_R   0.034324 0.711094 0.454891 0.056761
C63   C     C_R   0.965676 0.288906 0.545109 0.056761
C64   C     C_R   0.732684 0.511446 0.932987 0.028206
C65   C     C_R   0.267316 0.488554 0.067013 0.028206
C66   C     C_R   0.279800 0.000990 0.526217 0.059521
C67   C     C_R   0.720200 0.999010 0.473783 0.059521
C68   C     C_R   0.538418 0.312387 0.909367 0.026376
C69   C     C_R   0.461582 0.687613 0.090633 0.026377
C70   C     C_R   0.946142 0.546852 0.289509 0.030169
C71   C     C_R   0.553147 0.673440 0.046854 0.009680
C72   C     C_R   0.053858 0.453148 0.710491 0.030169
C73   C     C_R   0.311469 0.958617 0.310629 -0.164626
C74   C     C_R   0.688531 0.041383 0.689371 -0.164627
C75   C     C_R   0.958202 0.312053 0.312489 -0.165232
C76   C     C_R   0.041798 0.687946 0.687511 -0.165232
C77   C     C_R   0.305823 0.305576 0.973064 -0.167699
C78   C     C_R   0.694177 0.694424 0.026936 -0.167699
C79   C     C_R   0.671893 0.012715 0.415993 -0.030224
C80   C     C_R   0.328107 0.987284 0.584007 -0.030225
C81   C     C_R   0.010996 0.419159 0.677889 -0.059670
C82   C     C_R   0.546394 0.053185 0.674233 0.003784
C83   C     C_R   0.989004 0.580841 0.322111 -0.059670
C84   C     C_R   0.412136 0.642026 0.079429 -0.036229
C85   C     C_R   0.587864 0.357974 0.920571 -0.036229
C86   C     C_R   0.588042 0.964062 0.331385 -0.036370
C87   C     C_R   0.411957 0.035938 0.668614 -0.036370
C88   C     C_R   0.314917 0.542627 0.066775 -0.035647
C89   C     C_R   0.685083 0.457373 0.933225 -0.035647
C90   C     C_R   0.946056 0.345062 0.597778 -0.040584
C91   C     C_R   0.053944 0.654938 0.402221 -0.040585
C92   C     C_R   0.714697 0.000416 0.329445 0.412410
C93   C     C_R   0.453606 0.946815 0.325767 0.003784
C94   C     C_R   0.285303 0.999584 0.670555 0.412411
C95   C     C_R   0.981619 0.342076 0.727565 0.446429
C96   C     C_R   0.018381 0.657924 0.272435 0.446428
C97   C     C_R   0.319456 0.664298 0.108721 0.420061
C98   C     C_R   0.680544 0.335702 0.891279 0.420061
C99   C     C_R   0.673824 0.975037 0.288077 0.408753
C100  C     C_R   0.326176 0.024963 0.711923 0.408754
C101  C     C_R   0.272257 0.615940 0.102109 0.416109
C102  C     C_R   0.727743 0.384060 0.897890 0.416109
C103  C     C_R   0.944542 0.308395 0.689598 0.463265
C104  C     C_R   0.690793 0.572466 0.985636 0.007649
C105  C     C_R   0.055458 0.691605 0.310402 0.463265
C106  C     C_R   0.542480 0.985954 0.413683 -0.054204
C107  C     C_R   0.457520 0.014046 0.586317 -0.054204
C108  C     C_R   0.968742 0.424987 0.550415 -0.060541
C109  C     C_R   0.031258 0.575012 0.449585 -0.060541
C110  C     C_R   0.407373 0.522714 0.031312 -0.048049
C111  C     C_R   0.592627 0.477285 0.968688 -0.048049
C112  C     C_R   0.584496 0.010563 0.455920 -0.052983
C113  C     C_R   0.415504 0.989437 0.544080 -0.052983
C114  C     C_R   0.456061 0.572186 0.037922 -0.048337
Cu1   Cu    Cu3+1 0.995180 0.995180 0.424630 1.056741
Cu2   Cu    Cu3+1 0.004820 0.004820 0.575370 1.056740
Cu3   Cu    Cu3+1 0.995180 0.424630 0.995180 1.039927
Cu4   Cu    Cu3+1 0.004820 0.575370 0.004820 1.039927
Cu5   Cu    Cu3+1 0.424630 0.995180 0.995180 1.051021
Cu6   Cu    Cu3+1 0.575370 0.004820 0.004820 1.051020
F1    F     F_    0.281670 0.037256 0.794634 -0.578106
F2    F     F_    0.272360 0.736225 0.139820 -0.552332
F3    F     F_    0.011051 0.701334 0.187607 -0.536400
F4    F     F_    0.988949 0.298666 0.812393 -0.536400
F5    F     F_    0.718330 0.962743 0.205366 -0.578106
F6    F     F_    0.079446 0.768488 0.262630 -0.506710
F7    F     F_    0.920554 0.231512 0.737370 -0.506710
F8    F     F_    0.816334 0.354128 0.874786 -0.548963
F9    F     F_    0.183666 0.645872 0.125213 -0.548963
F10   F     F_    0.201494 0.992289 0.712516 -0.566662
F11   F     F_    0.798506 0.007710 0.287484 -0.566662
F12   F     F_    0.727640 0.263775 0.860179 -0.552332
H1    H     H_    0.272691 0.960875 0.270621 0.176822
H2    H     H_    0.560129 0.823572 0.244501 0.093633
H3    H     H_    0.641990 0.884908 0.180822 0.229735
H4    H     H_    0.646782 0.807741 0.289280 0.121513
H5    H     H_    0.912036 0.788425 0.511026 0.116422
H6    H     H_    0.965695 0.836649 0.389550 0.219078
H7    H     H_    0.906513 0.754118 0.427330 0.100684
H8    H     H_    0.034305 0.163351 0.610450 0.219078
H9    H     H_    0.087964 0.211574 0.488974 0.116422
H10   H     H_    0.093487 0.245882 0.572670 0.100684
H11   H     H_    0.834252 0.582655 0.847736 0.099323
H12   H     H_    0.727309 0.039125 0.729378 0.176822
H13   H     H_    0.872768 0.463407 0.873923 0.249463
H14   H     H_    0.809643 0.525651 0.793825 0.126840
H15   H     H_    0.127232 0.536593 0.126077 0.249463
H16   H     H_    0.165748 0.417345 0.152264 0.099323
H17   H     H_    0.190357 0.474349 0.206175 0.126840
H18   H     H_    0.202792 0.115209 0.449951 0.113726
H19   H     H_    0.157947 0.077543 0.573257 0.211149
H20   H     H_    0.240262 0.139050 0.522431 0.103964
H21   H     H_    0.842054 0.922457 0.426743 0.211149
H22   H     H_    0.797208 0.884790 0.550049 0.113726
H23   H     H_    0.963974 0.272021 0.271877 0.174025
H24   H     H_    0.759738 0.860950 0.477569 0.103964
H25   H     H_    0.623934 0.200309 0.856722 0.228435
H26   H     H_    0.527887 0.256060 0.815724 0.081206
H27   H     H_    0.615182 0.307104 0.773630 0.156034
H28   H     H_    0.472113 0.743939 0.184276 0.081206
H29   H     H_    0.376066 0.799691 0.143278 0.228435
H30   H     H_    0.384818 0.692896 0.226370 0.156034
H31   H     H_    0.903127 0.649911 0.175826 0.228337
H32   H     H_    0.833535 0.575284 0.240547 0.114264
H33   H     H_    0.831124 0.657448 0.285187 0.121103
H34   H     H_    0.036026 0.727979 0.728123 0.174025
H35   H     H_    0.166465 0.424715 0.759453 0.114264
H36   H     H_    0.096873 0.350089 0.824174 0.228337
H37   H     H_    0.168876 0.342552 0.714813 0.121103
H38   H     H_    0.268354 0.268048 0.968732 0.166308
H39   H     H_    0.731646 0.731952 0.031268 0.166308
H40   H     H_    0.358010 0.115092 0.819178 0.229735
H41   H     H_    0.439870 0.176428 0.755499 0.093633
H42   H     H_    0.353218 0.192259 0.710720 0.121513
O1    O     O_R   0.124540 0.978640 0.385460 -0.494104
O2    O     O_R   0.124540 0.385460 0.978640 -0.519130
O3    O     O_R   0.021360 0.875460 0.614540 -0.495508
O4    O     O_R   0.978640 0.124540 0.385460 -0.495508
O5    O     O_R   0.013780 0.867370 0.487190 -0.523483
O6    O     O_R   0.986220 0.132630 0.512810 -0.523483
O7    O     O_R   0.867370 0.487190 0.013780 -0.494438
O8    O     O_R   0.132630 0.512810 0.986220 -0.494438
O9    O     O_R   0.487190 0.013780 0.867370 -0.498147
O10   O     O_R   0.512810 0.986220 0.132630 -0.498147
O11   O     O_R   0.512810 0.132630 0.986220 -0.494197
O12   O     O_R   0.875460 0.021360 0.614540 -0.494104
O13   O     O_R   0.487190 0.867370 0.013780 -0.494197
O14   O     O_R   0.986220 0.512810 0.132630 -0.528440
O15   O     O_R   0.013780 0.487190 0.867370 -0.528440
O16   O     O_R   0.132630 0.986220 0.512810 -0.510071
O17   O     O_R   0.867370 0.013780 0.487190 -0.510071
O18   O     O_R   0.978640 0.385460 0.124540 -0.496109
O19   O     O_R   0.021360 0.614540 0.875460 -0.496110
O20   O     O_R   0.385460 0.124540 0.978640 -0.518441
O21   O     O_R   0.614540 0.875460 0.021360 -0.518441
O22   O     O_R   0.614540 0.021360 0.875460 -0.509575
O23   O     O_R   0.385460 0.978640 0.124540 -0.509575
O24   O     O_R   0.875460 0.614540 0.021360 -0.519130

loop_
_geom_bond_atom_site_label_1
_geom_bond_atom_site_label_2
_ccdc_geom_bond_type
C34   O21   A    
C95   F4    S    
C96   C105  A    
C38   C70   A    
C35   O18   A    
C89   C102  A    
C45   C71   A    
C91   C105  A    
C53   C74   A    
C48   C75   A    
C59   C82   A    
C40   C93   A    
Cu3   O15   S    
C2    C65   A    
Cu6   O11   S    
C22   C108  A    
C88   C101  A    
C66   C80   A    
C99   F5    S    
C6    H40   S    
C26   O5    A    
C15   H27   S    
C4    C108  A    
Cu6   O22   S    
C29   O7    A    
C105  F6    S    
C8    H7    S    
C84   C97   A    
C57   C76   A    
C45   C104  A    
C38   C42   A    
C102  F8    S    
C20   C113  A    
C81   C95   A    
C9    H8    S    
C61   C93   A    
C1    C46   A    
C18   H37   S    
C16   H28   S    
C41   C82   A    
Cu1   Cu2   S    
C23   C43   A    
C63   C90   A    
C8    H6    S    
C100  F1    S    
C30   O2    A    
C12   C66   S    
C69   C71   A    
Cu4   O19   S    
C12   H20   S    
C36   O19   A    
C7    C61   S    
C54   C93   A    
Cu1   O1    S    
C85   C98   A    
C17   H31   S    
C1    C40   A    
C39   O12   A    
C11   H17   S    
C107  C113  A    
C5    C22   A    
C19   C63   A    
C77   H38   S    
C49   C72   A    
C22   C42   A    
C14   C67   S    
C76   H34   S    
C103  F7    S    
C110  C114  A    
C38   C48   A    
C72   C81   A    
C19   C42   A    
Cu1   O17   S    
C37   O16   A    
C17   C70   S    
C9    C63   S    
Cu2   O3    S    
C14   H22   S    
C68   C85   A    
C30   O8    A    
C12   H19   S    
C3    C24   A    
C86   C106  A    
C64   C89   A    
C52   C78   A    
C35   C48   S    
C32   C54   S    
C95   C103  A    
C58   C75   A    
C20   C106  A    
Cu4   O8    S    
C19   C58   A    
C18   C72   S    
C23   C109  A    
C10   C64   S    
Cu6   O21   S    
C13   C62   A    
C36   O15   A    
C12   H18   S    
C92   F11   S    
C24   C110  A    
C7    H2    S    
C2    C44   A    
C55   C78   A    
Cu4   O14   S    
C43   C49   A    
C106  C112  A    
C29   C55   S    
C16   H30   S    
C98   C102  A    
Cu2   O12   S    
C55   C104  A    
C56   C77   A    
C15   C68   S    
C8    H5    S    
C51   C77   A    
C7    H3    S    
C32   O23   A    
C86   C99   A    
C17   H32   S    
C50   C76   A    
C37   O1    A    
C54   C73   A    
C39   O17   A    
C27   C41   A    
C94   C100  A    
Cu5   Cu6   S    
C97   C101  A    
C62   C91   A    
C1    C66   A    
C67   C79   A    
C27   C67   A    
Cu5   O9    S    
C31   C53   S    
C70   C83   A    
Cu6   O10   S    
C79   C92   A    
C21   C107  A    
C28   O6    A    
C15   H26   S    
C21   C41   A    
C79   C112  A    
Cu3   O2    S    
C10   H14   S    
C33   O20   A    
C29   O24   A    
Cu2   O6    S    
C14   H21   S    
C101  F9    S    
C24   C44   A    
C3    C111  A    
C3    C85   A    
C18   H36   S    
C80   C94   A    
C97   F2    S    
C94   F10   S    
C25   C45   A    
C13   C43   A    
C21   C112  A    
C36   C50   S    
C65   C88   A    
C39   C47   S    
C87   C100  A    
C26   O3    A    
C27   C47   A    
C4    C23   A    
Cu2   O16   S    
C84   C114  A    
C96   F3    S    
C14   H24   S    
Cu5   O23   S    
C6    C59   S    
C32   O10   A    
C64   C104  A    
C16   C69   S    
C47   C74   A    
C73   H1    S    
C87   C107  A    
C33   O11   A    
C9    H10   S    
C5    C83   A    
C15   H25   S    
C6    H41   S    
C28   C58   S    
C16   H29   S    
C33   C51   S    
C6    H42   S    
C89   C111  A    
C34   C52   S    
Cu5   O20   S    
C91   C109  A    
C88   C110  A    
C7    H4    S    
C69   C84   A    
C2    C56   A    
C25   C114  A    
C11   H15   S    
C31   O22   A    
C30   C56   S    
C44   C60   A    
C20   C40   A    
C83   C96   A    
C4    C81   A    
Cu3   O18   S    
C78   H39   S    
Cu3   O7    S    
C10   H11   S    
C31   O9    A    
C34   O13   A    
C11   H16   S    
C26   C57   S    
C59   C87   A    
C90   C103  A    
Cu1   O4    S    
C9    H9    S    
C61   C86   A    
C25   C111  A    
C10   H13   S    
C90   C108  A    
C75   H23   S    
C18   H35   S    
C13   C57   A    
C80   C113  A    
C60   C68   A    
C49   C50   A    
C35   O14   A    
C98   F12   S    
C52   C71   A    
C53   C82   A    
C17   H33   S    
C51   C60   A    
C5    C109  A    
Cu5   O13   S    
C37   C46   S    
Cu3   Cu4   S    
C28   O4    A    
C74   H12   S    
C46   C73   A    
Cu1   O5    S    
C11   C65   S    
C92   C99   A    
C8    C62   S    
Cu4   O24   S    
