data_mof_unit_6351.cif
_audit_creation_date              2012-12-10T18:59:11-0500
_audit_creation_method            fapswitch 2.2
_symmetry_space_group_name_H-M    P1
_symmetry_Int_Tables_number       1
_space_group_crystal_system       triclinic
_cell_length_a                    9.807143
_cell_length_b                    10.651336
_cell_length_c                    16.487547
_cell_angle_alpha                 89.526214
_cell_angle_beta                  89.760491
_cell_angle_gamma                 89.813308
_cell_volume                      1722.19268189

loop_
_atom_site_label
_atom_site_type_symbol
_atom_type_description
_atom_site_fract_x
_atom_site_fract_y
_atom_site_fract_z
_atom_type_partial_charge
C1    C     C_R   0.500238 0.260131 0.497839 0.912213
C2    C     C_R   0.499764 0.739987 0.501711 0.928418
C3    C     C_R   0.412598 0.937885 0.554456 0.281933
C4    C     C_R   0.586841 0.062605 0.444235 0.275909
C5    C     C_R   0.499343 0.872320 0.501873 -0.139965
C6    C     C_R   0.500547 0.127956 0.497179 -0.133720
C7    C     C_R   0.071854 0.599852 0.469029 0.059169
C8    C     C_R   0.928202 0.399676 0.530258 0.065641
C9    C     C_R   0.927822 0.599899 0.469158 0.006764
C10   C     C_R   0.072210 0.400009 0.530701 0.007100
C11   C     C_R   0.511238 0.499291 0.655254 0.965227
C12   C     C_R   0.488539 0.502100 0.344825 0.962369
C13   C     C_R   0.500640 0.475290 0.743823 -0.309563
C14   C     C_R   0.497999 0.477144 0.256770 -0.319629
C15   C     C_R   0.368220 0.459292 0.778932 0.141634
C16   C     C_R   0.629794 0.460551 0.221453 0.186771
C17   C     C_R   0.352589 0.391325 0.851657 0.328962
C18   C     C_R   0.645137 0.389523 0.150698 0.306825
C19   C     C_R   0.467709 0.361601 0.897508 0.132755
C20   C     C_R   0.529706 0.358299 0.106016 0.077011
C21   C     C_R   0.598765 0.387978 0.866429 -0.287855
C22   C     C_R   0.398712 0.384935 0.137301 -0.239985
C23   C     C_R   0.616522 0.446569 0.791313 0.310027
C24   C     C_R   0.381584 0.446166 0.210938 0.368818
C25   C     C_R   0.413662 0.066660 0.551522 -0.239426
C26   C     C_R   0.586147 0.933667 0.447368 -0.229985
H1    H     H_    0.688123 0.368886 0.902849 0.260180
H2    H     H_    0.308957 0.363960 0.102004 0.258993
H3    H     H_    0.348793 0.119135 0.592627 0.187387
H4    H     H_    0.650980 0.881159 0.406274 0.191827
H5    H     H_    0.126328 0.679502 0.444112 0.163766
H6    H     H_    0.873764 0.319457 0.554403 0.160878
H7    H     H_    0.873107 0.679591 0.444306 0.150451
H8    H     H_    0.126929 0.320339 0.555584 0.144908
N1    N     N_2   0.445514 0.340208 0.981306 -0.067499
N2    N     N_2   0.551038 0.334837 0.022522 -0.079740
N3    N     N_R   0.857210 0.499970 0.500020 -0.092039
N4    N     N_R   0.142790 0.500030 0.499980 -0.092916
O1    O     O_R   0.614620 0.316750 0.500010 -0.603635
O2    O     O_R   0.385380 0.683250 0.499990 -0.600073
O3    O     O_R   0.385290 0.316780 0.500000 -0.634450
O4    O     O_R   0.614710 0.683220 0.500000 -0.627083
O5    O     O_R   0.627460 0.498830 0.616130 -0.550839
O6    O     O_R   0.372540 0.501170 0.383870 -0.549515
O7    O     O_R   0.398130 0.498850 0.616130 -0.589837
O8    O     O_R   0.601870 0.501150 0.383870 -0.581889
Zn1   Zn    Zn3+2 0.653130 0.499980 0.500000 1.057850
Zn2   Zn    Zn3+2 0.346870 0.500020 0.500000 1.055140
Br1   Br    Br    0.786474 0.554269 0.259323 -0.342087
Br2   Br    Br    0.209546 0.548837 0.737612 -0.216721
S1    S     S_3+6 0.809415 0.348116 0.112802 0.116038
O9    O     O_2   0.864922 0.456693 0.064367 -0.204069
O10   O     O_2   0.904843 0.318211 0.181446 -0.170557
O11   O     O_3   0.800627 0.222048 0.052269 -0.508449
H9    H     H_    0.766406 0.153447 0.087733 0.370765
S2    S     S_3+6 0.187981 0.352735 0.890531 0.140591
O12   O     O_2   0.131125 0.465337 0.933549 -0.187769
O13   O     O_2   0.094594 0.316909 0.822548 -0.176687
O14   O     O_3   0.197100 0.231360 0.956302 -0.518100
H10   H     H_    0.106868 0.229178 0.983514 0.422108
S3    S     S_3+6 0.783919 0.496218 0.765992 0.113695
O15   O     O_2   0.850013 0.399405 0.712953 -0.238336
O16   O     O_2   0.781484 0.620552 0.722140 -0.255487
O17   O     O_3   0.877160 0.511260 0.850637 -0.410818
H11   H     H_    0.833941 0.581217 0.880603 0.372690
S4    S     S_3+6 0.214672 0.498160 0.235805 0.094090
O18   O     O_2   0.149279 0.406819 0.293892 -0.216367
O19   O     O_2   0.220576 0.625807 0.274003 -0.314080
O20   O     O_3   0.120312 0.507553 0.150983 -0.451606
H12   H     H_    0.061137 0.582192 0.158118 0.419470
Br3   Br    Br    0.297549 0.857894 0.633994 -0.383856
Br4   Br    Br    0.699997 0.143656 0.363927 -0.433738

loop_
_geom_bond_atom_site_label_1
_geom_bond_atom_site_label_2
_ccdc_geom_bond_type
S3    O17   S    
C3    Br3   S    
C11   O5    A    
C14   C16   A    
N3    Zn1   S    
C20   C22   A    
S4    O19   D    
N1    N2    D    
S2    O14   S    
C24   S4    S    
C10   N4    A    
S1    O11   S    
O17   H11   S    
C4    Br4   S    
C9    N3    A    
S4    O18   D    
C21   H1    S    
O14   H10   S    
C10   H8    S    
C22   H2    S    
S2    O12   D    
C9    H7    S    
C11   C13   S    
C17   S2    S    
O20   H12   S    
C8    H6    S    
S4    O20   S    
C2    O4    A    
C1    O3    A    
C19   C21   A    
C7    N4    A    
C12   C14   S    
C18   S1    S    
C26   H4    S    
C18   C20   A    
O4    Zn1   S    
C13   C15   A    
C21   C23   A    
C25   H3    S    
S3    O15   D    
C22   C24   A    
C4    C26   A    
C11   O7    A    
C2    C5    S    
C7    H5    S    
C8    N3    A    
C1    O1    A    
S1    O10   D    
C5    C26   A    
C6    C25   A    
C2    O2    A    
C23   S3    S    
C3    C25   A    
S1    O9    D    
C16   Br1   S    
C13   C23   A    
C16   C18   A    
C4    C6    A    
C15   Br2   S    
C14   C24   A    
C1    C6    S    
C15   C17   A    
C7    C9    A    
O8    Zn1   S    
C12   O6    A    
C12   O8    A    
C19   N1    S    
O7    Zn2   S    
C17   C19   A    
O11   H9    S    
O1    Zn1   S    
O5    Zn1   S    
O2    Zn2   S    
O3    Zn2   S    
C8    C10   A    
O6    Zn2   S    
S3    O16   D    
S2    O13   D    
C3    C5    A    
N4    Zn2   S    
C20   N2    S    
