data_mof_unit_56417.cif
_audit_creation_date              2012-12-10T17:34:57-0500
_audit_creation_method            fapswitch 2.2
_symmetry_space_group_name_H-M    P1
_symmetry_Int_Tables_number       1
_space_group_crystal_system       triclinic
_cell_length_a                    12.06745
_cell_length_b                    12.830455
_cell_length_c                    15.738295
_cell_angle_alpha                 90.739706
_cell_angle_beta                  86.099851
_cell_angle_gamma                 94.105874
_cell_volume                      2424.81188564

loop_
_atom_site_label
_atom_site_type_symbol
_atom_type_description
_atom_site_fract_x
_atom_site_fract_y
_atom_site_fract_z
_atom_type_partial_charge
C1    C     C_R   0.522726 0.700403 0.498115 0.910193
C2    C     C_3   0.368369 0.496961 0.057447 0.823642
C3    C     C_3   0.493693 0.508445 0.083244 -0.203536
C4    C     C_3   0.555740 0.412940 0.045846 0.193333
C5    C     C_3   0.574650 0.426752 0.948052 0.133315
C6    C     C_1   0.497127 0.505286 0.174887 0.163727
C7    C     C_1   0.497941 0.504492 0.825651 0.197746
C8    C     C_1   0.499656 0.502006 0.750310 -0.124531
C9    C     C_R   0.462360 0.188291 0.501545 -0.124261
C10   C     C_R   0.537356 0.812239 0.493606 -0.118370
C11   C     C_R   0.631367 0.970810 0.437240 -0.299147
C12   C     C_R   0.499941 0.500109 0.661516 0.882076
C13   C     C_R   0.628556 0.862676 0.446509 0.435848
C14   C     C_R   0.451678 0.867946 0.531352 -0.322538
C15   C     C_R   0.452449 0.974295 0.520154 0.058278
C16   C     C_R   0.543669 0.025851 0.472990 0.076079
C17   C     C_R   0.546983 0.132372 0.463096 -0.248431
C18   C     C_R   0.369897 0.138079 0.545959 -0.324385
C19   C     C_R   0.363260 0.030043 0.554321 0.549147
C20   C     C_R   0.955653 0.431595 0.399198 0.492624
C21   C     C_R   0.838481 0.436086 0.413027 -0.235674
C22   C     C_R   0.857348 0.526731 0.543905 0.652745
C23   C     C_R   0.477329 0.299755 0.500553 0.901633
C24   C     C_R   0.974528 0.521594 0.535159 -0.254570
C25   C     C_R   0.024784 0.473182 0.462775 -0.201473
C26   C     C_R   0.143417 0.467554 0.457245 0.587214
C27   C     C_R   0.157677 0.568392 0.584553 0.464776
C28   C     C_R   0.042132 0.565362 0.596844 -0.224914
C29   C     C_R   0.499980 0.499957 0.338527 0.895823
C30   C     C_3   0.372172 0.480218 0.957204 0.602588
C31   C     C_3   0.538698 0.621889 0.947129 0.824137
C32   C     C_3   0.554543 0.614154 0.047626 0.574983
C33   C     C_1   0.499635 0.502359 0.249904 -0.183693
C34   C     C_3   0.495187 0.508315 0.917903 -0.252534
H1    H     H_    0.617351 0.172394 0.427472 0.158809
H2    H     H_    0.305297 0.182539 0.576795 0.171695
H3    H     H_    0.700618 0.011595 0.401084 0.126402
H4    H     H_    0.382715 0.827451 0.568031 0.217817
H5    H     H_    0.006254 0.600172 0.654396 0.218036
H6    H     H_    0.783382 0.407444 0.365403 0.174813
H7    H     H_    0.662027 0.458661 0.934054 0.262364
H8    H     H_    0.499558 0.341682 0.061227 0.147443
N1    N     N_R   0.207800 0.519340 0.515510 -0.203550
N2    N     N_R   0.792190 0.480660 0.484490 -0.154152
O1    O     O_R   0.421690 0.658830 0.504140 -0.669067
O2    O     O_R   0.609320 0.646410 0.494190 -0.565032
O3    O     O_R   0.406150 0.506210 0.627840 -0.620874
O4    O     O_R   0.593770 0.493790 0.617880 -0.550466
O5    O     O_R   0.390680 0.353590 0.505810 -0.621589
O6    O     O_R   0.578310 0.341170 0.495860 -0.622088
O7    O     O_R   0.406230 0.506210 0.382120 -0.571250
O8    O     O_R   0.593850 0.493790 0.372160 -0.616802
Zn1   Zn    Zn3+2 0.374720 0.508290 0.506640 0.973972
Zn2   Zn    Zn3+2 0.625280 0.491710 0.493360 1.004646
O9    O     O_3   0.313453 0.590674 0.078005 -0.583111
C35   C     C_3   0.281402 0.605546 0.165546 -0.205112
H9    H     H_    0.280288 0.535236 0.205913 0.195572
H10   H     H_    0.195980 0.632708 0.170705 0.173354
H11   H     H_    0.337058 0.667982 0.192687 0.198398
O10   O     O_3   0.339337 0.374604 0.939284 -0.793213
H12   H     H_    0.336606 0.365295 0.876777 0.338143
O11   O     O_3   0.312275 0.407561 0.099543 -0.653535
C36   C     C_3   0.196298 0.395868 0.088061 -0.136692
H13   H     H_    0.175454 0.315937 0.063494 0.182252
H14   H     H_    0.166317 0.452454 0.043447 0.212204
H15   H     H_    0.149429 0.403662 0.150669 0.176564
O12   O     O_3   0.659968 0.407441 0.082228 -0.547952
C37   C     C_3   0.688152 0.302926 0.086840 -0.278762
H16   H     H_    0.689361 0.263950 0.023315 0.193833
H17   H     H_    0.630094 0.258330 0.133312 0.145906
H18   H     H_    0.773065 0.302579 0.109663 0.177902
O13   O     O_3   0.274666 0.980400 0.601807 -0.599564
C38   C     C_3   0.182941 0.968237 0.550769 -0.329050
H19   H     H_    0.203029 0.922120 0.491976 0.157851
H20   H     H_    0.153625 0.045221 0.534105 0.151498
H21   H     H_    0.113316 0.924385 0.587468 0.204538
O14   O     O_3   0.710479 0.805100 0.407530 -0.779480
H22   H     H_    0.767486 0.853068 0.377098 0.322926
O15   O     O_3   0.195263 0.407362 0.395204 -0.544691
C39   C     C_3   0.181620 0.301459 0.420252 -0.204646
H23   H     H_    0.098917 0.265665 0.405048 0.158280
H24   H     H_    0.191619 0.290589 0.489354 0.128433
H25   H     H_    0.245653 0.257667 0.384087 0.176654
O16   O     O_3   0.295589 0.544607 0.923446 -0.687499
H26   H     H_    0.286876 0.525415 0.862907 0.347030
O17   O     O_3   0.217576 0.619738 0.645482 -0.745803
H27   H     H_    0.289603 0.645740 0.618070 0.373958
O18   O     O_3   0.005429 0.399458 0.321580 -0.564057
C40   C     C_3   0.943669 0.315520 0.283942 -0.369694
H28   H     H_    0.877120 0.345069 0.247321 0.180816
H29   H     H_    0.908607 0.256339 0.331506 0.141237
H30   H     H_    0.000364 0.275327 0.238004 0.190837
O19   O     O_3   0.807114 0.577535 0.612619 -0.586777
C41   C     C_3   0.812868 0.686043 0.596526 -0.250405
H31   H     H_    0.741000 0.719908 0.631789 0.190717
H32   H     H_    0.809433 0.705453 0.527990 0.192458
H33   H     H_    0.889717 0.725022 0.620580 0.139605
O20   O     O_3   0.644332 0.641799 0.900662 -0.609134
C42   C     C_3   0.686536 0.746993 0.901455 -0.175403
H34   H     H_    0.692018 0.778520 0.967106 0.152761
H35   H     H_    0.638177 0.795562 0.861682 0.162301
H36   H     H_    0.772778 0.750984 0.871837 0.184345
O21   O     O_3   0.458446 0.688816 0.917595 -0.595803
C43   C     C_3   0.441315 0.784845 0.959472 -0.143168
H37   H     H_    0.376308 0.773710 0.012454 0.243546
H38   H     H_    0.407704 0.837164 0.913513 0.167829
H39   H     H_    0.517488 0.826886 0.980921 0.105178
O22   O     O_3   0.512388 0.698213 0.095189 -0.817227
H40   H     H_    0.572821 0.754296 0.099833 0.329813
O23   O     O_3   0.670024 0.612612 0.058763 -0.734163
H41   H     H_    0.681168 0.617420 0.120670 0.364723
O24   O     O_3   0.565589 0.331122 0.902567 -0.755693
H42   H     H_    0.507429 0.282939 0.931171 0.366191

loop_
_geom_bond_atom_site_label_1
_geom_bond_atom_site_label_2
_ccdc_geom_bond_type
O9    C35   S    
C36   H14   S    
O19   C41   S    
C38   H19   S    
C12   O4    A    
C3    C6    S    
C43   H38   S    
C7    C8    T    
O14   H22   S    
O22   H40   S    
O4    Zn2   S    
O6    Zn2   S    
C32   O23   S    
C2    O9    S    
C12   O3    A    
C39   H23   S    
C1    O2    A    
C23   O5    A    
C20   C25   A    
C15   C16   A    
C29   C33   S    
C35   H9    S    
C18   C19   A    
C31   O20   S    
C11   H3    S    
O23   H41   S    
O24   H42   S    
C37   H16   S    
N1    Zn1   S    
C22   N2    A    
C42   H34   S    
C16   C17   A    
C30   O10   S    
C40   H29   S    
O3    Zn1   S    
O18   C40   S    
C36   H15   S    
O1    Zn1   S    
C38   H20   S    
C19   O13   S    
C41   H31   S    
C39   H25   S    
C43   H37   S    
O8    Zn2   S    
C26   N1    A    
C13   O14   S    
C30   C34   S    
O12   C37   S    
C24   C25   A    
C39   H24   S    
C10   C14   A    
O17   H27   S    
C9    C23   S    
C23   O6    A    
C28   H5    S    
C25   C26   A    
O15   C39   S    
O10   H12   S    
O7    Zn1   S    
C31   O21   S    
C27   O17   S    
C15   C19   A    
O11   C36   S    
N2    Zn2   S    
C14   H4    S    
C21   N2    A    
C11   C16   A    
C31   C32   S    
C8    C12   S    
C5    C34   S    
O2    Zn2   S    
C31   C34   S    
O16   H26   S    
C40   H30   S    
C41   H32   S    
C9    C17   A    
C42   H35   S    
C22   O19   S    
C22   C24   A    
C3    C4    S    
O21   C43   S    
C7    C34   S    
C29   O7    A    
C5    H7    S    
C1    C10   S    
C24   C28   A    
O13   C38   S    
C10   C13   A    
C4    O12   S    
C35   H11   S    
C5    O24   S    
C26   O15   S    
C41   H33   S    
C6    C33   T    
C2    C30   S    
C2    C3    S    
C11   C13   A    
C1    O1    A    
C21   H6    S    
C4    H8    S    
C37   H18   S    
O5    Zn1   S    
C20   O18   S    
C38   H21   S    
C35   H10   S    
C30   O16   S    
C3    C32   S    
C36   H13   S    
C27   N1    A    
C9    C18   A    
C4    C5    S    
C42   H36   S    
C20   C21   A    
C37   H17   S    
O20   C42   S    
C32   O22   S    
C27   C28   A    
C14   C15   A    
C17   H1    S    
C40   H28   S    
C18   H2    S    
C43   H39   S    
C2    O11   S    
C29   O8    A    
