data_mof_unit_66279.cif
_audit_creation_date              2012-12-10T19:29:24-0500
_audit_creation_method            fapswitch 2.2
_symmetry_space_group_name_H-M    P1
_symmetry_Int_Tables_number       1
_space_group_crystal_system       triclinic
_cell_length_a                    15.857671
_cell_length_b                    17.780667
_cell_length_c                    16.580426
_cell_angle_alpha                 89.628431
_cell_angle_beta                  89.861931
_cell_angle_gamma                 92.291323
_cell_volume                      4671.16362463

loop_
_atom_site_label
_atom_site_type_symbol
_atom_type_description
_atom_site_fract_x
_atom_site_fract_y
_atom_site_fract_z
_atom_type_partial_charge
Br1   Br    Br    0.062266 0.327957 0.485677 -0.435445
Br2   Br    Br    0.937470 0.673103 0.515498 -0.431354
Br3   Br    Br    0.358089 0.392511 0.692339 -0.306663
Br4   Br    Br    0.630916 0.617155 0.306614 -0.308312
Br5   Br    Br    0.332272 0.426106 0.884007 -0.489367
Br6   Br    Br    0.622636 0.618694 0.109646 -0.455993
Br7   Br    Br    0.927955 0.427968 0.331983 -0.427693
Br8   Br    Br    0.072371 0.573129 0.668612 -0.403663
C1    C     C_R   0.501499 0.355231 0.500215 0.856815
C2    C     C_R   0.496168 0.151662 0.572239 -0.246896
C3    C     C_R   0.490445 0.885712 0.498739 0.009073
C4    C     C_R   0.499951 0.113753 0.499239 0.013576
C5    C     C_1   0.493428 0.966016 0.498577 0.008609
C6    C     C_1   0.496232 0.033447 0.498686 0.012372
C7    C     C_R   0.558957 0.545012 0.828994 0.268508
C8    C     C_R   0.453580 0.439596 0.173890 0.207689
C9    C     C_R   0.562114 0.539642 0.743114 0.471058
C10   C     C_R   0.449219 0.448012 0.259197 0.510456
C11   C     C_R   0.436291 0.462443 0.744060 0.352110
C12   C     C_R   0.496761 0.644623 0.499754 0.825963
C13   C     C_R   0.552001 0.548425 0.254350 0.339306
C14   C     C_R   0.430891 0.467480 0.829185 0.091368
C15   C     C_R   0.550607 0.548018 0.168794 0.123999
C16   C     C_R   0.339745 0.500292 0.500066 0.809664
C17   C     C_R   0.660282 0.500189 0.499960 0.808164
C18   C     C_R   0.494839 0.505442 0.873272 -0.168384
C19   C     C_R   0.500599 0.494027 0.126728 -0.160400
C20   C     C_1   0.497233 0.500347 0.962815 0.110832
C21   C     C_1   0.499113 0.496151 0.037021 0.083118
C22   C     C_3   0.969873 0.459212 0.563518 -0.286362
C23   C     C_R   0.484263 0.767857 0.572677 0.355345
C24   C     C_3   0.030218 0.542006 0.437100 -0.303088
C25   C     C_3   0.024991 0.430047 0.494069 0.266097
C26   C     C_3   0.975102 0.571160 0.506570 0.268504
C27   C     C_1   0.250208 0.500753 0.500233 -0.141687
C28   C     C_1   0.749851 0.500224 0.499962 -0.103102
C29   C     C_3   0.029024 0.530406 0.569068 0.277241
C30   C     C_3   0.971091 0.470790 0.431553 0.270649
C31   C     C_3   0.083169 0.500842 0.500223 -0.047794
C32   C     C_3   0.916928 0.500361 0.500383 -0.048705
C33   C     C_1   0.174742 0.500912 0.500213 0.091242
C34   C     C_R   0.512500 0.232307 0.426837 0.396274
C35   C     C_1   0.825337 0.500249 0.500189 0.098652
C36   C     C_R   0.486650 0.846500 0.571656 -0.226864
C37   C     C_R   0.508481 0.153584 0.426986 -0.242290
C38   C     C_3   0.390611 0.721905 0.665726 0.089691
C39   C     C_3   0.381077 0.683856 0.747792 -0.737356
C40   C     C_3   0.607855 0.269657 0.330809 0.068999
C41   C     C_3   0.622667 0.321933 0.258770 -0.643018
C42   C     C_3   0.402535 0.736052 0.319599 0.096538
C43   C     C_3   0.391934 0.680934 0.250257 -0.737360
C44   C     C_3   0.570580 0.254769 0.691894 0.080627
C45   C     C_R   0.490242 0.727718 0.499264 -0.248103
C46   C     C_3   0.577818 0.311417 0.760108 -0.693302
C47   C     C_3   0.588128 0.653626 0.897939 0.080562
C48   C     C_3   0.659613 0.710453 0.916634 -0.674642
C49   C     C_3   0.370539 0.375623 0.078473 0.085878
C50   C     C_3   0.308066 0.308283 0.079339 -0.694967
C51   C     C_3   0.646403 0.639202 0.693254 0.151175
C52   C     C_3   0.738394 0.663142 0.707078 -0.719653
C53   C     C_3   0.313698 0.411158 0.291448 0.061751
C54   C     C_3   0.259886 0.356561 0.342734 -0.653026
C55   C     C_R   0.504263 0.271839 0.500394 -0.246927
C56   C     C_R   0.487446 0.768294 0.425384 0.419072
C57   C     C_R   0.500545 0.230529 0.573942 0.409496
C58   C     C_R   0.490056 0.847096 0.425990 -0.243258
Cu1   Cu    Cu3+1 0.500000 0.499980 0.580420 1.028370
Cu2   Cu    Cu3+1 0.500000 0.500020 0.419580 1.032186
H1    H     H_    0.944418 0.425361 0.615220 0.205804
H2    H     H_    0.313104 0.674874 0.762715 0.236873
H3    H     H_    0.410916 0.628550 0.747103 0.229461
H4    H     H_    0.624828 0.211954 0.312874 0.143066
H5    H     H_    0.650399 0.289751 0.380389 0.130930
H6    H     H_    0.611794 0.380846 0.276414 0.241776
H7    H     H_    0.688822 0.318593 0.237411 0.209527
H8    H     H_    0.579310 0.305477 0.208848 0.265595
H9    H     H_    0.393256 0.793772 0.295786 0.143490
H10   H     H_    0.352569 0.721458 0.365259 0.118812
H11   H     H_    0.394411 0.622357 0.273361 0.226266
H12   H     H_    0.055688 0.575852 0.385400 0.198905
H13   H     H_    0.329850 0.687885 0.220895 0.196362
H14   H     H_    0.442729 0.691350 0.204836 0.270960
H15   H     H_    0.628583 0.261907 0.653878 0.126760
H16   H     H_    0.567565 0.197303 0.718879 0.143321
H17   H     H_    0.519960 0.308004 0.798066 0.262404
H18   H     H_    0.633156 0.299386 0.798304 0.200407
H19   H     H_    0.586539 0.369155 0.734887 0.245877
H20   H     H_    0.551691 0.642211 0.954050 0.191194
H21   H     H_    0.545066 0.680230 0.854185 0.104356
H22   H     H_    0.690343 0.730799 0.860003 0.218436
H23   H     H_    0.484786 0.876813 0.628117 0.163547
H24   H     H_    0.634175 0.759463 0.948435 0.211337
H25   H     H_    0.707411 0.684380 0.955555 0.292682
H26   H     H_    0.407842 0.371903 0.022267 0.205891
H27   H     H_    0.334415 0.428213 0.079100 0.148206
H28   H     H_    0.269335 0.307555 0.135145 0.233622
H29   H     H_    0.265396 0.311322 0.026523 0.242387
H30   H     H_    0.342486 0.255180 0.076182 0.253368
H31   H     H_    0.605740 0.672605 0.732721 0.149072
H32   H     H_    0.631559 0.653618 0.629946 0.183920
H33   H     H_    0.779040 0.636031 0.661953 0.268645
H34   H     H_    0.512230 0.123654 0.370416 0.163814
H35   H     H_    0.746779 0.725207 0.700803 0.207298
H36   H     H_    0.758339 0.645970 0.768389 0.277897
H37   H     H_    0.295124 0.402972 0.227673 0.147538
H38   H     H_    0.299070 0.469711 0.308280 0.130541
H39   H     H_    0.277503 0.361937 0.407252 0.249898
H40   H     H_    0.192182 0.368916 0.335812 0.224667
H41   H     H_    0.269549 0.297890 0.323211 0.254491
H42   H     H_    0.491554 0.878053 0.369435 0.162153
H43   H     H_    0.489422 0.119944 0.628073 0.157411
H44   H     H_    0.356952 0.685805 0.620389 0.152395
H45   H     H_    0.360236 0.777284 0.668904 0.147384
H46   H     H_    0.411436 0.719816 0.794825 0.225297
N1    N     N_R   0.499980 0.499970 0.701220 -0.290236
N2    N     N_R   0.500020 0.500030 0.298780 -0.301129
O1    O     O_R   0.499990 0.391240 0.567930 -0.519545
O2    O     O_3   0.522096 0.270282 0.354105 -0.517368
O3    O     O_3   0.484401 0.731185 0.352313 -0.519284
O4    O     O_3   0.496557 0.267253 0.647178 -0.520793
O5    O     O_3   0.621945 0.586465 0.868404 -0.532032
O6    O     O_3   0.425971 0.369891 0.144158 -0.553061
O7    O     O_3   0.636773 0.560457 0.704109 -0.539445
O8    O     O_3   0.399918 0.397223 0.304017 -0.479289
O9    O     O_R   0.500010 0.608760 0.432070 -0.509367
O10   O     O_R   0.500000 0.391270 0.432120 -0.501694
O11   O     O_R   0.500000 0.608730 0.567880 -0.570159
O12   O     O_R   0.379070 0.499980 0.567900 -0.537260
O13   O     O_R   0.620930 0.500020 0.432100 -0.551109
O14   O     O_R   0.379080 0.500010 0.432080 -0.589361
O15   O     O_R   0.620920 0.499990 0.567920 -0.543194
O16   O     O_3   0.477226 0.731121 0.646230 -0.595067

loop_
_geom_bond_atom_site_label_1
_geom_bond_atom_site_label_2
_ccdc_geom_bond_type
C39   H46   S    
C47   C48   S    
C47   O5    S    
C38   H44   S    
C19   C21   S    
C26   C29   S    
C1    O1    A    
C50   H30   S    
C17   O13   A    
C55   C57   A    
Br1   C25   S    
C31   C33   S    
C25   C31   S    
C56   O3    S    
C53   O8    S    
C26   C32   S    
C20   C21   T    
C38   O16   S    
C46   H19   S    
C45   C56   A    
C54   H40   S    
C57   O4    S    
C51   H31   S    
C24   C31   S    
C47   H20   S    
C44   H16   S    
C8    O6    S    
C50   H28   S    
C49   O6    S    
C9    O7    S    
C32   C35   S    
Br5   C14   S    
C41   H7    S    
Br3   C11   S    
C24   C30   S    
C52   H35   S    
C53   H37   S    
C43   H13   S    
C38   H45   S    
C3    C58   A    
Br2   C26   S    
C8    C19   A    
C48   H22   S    
C51   C52   S    
C5    C6    T    
C51   H32   S    
C53   C54   S    
C50   H29   S    
C40   H4    S    
C13   N2    A    
C42   H10   S    
C44   C46   S    
C43   H11   S    
C51   O7    S    
C48   H25   S    
C16   C27   S    
C23   C36   A    
Cu1   Cu2   S    
C2    H43   S    
C11   C14   A    
C12   O11   A    
C10   N2    A    
C46   H18   S    
C34   O2    S    
C7    C18   A    
C40   O2    S    
C54   H39   S    
C58   H42   S    
C42   O3    S    
C22   C29   S    
C34   C37   A    
C24   C26   S    
C44   H15   S    
C39   H2    S    
C23   O16   S    
Cu1   O11   S    
C24   H12   S    
C11   N1    A    
C42   C43   S    
C41   H8    S    
C22   C32   S    
C3    C36   A    
C23   C45   A    
Cu2   O14   S    
C53   H38   S    
Cu1   O1    S    
C43   H14   S    
C39   H3    S    
C36   H23   S    
C2    C4    A    
Cu2   N2    S    
C44   O4    S    
C8    C10   A    
C40   C41   S    
C4    C6    S    
C15   C19   A    
C49   H26   S    
C13   C15   A    
C14   C18   A    
Br8   C29   S    
C52   H33   S    
C17   O15   A    
C42   H9    S    
Cu2   O10   S    
C22   H1    S    
C9    N1    A    
C2    C57   A    
C7    C9    A    
C38   C39   S    
C7    O5    S    
C22   C25   S    
C1    C55   S    
C40   H5    S    
Cu1   O15   S    
C1    O10   A    
C12   C45   S    
C46   H17   S    
C4    C37   A    
C18   C20   S    
C25   C30   S    
C12   O9    A    
C47   H21   S    
Cu1   O12   S    
C30   C32   S    
Br4   C13   S    
C3    C5    S    
C49   C50   S    
C54   H41   S    
Br6   C15   S    
Cu2   O9    S    
Br7   C30   S    
Cu2   O13   S    
C27   C33   T    
Cu1   N1    S    
C37   H34   S    
C17   C28   S    
C16   O14   A    
C48   H24   S    
C29   C31   S    
C49   H27   S    
C10   O8    S    
C16   O12   A    
C41   H6    S    
C28   C35   T    
C52   H36   S    
C34   C55   A    
C56   C58   A    
