data_mof_unit_56929.cif
_audit_creation_date              2012-12-11T16:30:19-0500
_audit_creation_method            fapswitch 2.2
_symmetry_space_group_name_H-M    P1
_symmetry_Int_Tables_number       1
_space_group_crystal_system       triclinic
_cell_length_a                    8.255775
_cell_length_b                    17.387383
_cell_length_c                    22.888645
_cell_angle_alpha                 95.739822
_cell_angle_beta                  89.754202
_cell_angle_gamma                 96.096109
_cell_volume                      3250.55504644

loop_
_atom_site_label
_atom_site_type_symbol
_atom_type_description
_atom_site_fract_x
_atom_site_fract_y
_atom_site_fract_z
_atom_type_partial_charge
Ba1   Ba    Ba6+2 0.852790 0.535910 0.472200 1.641533
Ba2   Ba    Ba6+2 0.337030 0.464150 0.527810 1.649552
C1    C     C_3   0.663744 0.822081 0.321726 -0.362288
C2    C     C_R   0.092978 0.562809 0.939402 -0.027640
C3    C     C_R   0.047225 0.557673 0.879230 0.593152
C4    C     C_3   0.108450 0.700939 0.312539 0.319005
C5    C     C_R   0.992335 0.419088 0.877065 0.588260
C6    C     C_R   0.032087 0.422626 0.937451 -0.020033
C7    C     C_R   0.083147 0.494880 0.968733 -0.052595
C8    C     C_R   0.147410 0.634411 0.971158 -0.073723
C9    C     C_R   0.191360 0.638402 0.030519 -0.074255
C10   C     C_R   0.180652 0.571054 0.060480 -0.019554
C11   C     C_R   0.125344 0.499104 0.029515 -0.051486
C12   C     C_3   0.639597 0.740954 0.341790 0.348811
C13   C     C_R   0.022311 0.355206 0.967263 -0.075286
C14   C     C_R   0.061393 0.359495 0.027004 -0.075252
C15   C     C_R   0.113379 0.431250 0.058949 -0.027209
C16   C     C_3   0.081014 0.723154 0.251076 -0.304982
C17   C     C_R   0.154738 0.436460 0.119436 0.591148
C18   C     C_R   0.224442 0.574193 0.120573 0.576593
C19   C     C_2   0.803043 0.440279 0.768148 -0.094596
C20   C     C_3   0.768923 0.419122 0.703236 -0.077157
C21   C     C_1   0.007266 0.511126 0.684836 0.031622
C22   C     C_2   0.053733 0.517327 0.741096 -0.090743
C23   C     C_3   0.492114 0.353628 0.350264 0.291666
C24   C     C_2   0.945863 0.481271 0.786613 0.212957
C25   C     C_R   0.407584 0.546923 0.232104 -0.094718
C26   C     C_R   0.450099 0.552420 0.291774 -0.017369
C27   C     C_R   0.188519 0.485913 0.314441 0.031263
C28   C     C_3   0.211277 0.700751 0.597790 0.313948
C29   C     C_R   0.143865 0.480346 0.254384 -0.098990
C30   C     C_R   0.252404 0.512112 0.212422 0.205363
C31   C     C_2   0.874675 0.467715 0.664152 -0.270707
C32   C     C_R   0.409141 0.720287 0.474890 -0.295805
C33   C     C_R   0.552975 0.745209 0.505869 0.062707
C34   C     C_3   0.479064 0.333047 0.284179 -0.359714
C35   C     C_R   0.610637 0.824465 0.512534 -0.117936
C36   C     C_R   0.522197 0.878881 0.488881 -0.007971
C37   C     C_R   0.372721 0.853450 0.460044 -0.133354
C38   C     C_R   0.315406 0.773969 0.454091 0.012893
C39   C     C_R   0.591585 0.163901 0.486865 -0.108683
C40   C     C_3   0.226325 0.788415 0.612927 -0.382175
C41   C     C_R   0.643378 0.243633 0.492770 0.044288
C42   C     C_R   0.885521 0.220542 0.544561 0.005237
C43   C     C_R   0.834331 0.140276 0.539378 -0.132659
C44   C     C_R   0.685391 0.111819 0.510927 0.004178
C45   C     C_3   0.001419 0.278567 0.683995 0.347485
C46   C     C_1   0.630671 0.029354 0.503669 -0.001596
C47   C     C_1   0.581492 0.960811 0.496868 0.001278
C48   C     C_R   0.785793 0.271623 0.523681 -0.279110
C49   C     C_3   0.983114 0.299021 0.402875 0.311820
C50   C     C_3   0.966031 0.211462 0.386874 -0.382696
C51   C     C_3   0.701452 0.630409 0.646506 0.297548
C52   C     C_3   0.714007 0.649974 0.712712 -0.344753
C53   C     C_3   0.955728 0.231820 0.735437 -0.343195
C54   C     C_3   0.493088 0.264659 0.684926 0.362339
C55   C     C_3   0.432961 0.198624 0.721049 -0.347983
C56   C     C_R   0.339255 0.523980 0.332427 -0.302238
H1    H     H_    0.703080 0.742561 0.384701 0.077713
H2    H     H_    0.608753 0.579834 0.636795 0.089561
H3    H     H_    0.610944 0.863751 0.354491 0.074493
H4    H     H_    0.810764 0.698711 0.723537 0.131556
H5    H     H_    0.744453 0.598778 0.733992 0.078034
H6    H     H_    0.595884 0.666957 0.730268 0.135417
H7    H     H_    0.506751 0.725069 0.347249 -0.054929
H8    H     H_    0.602105 0.822522 0.278744 0.125485
H9    H     H_    0.371862 0.368533 0.366823 0.020771
H10   H     H_    0.584510 0.404731 0.359127 0.062338
H11   H     H_    0.384997 0.282969 0.273907 0.140275
H12   H     H_    0.309737 0.805239 0.651077 0.128475
H13   H     H_    0.444261 0.383267 0.262626 0.072244
H14   H     H_    0.064885 0.669884 0.219892 0.124138
H15   H     H_    0.060665 0.336879 0.700854 0.073648
H16   H     H_    0.886620 0.285371 0.660983 -0.082555
H17   H     H_    0.062211 0.232738 0.765016 0.144112
H18   H     H_    0.855681 0.257159 0.760633 0.126637
H19   H     H_    0.912853 0.170757 0.719148 0.099392
H20   H     H_    0.627710 0.269630 0.687009 -0.080316
H21   H     H_    0.452815 0.249470 0.638540 0.073417
H22   H     H_    0.486861 0.145001 0.703996 0.064958
H23   H     H_    0.275512 0.818377 0.575198 0.062957
H24   H     H_    0.298716 0.186791 0.718426 0.149692
H25   H     H_    0.021638 0.649462 0.319178 0.103962
H26   H     H_    0.470231 0.213889 0.767695 0.117781
H27   H     H_    0.051244 0.306132 0.048080 0.123777
H28   H     H_    0.983366 0.298653 0.944506 0.120618
H29   H     H_    0.233132 0.694761 0.053021 0.122086
H30   H     H_    0.495655 0.568895 0.201016 0.110122
H31   H     H_    0.156821 0.687795 0.950122 0.123511
H32   H     H_    0.172230 0.546997 0.754257 0.121752
H33   H     H_    0.720943 0.413953 0.799466 0.104220
H34   H     H_    0.104681 0.807481 0.623953 0.127002
H35   H     H_    0.026111 0.451119 0.240393 0.120350
H36   H     H_    0.374164 0.527817 0.378218 0.082286
H37   H     H_    0.235129 0.685615 0.315950 -0.041530
H38   H     H_    0.853573 0.455499 0.617222 0.080973
H39   H     H_    0.481229 0.142431 0.462356 0.075491
H40   H     H_    0.299986 0.895063 0.443660 0.082423
H41   H     H_    0.910841 0.100530 0.556207 0.076206
H42   H     H_    0.721805 0.843766 0.537171 0.086276
H43   H     H_    0.364073 0.659227 0.470669 0.071524
H44   H     H_    0.825561 0.333279 0.527528 0.058470
H45   H     H_    0.862907 0.317733 0.414906 0.000712
H46   H     H_    0.969233 0.753150 0.249451 0.146294
H47   H     H_    0.186703 0.762384 0.237698 0.124824
H48   H     H_    0.333333 0.682599 0.587804 0.004539
H49   H     H_    0.129958 0.685624 0.558902 0.062509
H50   H     H_    0.068692 0.313508 0.440551 0.063298
H51   H     H_    0.598164 0.317630 0.266473 0.129395
H52   H     H_    0.795700 0.840756 0.317287 0.140808
H53   H     H_    0.876162 0.195343 0.350581 0.132793
H54   H     H_    0.924161 0.180695 0.425077 0.061471
H55   H     H_    0.085605 0.192455 0.372702 0.126312
H56   H     H_    0.820707 0.615562 0.629619 0.006436
N1    N     N_R   0.996297 0.486286 0.848517 -0.422877
N2    N     N_R   0.208119 0.507598 0.150096 -0.424058
O1    O     O_2   0.894270 0.458150 0.360790 -0.459490
O2    O     O_2   0.226442 0.227337 0.541778 -0.484762
O3    O     O_3   0.110631 0.239910 0.647496 -0.596220
O4    O     O_3   0.134750 0.458940 0.431830 -0.490929
O5    O     O_3   0.566070 0.591710 0.528970 -0.489494
O6    O     O_2   0.362610 0.313970 0.472520 -0.456193
O7    O     O_3   0.538097 0.289495 0.376278 -0.641134
O8    O     O_2   0.472256 0.484825 0.707256 -0.487704
O9    O     O_3   0.430963 0.333692 0.708002 -0.572242
O10   O     O_2   0.050803 0.616951 0.854537 -0.594565
O11   O     O_2   0.955614 0.355712 0.849741 -0.621723
O12   O     O_3   0.657361 0.695153 0.621173 -0.635611
O13   O     O_2   0.145894 0.377301 0.144466 -0.595000
O14   O     O_2   0.277149 0.636540 0.146549 -0.615369
O15   O     O_3   0.663190 0.596710 0.395570 -0.486139
O16   O     O_2   0.786118 0.546186 0.292175 -0.500138
O17   O     O_3   0.041151 0.334591 0.353807 -0.627244
O18   O     O_3   0.705637 0.688493 0.299864 -0.600926
O19   O     O_2   0.827090 0.686050 0.527520 -0.459521
O20   O     O_3   0.077580 0.635890 0.424230 -0.495358
O21   O     O_2   0.979477 0.774191 0.461641 -0.484482
O22   O     O_3   0.080829 0.763597 0.353619 -0.602460
O23   O     O_2   0.295430 0.541870 0.639250 -0.452442
O24   O     O_3   0.054960 0.541130 0.568170 -0.496244
O25   O     O_3   0.526510 0.403350 0.604440 -0.471146
O26   O     O_3   0.147721 0.665474 0.646368 -0.626494
O27   O     O_3   0.623640 0.408350 0.471030 -0.477070
O28   O     O_3   0.112120 0.364170 0.575770 -0.477351
P1    P     P_3+3 0.063260 0.435680 0.369690 0.995864
P2    P     P_3+3 0.650710 0.674870 0.544690 0.986450
P3    P     P_3+3 0.112757 0.737327 0.424125 0.942125
P4    P     P_3+3 0.126450 0.564380 0.630310 0.995516
P5    P     P_3+3 0.084803 0.262375 0.575688 0.963803
P6    P     P_3+3 0.652076 0.594328 0.319066 0.945246
P7    P     P_3+3 0.543825 0.311693 0.452567 0.952377
P8    P     P_3+3 0.549560 0.411910 0.681157 0.962607

loop_
_geom_bond_atom_site_label_1
_geom_bond_atom_site_label_2
_ccdc_geom_bond_type
O3    P5    S    
C19   C24   D    
C26   P6    S    
C28   H49   S    
O16   P6    D    
Ba1   P1    S    
C23   H9    S    
O24   P4    S    
C54   H20   S    
C5    C6    A    
C36   C47   S    
C50   H55   S    
C51   H56   S    
C12   H1    S    
C23   H10   S    
C35   C36   A    
C54   H21   S    
C32   C38   A    
Ba2   O23   S    
C27   C56   A    
C33   C35   A    
C22   C24   S    
C32   C33   A    
C27   P1    S    
C36   C37   A    
C53   H19   S    
C52   H5    S    
C50   H54   S    
C1    H3    S    
Ba2   P4    S    
C13   C14   A    
O18   P6    S    
C40   H12   S    
Ba2   O28   S    
C54   C55   S    
O1    P1    D    
Ba1   Ba2   S    
C5    N1    Am   
C7    C11   A    
C24   N1    S    
C8    H31   S    
C9    H29   S    
C14   C15   A    
C21   C31   D    
C3    O10   D    
C21   C22   D    
Ba1   O20   S    
C34   H13   S    
C53   H17   S    
O27   P7    S    
O8    P8    D    
O4    P1    S    
C19   C20   S    
C28   H48   S    
Ba2   O27   S    
C39   C41   A    
C55   H22   S    
Ba1   P2    S    
C25   H30   S    
C40   H23   S    
C51   H2    S    
O7    P7    S    
Ba2   O6    S    
C16   H14   S    
C4    C16   S    
C20   P8    S    
O23   P4    D    
C32   H43   S    
C49   C50   S    
O26   P4    S    
C45   H15   S    
C43   H41   S    
C37   C38   A    
C18   N2    Am   
Ba2   O4    S    
C49   H50   S    
C37   H40   S    
Ba1   O1    S    
C12   O18   S    
C50   H53   S    
C29   H35   S    
Ba1   O4    S    
C4    O22   S    
O2    P5    D    
O28   P5    S    
Ba1   O27   S    
C51   O12   S    
C29   C30   A    
O22   P3    S    
C39   C44   A    
O19   P2    D    
C10   C18   A    
C6    C7    A    
C55   H26   S    
C16   H46   S    
C54   O9    S    
C30   N2    S    
C23   O7    S    
C1    C12   S    
C13   H28   S    
C53   H18   S    
C46   C47   T    
C48   H44   S    
C6    C13   A    
C14   H27   S    
C39   H39   S    
C1    H8    S    
O17   P1    S    
C2    C8    A    
C31   H38   S    
C34   H51   S    
C41   P7    S    
C42   C43   A    
C45   C53   S    
C19   H33   S    
Ba2   O5    S    
C42   C48   A    
C17   O13   D    
C20   C31   S    
O9    P8    S    
C4    H25   S    
C38   P3    S    
C25   C30   A    
O5    P2    S    
O21   P3    D    
C45   H16   S    
C18   O14   D    
C2    C3    A    
Ba1   O15   S    
C22   H32   S    
C9    C10   A    
C41   C48   A    
C51   C52   S    
C26   C56   A    
C52   H4    S    
C21   P4    S    
C42   P5    S    
C28   O26   S    
C11   C15   A    
Ba2   O24   S    
O6    P7    D    
C56   H36   S    
C16   H47   S    
C27   C29   A    
C49   O17   S    
O12   P2    S    
C52   H6    S    
C17   N2    Am   
C45   O3    S    
C15   C17   A    
C12   H7    S    
C40   H34   S    
C34   H11   S    
Ba1   O5    S    
O20   P3    S    
C8    C9    A    
C23   C34   S    
C44   C46   S    
C43   C44   A    
C10   C11   A    
C4    H37   S    
C25   C26   A    
Ba2   O25   S    
C55   H24   S    
C28   C40   S    
O15   P6    S    
Ba1   O24   S    
C1    H52   S    
C5    O11   D    
C2    C7    A    
Ba1   O19   S    
C49   H45   S    
C33   P2    S    
C35   H42   S    
C3    N1    Am   
O25   P8    S    
