data_mof_unit_63091.cif
_audit_creation_date              2013-03-05T16:13:31-0500
_audit_creation_method            fapswitch 2.2
_symmetry_space_group_name_H-M    P1
_symmetry_Int_Tables_number       1
_space_group_crystal_system       triclinic
_cell_length_a                    36.974825
_cell_length_b                    30.280489
_cell_length_c                    21.322995
_cell_angle_alpha                 89.913326
_cell_angle_beta                  54.903823
_cell_angle_gamma                 89.913548
_cell_volume                      19533.0353662

loop_
_atom_site_label
_atom_site_type_symbol
_atom_site_description
_atom_site_fract_x
_atom_site_fract_y
_atom_site_fract_z
_atom_type_partial_charge
O1    O     O_R   0.934530 0.463050 0.065470 -0.616628
O2    O     O_R   0.065470 0.463050 0.934530 -0.616540
O3    O     O_R   0.434530 0.963050 0.065470 -0.617776
O4    O     O_R   0.565470 0.963050 0.934530 -0.616100
O5    O     O_R   0.934550 0.536970 0.065450 -0.618867
O6    O     O_R   0.065450 0.536970 0.934550 -0.618785
O7    O     O_R   0.434550 0.036970 0.065450 -0.619123
O8    O     O_R   0.565450 0.036970 0.934550 -0.618988
C1    C     C_R   0.913659 0.500108 0.084915 0.871447
C2    C     C_R   0.086341 0.500073 0.915097 0.871530
C3    C     C_R   0.413650 0.000111 0.084880 0.871148
C4    C     C_R   0.586333 0.000070 0.915119 0.873054
O9    O     O_R   0.000010 0.463050 0.093020 -0.609532
O10   O     O_R   0.999990 0.463050 0.906980 -0.609276
O11   O     O_R   0.500010 0.963050 0.093020 -0.619216
O12   O     O_R   0.499990 0.963050 0.906980 -0.609073
O13   O     O_R   0.000020 0.536970 0.093000 -0.623733
O14   O     O_R   0.999980 0.536970 0.907000 -0.623896
O15   O     O_R   0.500020 0.036970 0.093000 -0.618507
O16   O     O_R   0.499980 0.036970 0.907000 -0.623784
C5    C     C_R   0.999585 0.499986 0.121975 0.884823
C6    C     C_R   0.000403 0.500042 0.878037 0.884753
C7    C     C_R   0.499568 0.999933 0.122029 0.885393
C8    C     C_R   0.500407 0.000042 0.878033 0.885513
Zn1   Zn    Zn3+2 0.000000 0.450650 0.000000 1.021989
Zn2   Zn    Zn3+2 0.500000 0.950650 0.000000 1.013089
Zn3   Zn    Zn3+2 0.000000 0.549370 0.000000 0.993099
Zn4   Zn    Zn3+2 0.500000 0.049370 0.000000 0.994272
C9    C     C_R   0.971970 0.342786 0.486231 -0.056342
C10   C     C_R   0.028205 0.342603 0.513206 -0.056874
C11   C     C_R   0.472115 0.842831 0.485731 -0.057661
C12   C     C_R   0.528091 0.842594 0.513311 -0.054348
C13   C     C_R   0.484252 0.702789 0.567832 -0.135862
C14   C     C_R   0.515609 0.702755 0.431584 -0.135903
C15   C     C_R   0.015599 0.202768 0.431652 -0.135654
C16   C     C_R   0.984445 0.202768 0.567820 -0.135854
C17   C     C_R   0.971663 0.296616 0.487012 -0.031537
C18   C     C_R   0.028546 0.296436 0.512227 -0.031718
C19   C     C_R   0.471757 0.796659 0.486563 -0.029682
C20   C     C_R   0.528391 0.796426 0.512375 -0.032595
C21   C     C_3   0.986758 0.539809 0.242769 -0.139845
C22   C     C_3   0.012844 0.540062 0.757442 -0.139953
C23   C     C_3   0.475588 0.034442 0.253497 -0.139871
C24   C     C_3   0.512920 0.040036 0.757365 -0.140050
C25   C     C_3   0.028028 0.530548 0.242583 -0.194504
C26   C     C_3   0.971667 0.530451 0.757570 -0.194614
C27   C     C_3   0.517713 0.037856 0.252649 -0.187975
C28   C     C_3   0.471726 0.030499 0.757512 -0.194866
H1    H     H_    0.051157 0.555836 0.237974 0.161602
H2    H     H_    0.948292 0.555542 0.762299 0.161800
H3    H     H_    0.532352 0.068867 0.256384 0.156330
H4    H     H_    0.448396 0.055633 0.762194 0.161561
H5    H     H_    0.976372 0.572598 0.234989 0.164636
H6    H     H_    0.022907 0.572939 0.765394 0.164569
H7    H     H_    0.456166 0.062653 0.254139 0.159757
H8    H     H_    0.523044 0.072894 0.765256 0.164520
C29   C     C_3   0.999778 0.499447 0.311268 -0.092921
C30   C     C_3   0.000220 0.499565 0.688738 -0.093067
C31   C     C_3   0.499603 0.000121 0.311477 -0.092722
C32   C     C_3   0.500220 0.999562 0.688736 -0.093532
C33   C     C_3   0.958402 0.508680 0.312524 -0.251860
C34   C     C_3   0.041503 0.509152 0.687530 -0.252072
C35   C     C_3   0.457429 0.996668 0.313490 -0.232861
C36   C     C_3   0.541522 0.009074 0.687509 -0.251844
C37   C     C_3   0.971293 0.469109 0.258162 -0.070637
C38   C     C_3   0.028996 0.469488 0.741696 -0.070365
C39   C     C_3   0.481382 0.962264 0.248704 -0.076507
C40   C     C_3   0.528943 0.969434 0.741747 -0.070271
C41   C     C_3   0.012077 0.460382 0.257679 0.336249
C42   C     C_3   0.988298 0.460417 0.742140 0.336433
C43   C     C_3   0.522773 0.966102 0.247689 0.328936
C44   C     C_3   0.488229 0.960437 0.742209 0.336566
C45   C     C_3   0.040704 0.490590 0.188002 -0.213837
C46   C     C_3   0.959380 0.490401 0.811957 -0.213928
C47   C     C_3   0.541582 0.003111 0.187429 -0.208317
C48   C     C_3   0.459367 0.990473 0.811971 -0.213916
C49   C     C_3   0.999302 0.499842 0.189612 -0.068501
C50   C     C_3   0.000689 0.500004 0.810398 -0.068453
C51   C     C_3   0.499347 0.999625 0.189671 -0.083297
C52   C     C_3   0.500693 0.000001 0.810393 -0.068694
H9    H     H_    0.924846 0.515987 0.364355 0.174869
H10   H     H_    0.074986 0.516726 0.635730 0.174630
H11   H     H_    0.423178 0.994001 0.365972 0.175517
H12   H     H_    0.575018 0.016586 0.635695 0.174903
H13   H     H_    0.074069 0.482842 0.136040 0.162078
H14   H     H_    0.926090 0.482390 0.863879 0.162166
H15   H     H_    0.575763 0.005320 0.134647 0.170013
H16   H     H_    0.426063 0.982522 0.863908 0.162057
C53   C     C_R   0.795067 0.535103 0.175040 0.300944
C54   C     C_R   0.204905 0.534813 0.825261 0.301063
C55   C     C_R   0.295002 0.035322 0.175726 0.300452
C56   C     C_R   0.704820 0.034647 0.826131 0.302713
C57   C     C_R   0.841448 0.536014 0.128239 -0.142133
C58   C     C_R   0.158520 0.535755 0.872055 -0.142003
C59   C     C_R   0.341388 0.036262 0.128908 -0.142494
C60   C     C_R   0.658435 0.035529 0.872894 -0.140574
C61   C     C_R   0.865405 0.500296 0.130735 -0.126718
C62   C     C_R   0.134595 0.500186 0.869327 -0.126703
C63   C     C_R   0.365379 0.000296 0.130652 -0.126054
C64   C     C_R   0.634572 0.000185 0.869425 -0.125311
C65   C     C_R   0.842926 0.463751 0.177756 -0.172853
C66   C     C_R   0.157104 0.463730 0.822121 -0.172800
C67   C     C_R   0.342910 0.963473 0.176847 -0.176183
C68   C     C_R   0.657120 0.963981 0.821538 -0.171527
H17   H     H_    0.860733 0.436194 0.180418 0.177664
H18   H     H_    0.139317 0.436285 0.819298 0.177690
H19   H     H_    0.360715 0.935699 0.178898 0.174192
H20   H     H_    0.639358 0.936713 0.818174 0.176924
C69   C     C_R   0.797252 0.462518 0.222692 -0.216392
C70   C     C_R   0.202783 0.462459 0.777186 -0.216457
C71   C     C_R   0.297239 0.962220 0.221759 -0.218219
C72   C     C_R   0.702801 0.962757 0.776611 -0.214068
H21   H     H_    0.780301 0.434168 0.259225 0.163706
H22   H     H_    0.219759 0.434188 0.740483 0.163664
H23   H     H_    0.280305 0.933655 0.257672 0.162393
H24   H     H_    0.719815 0.934688 0.739368 0.163655
C73   C     C_R   0.773464 0.497893 0.221636 -0.044622
C74   C     C_R   0.226542 0.497707 0.778434 -0.044643
C75   C     C_R   0.273432 0.997854 0.221550 -0.043317
C76   C     C_R   0.726516 0.997798 0.778587 -0.044466
C77   C     C_R   0.702127 0.479532 0.244662 -0.085427
C78   C     C_R   0.297941 0.478941 0.755052 -0.085782
C79   C     C_R   0.202088 0.979111 0.244921 -0.087633
C80   C     C_R   0.797937 0.979178 0.755250 -0.082590
H25   H     H_    0.719196 0.466725 0.186856 0.146444
H26   H     H_    0.280913 0.465767 0.812659 0.146269
H27   H     H_    0.219144 0.966010 0.187301 0.145745
H28   H     H_    0.780920 0.966098 0.812914 0.149541
C81   C     C_R   0.656329 0.480710 0.291197 -0.178658
C82   C     C_R   0.343739 0.480183 0.708520 -0.178633
C83   C     C_R   0.156290 0.980307 0.291468 -0.178826
C84   C     C_R   0.843735 0.980370 0.708661 -0.178417
H29   H     H_    0.638264 0.468271 0.269091 0.156160
H30   H     H_    0.361853 0.467416 0.730401 0.155751
H31   H     H_    0.138203 0.967572 0.269588 0.155744
H32   H     H_    0.861853 0.967679 0.730581 0.156770
C85   C     C_R   0.634188 0.497751 0.365723 -0.037367
C86   C     C_R   0.365823 0.497702 0.634266 -0.036853
C87   C     C_R   0.134173 0.997742 0.365733 -0.036650
C88   C     C_R   0.865813 0.997734 0.634306 -0.037708
C89   C     C_R   0.658107 0.513036 0.393789 -0.179986
C90   C     C_R   0.341858 0.513408 0.606453 -0.180158
C91   C     C_R   0.158104 0.013424 0.393537 -0.179844
C92   C     C_R   0.841834 0.013332 0.606456 -0.179741
H33   H     H_    0.641414 0.526236 0.451260 0.160695
H34   H     H_    0.358518 0.526987 0.549192 0.160234
H35   H     H_    0.141417 0.026950 0.450798 0.160347
H36   H     H_    0.858485 0.026783 0.549114 0.160611
C93   C     C_R   0.703963 0.512507 0.346677 -0.133117
C94   C     C_R   0.296001 0.512826 0.653577 -0.132730
C95   C     C_R   0.203958 0.012885 0.346402 -0.131955
C96   C     C_R   0.795975 0.012800 0.653636 -0.134242
H37   H     H_    0.722474 0.525290 0.367720 0.145686
H38   H     H_    0.277452 0.525951 0.632756 0.145463
H39   H     H_    0.222483 0.025985 0.367212 0.144967
H40   H     H_    0.777418 0.025822 0.632765 0.145869
C97   C     C_R   0.725753 0.496171 0.272087 0.144437
C98   C     C_R   0.274259 0.495998 0.727907 0.144588
C99   C     C_R   0.225728 0.996113 0.272083 0.145310
C100  C     C_R   0.774241 0.996146 0.728075 0.142556
C101  C     C_R   0.000060 0.365711 0.499814 -0.109015
C102  C     C_R   0.500078 0.865723 0.499631 -0.112009
C103  C     C_R   0.000097 0.273651 0.499608 -0.027513
C104  C     C_R   0.500034 0.773663 0.499509 -0.027712
C105  C     C_R   0.499957 0.273954 0.500229 0.106528
C106  C     C_R   0.999955 0.773955 0.500243 0.106430
H41   H     H_    0.471943 0.720522 0.620609 0.154642
H42   H     H_    0.527938 0.720458 0.378714 0.153624
H43   H     H_    0.027851 0.220487 0.378826 0.154865
H44   H     H_    0.972220 0.220487 0.620577 0.154893
O17   O     O_R   0.036960 0.565440 0.463030 -0.632868
O18   O     O_R   0.963040 0.565440 0.536970 -0.632753
O19   O     O_R   0.536960 0.065440 0.463030 -0.631058
O20   O     O_R   0.463040 0.065440 0.536970 -0.632425
C107  C     C_R   0.999986 0.586269 0.500024 0.843356
C108  C     C_R   0.499986 0.086269 0.500020 0.843002
O21   O     O_R   0.036960 0.499960 0.370010 -0.603709
O22   O     O_R   0.963040 0.499960 0.629990 -0.603936
O23   O     O_R   0.536960 0.999960 0.370010 -0.603349
O24   O     O_R   0.463040 0.999960 0.629990 -0.603725
O25   O     O_R   0.963040 0.499940 0.443930 -0.631853
O26   O     O_R   0.036960 0.499940 0.556070 -0.631775
O27   O     O_R   0.463040 0.999940 0.443930 -0.629474
O28   O     O_R   0.536960 0.999940 0.556070 -0.630888
C109  C     C_R   0.999947 0.499832 0.378456 0.937826
C110  C     C_R   0.000053 0.499877 0.621545 0.938256
C111  C     C_R   0.499925 0.000052 0.378487 0.916805
C112  C     C_R   0.500053 0.999875 0.621545 0.938542
Zn5   Zn    Zn3+2 0.049370 0.499970 0.450630 1.007198
Zn6   Zn    Zn3+2 0.950630 0.499970 0.549370 1.007054
Zn7   Zn    Zn3+2 0.549370 0.999970 0.450630 1.015199
Zn8   Zn    Zn3+2 0.450630 0.999970 0.549370 1.006513
O29   O     O_R   0.036980 0.434490 0.463020 -0.604328
O30   O     O_R   0.963020 0.434490 0.536980 -0.604719
O31   O     O_R   0.536980 0.934490 0.463020 -0.608360
O32   O     O_R   0.463020 0.934490 0.536980 -0.602234
H45   H     H_    0.472368 0.639695 0.620974 0.165772
H46   H     H_    0.527536 0.639632 0.378732 0.165514
H47   H     H_    0.027398 0.139660 0.378808 0.165912
H48   H     H_    0.972582 0.139666 0.620912 0.166089
C113  C     C_R   0.000017 0.413795 0.499968 0.963857
C114  C     C_R   0.500023 0.913799 0.499847 0.948066
O33   O     O_R   0.500030 0.565470 0.552480 -0.619344
O34   O     O_R   0.499970 0.565470 0.447520 -0.619683
O35   O     O_R   0.000030 0.065470 0.552480 -0.619355
O36   O     O_R   0.999970 0.065470 0.447520 -0.619519
C115  C     C_R   0.499963 0.634042 0.499864 -0.041040
C116  C     C_R   0.999992 0.134040 0.499869 -0.041321
C117  C     C_R   0.499991 0.586211 0.499962 0.879930
C118  C     C_R   0.999995 0.086210 0.499962 0.879897
O37   O     O_R   0.565480 0.500000 0.487030 -0.622130
O38   O     O_R   0.434520 0.500000 0.512970 -0.622135
O39   O     O_R   0.065480 0.000000 0.487030 -0.622183
O40   O     O_R   0.934520 0.000000 0.512970 -0.622008
O41   O     O_R   0.565480 0.499990 0.382000 -0.619333
O42   O     O_R   0.434520 0.499990 0.618000 -0.619074
O43   O     O_R   0.065480 0.999990 0.382000 -0.619139
O44   O     O_R   0.934520 0.999990 0.618000 -0.618826
C119  C     C_R   0.586270 0.499506 0.413768 0.873047
C120  C     C_R   0.413733 0.499503 0.586230 0.872676
C121  C     C_R   0.086265 0.999506 0.413773 0.872572
C122  C     C_R   0.913730 0.999507 0.586236 0.872888
Zn9   Zn    Zn3+2 0.500010 0.500000 0.570110 0.976050
Zn10  Zn    Zn3+2 0.499990 0.500000 0.429890 0.975632
Zn11  Zn    Zn3+2 0.000010 0.000000 0.570110 0.976861
Zn12  Zn    Zn3+2 0.999990 1.000000 0.429890 0.976326
C123  C     C_R   0.484585 0.657039 0.567852 -0.173908
C124  C     C_R   0.515303 0.657004 0.431778 -0.173892
C125  C     C_R   0.015257 0.157018 0.431829 -0.173669
C126  C     C_R   0.984736 0.157020 0.567824 -0.173604
O45   O     O_R   0.500000 0.434520 0.552520 -0.625125
O46   O     O_R   0.500000 0.434520 0.447480 -0.625060
O47   O     O_R   0.000000 0.934520 0.552520 -0.625049
O48   O     O_R   0.000000 0.934520 0.447480 -0.625056
C127  C     C_R   0.500000 0.413706 0.500041 0.859348
C128  C     C_R   0.999999 0.913706 0.500042 0.859170
C129  C     C_R   0.961946 0.703087 0.556484 -0.169497
C130  C     C_R   0.037987 0.703095 0.443979 -0.170022
C131  C     C_R   0.461955 0.203086 0.556496 -0.169657
C132  C     C_R   0.537977 0.203092 0.443931 -0.169523
H49   H     H_    0.932333 0.720664 0.599951 0.140395
H50   H     H_    0.067597 0.720674 0.400553 0.140006
H51   H     H_    0.432349 0.220663 0.599985 0.140109
H52   H     H_    0.567581 0.220671 0.400481 0.140582
C133  C     C_R   0.961838 0.657292 0.556148 -0.185623
C134  C     C_R   0.038094 0.657303 0.444157 -0.185673
C135  C     C_R   0.461846 0.157291 0.556162 -0.185321
C136  C     C_R   0.538083 0.157301 0.444111 -0.185484
H53   H     H_    0.932161 0.639974 0.599965 0.159492
H54   H     H_    0.067775 0.639999 0.400281 0.159397
H55   H     H_    0.432177 0.139974 0.600004 0.159398
H56   H     H_    0.567757 0.139996 0.400212 0.160697
C137  C     C_R   0.999965 0.634237 0.500106 -0.026540
C138  C     C_R   0.499965 0.134236 0.500094 -0.027474
C139  C     C_R   0.999965 0.726007 0.500260 0.105944
C140  C     C_R   0.499965 0.226005 0.500243 0.105780
C141  C     C_R   0.512656 0.296893 0.433497 -0.168802
C142  C     C_R   0.487271 0.296847 0.566916 -0.168844
C143  C     C_R   0.012672 0.796891 0.433499 -0.168933
C144  C     C_R   0.987250 0.796850 0.566937 -0.168809
H57   H     H_    0.522275 0.279333 0.381819 0.139702
H58   H     H_    0.477638 0.279249 0.618631 0.139453
H59   H     H_    0.022307 0.779329 0.381814 0.139538
H60   H     H_    0.977603 0.779254 0.618662 0.139675
C145  C     C_R   0.512421 0.342683 0.433546 -0.184157
C146  C     C_R   0.487548 0.342644 0.566755 -0.184422
C147  C     C_R   0.012437 0.842682 0.433543 -0.184327
C148  C     C_R   0.987527 0.842647 0.566772 -0.184101
H61   H     H_    0.522290 0.360001 0.381489 0.158600
H62   H     H_    0.477692 0.359936 0.618765 0.158435
H63   H     H_    0.022320 0.859998 0.381477 0.158545
H64   H     H_    0.977656 0.859941 0.618788 0.158734
C149  C     C_R   0.499995 0.365729 0.500120 -0.032394
C150  C     C_R   0.999993 0.865730 0.500125 -0.032446
C151  C     C_R   0.499937 0.725544 0.499649 0.113930
C152  C     C_R   0.000043 0.225536 0.499690 0.113177
C153  C     C_1   0.944426 0.366479 0.469040 0.272243
N1    N     N_1   0.922561 0.385354 0.455199 -0.172327
C154  C     C_1   0.055775 0.366099 0.530400 0.273131
N2    N     N_1   0.077664 0.384816 0.544240 -0.171353
C155  C     C_1   0.444743 0.866577 0.468216 0.266240
N3    N     N_1   0.423009 0.885498 0.454132 -0.177835
C156  C     C_1   0.555562 0.866071 0.530744 0.276056
N4    N     N_1   0.577374 0.884774 0.544771 -0.170488
C157  C     C_1   0.941700 0.272723 0.475932 0.193868
N5    N     N_1   0.917836 0.253673 0.467111 -0.167762
C158  C     C_1   0.058538 0.272359 0.523177 0.194062
N6    N     N_1   0.082425 0.253163 0.531894 -0.167495
C159  C     C_1   0.441898 0.772801 0.475189 0.191281
N7    N     N_1   0.418117 0.753779 0.466134 -0.170544
C160  C     C_1   0.558254 0.772328 0.523619 0.194234
N8    N     N_1   0.582038 0.753115 0.532570 -0.167209
C161  C     C_1   0.940352 0.435496 0.266053 0.246658
N9    N     N_1   0.915966 0.409015 0.272226 -0.181146
C162  C     C_1   0.060266 0.436138 0.733647 0.246140
N10   N     N_1   0.084911 0.409867 0.727351 -0.181581
C163  C     C_1   0.461671 0.920719 0.246672 0.261050
N11   N     N_1   0.446132 0.887971 0.245093 -0.176495
C164  C     C_1   0.560155 0.936028 0.733752 0.246162
N12   N     N_1   0.584753 0.909712 0.727498 -0.181809
N13   N     N_R   0.026048 0.416714 0.264789 0.201505
O49   O     O_R   0.034747 0.386235 0.215034 -0.367842
O50   O     O_R   0.031591 0.408394 0.318563 -0.417229
N14   N     N_R   0.974745 0.416633 0.734821 0.201582
O51   O     O_R   0.966379 0.386082 0.784388 -0.367568
O52   O     O_R   0.969184 0.408288 0.681115 -0.417537
N15   N     N_R   0.548059 0.928856 0.246777 0.210963
O53   O     O_R   0.589688 0.924621 0.191340 -0.367473
O54   O     O_R   0.529086 0.899720 0.301523 -0.411937
N16   N     N_R   0.474594 0.916678 0.734973 0.201404
O55   O     O_R   0.466174 0.886144 0.784596 -0.368280
O56   O     O_R   0.469015 0.908342 0.681286 -0.416356
N17   N     N_R   0.770074 0.571918 0.175992 0.202821
O57   O     O_R   0.739488 0.565893 0.164493 -0.378588
O58   O     O_R   0.778659 0.611822 0.186409 -0.369189
N18   N     N_R   0.229865 0.571486 0.824570 0.202688
O59   O     O_R   0.260539 0.565207 0.835820 -0.378696
O60   O     O_R   0.221206 0.611500 0.814546 -0.370292
N19   N     N_R   0.269964 0.072313 0.177353 0.202511
O61   O     O_R   0.239073 0.066548 0.166529 -0.377829
O62   O     O_R   0.278637 0.112091 0.188126 -0.370547
N20   N     N_R   0.729712 0.071159 0.826121 0.203123
O63   O     O_R   0.760217 0.064618 0.837705 -0.376413
O64   O     O_R   0.721048 0.111298 0.816650 -0.369669
C165  C     C_1   0.863734 0.572123 0.074518 0.299103
N21   N     N_1   0.881494 0.600939 0.031535 -0.165590
C166  C     C_1   0.136192 0.571720 0.926015 0.298719
N22   N     N_1   0.118396 0.600418 0.969191 -0.166067
C167  C     C_1   0.363629 0.072690 0.075917 0.299507
N23   N     N_1   0.381351 0.101762 0.033518 -0.165875
C168  C     C_1   0.636026 0.071156 0.927583 0.298478
N24   N     N_1   0.618162 0.099579 0.971348 -0.164795

loop_
_geom_bond_atom_site_label_1
_geom_bond_atom_site_label_2
_geom_bond_distance
_ccdc_geom_bond_type
N20   O64   1.301198 A    
C30   C110  1.436321 S    
C90   H34   1.083356 S    
C63   C67   1.400779 A    
C160  N8    1.157318 T    
C21   C33   1.550990 S    
C144  H60   1.083499 S    
C70   C74   1.393377 A    
C23   C35   1.551071 S    
N13   O49   1.300192 A    
C24   C36   1.551108 S    
C25   C29   1.537062 S    
C141  H57   1.083510 S    
C143  H59   1.083509 S    
C59   C63   1.417468 A    
C32   C44   1.521981 S    
C9    C153  1.453456 S    
C132  H52   1.083505 S    
O29   C113  1.282274 A    
C10   C18   1.398088 A    
C93   H37   1.083544 S    
C36   H12   1.110384 S    
O40   C122  1.284826 A    
C96   H40   1.083576 S    
C42   C46   1.534494 S    
C28   C32   1.537116 S    
C95   H39   1.083641 S    
O4    C4    1.287268 A    
C29   C109  1.436316 S    
O18   C107  1.283803 A    
C89   H33   1.083256 S    
O43   Zn12  2.015681 S    
C91   C95   1.387612 A    
C32   C112  1.436315 S    
O27   Zn8   2.019677 S    
C82   H30   1.083401 S    
O48   C128  1.284984 A    
H46   C124  1.083263 S    
C103  C152  1.456926 S    
O43   C121  1.283927 A    
N16   O56   1.299764 A    
C37   C49   1.527476 S    
C141  C145  1.386577 A    
C6    C50   1.436219 S    
C17   C157  1.452784 S    
C72   C76   1.393522 A    
C30   C42   1.521997 S    
O16   Zn4   2.019252 S    
O18   Zn6   2.017990 S    
C62   C66   1.400617 A    
O30   C113  1.282309 A    
C133  C137  1.401830 A    
O19   Zn7   2.017415 S    
O13   C5    1.273846 A    
O7    Zn4   2.015596 S    
N18   O59   1.300796 A    
O15   C7    1.275627 A    
O25   Zn6   2.019677 S    
C40   C44   1.524708 S    
O37   Zn9   2.016690 S    
C78   C98   1.396085 A    
O28   Zn7   2.019677 S    
C129  C133  1.386754 A    
C81   H29   1.083312 S    
C136  H56   1.083214 S    
C146  H62   1.083200 S    
O8    Zn4   2.015022 S    
C74   C98   1.445816 S    
C82   C86   1.402550 A    
Zn8   O32   2.017598 S    
C116  C126  1.401415 A    
C16   H44   1.083539 S    
O3    Zn2   2.015619 S    
C13   C123  1.385376 A    
C29   C33   1.539807 S    
C134  C137  1.401807 A    
C14   C151  1.397558 A    
C31   C35   1.538813 S    
C32   C36   1.539820 S    
C105  C140  1.451903 S    
H47   C125  1.083259 S    
C88   C122  1.450642 S    
C38   C42   1.524721 S    
C79   C99   1.396031 A    
C80   C100  1.396029 A    
C105  C141  1.399071 A    
O3    C3    1.287664 A    
C27   C31   1.536100 S    
O22   C110  1.273562 A    
C33   C37   1.540693 S    
C115  C124  1.401469 A    
C28   H4    1.110177 S    
O23   Zn7   2.018109 S    
C75   C99   1.445532 S    
C148  C150  1.401900 A    
C76   C100  1.445976 S    
C45   C49   1.536689 S    
C67   H19   1.083517 S    
C15   C125  1.385386 A    
C19   C104  1.408290 A    
C23   C27   1.550855 S    
C16   C152  1.397560 A    
C24   C28   1.548939 S    
C106  C144  1.399120 A    
N19   O62   1.301212 A    
C19   C159  1.452732 S    
C28   C48   1.553539 S    
C104  C151  1.457074 S    
C64   C68   1.400459 A    
O5    C1    1.283508 A    
C41   N13   1.457978 S    
C102  C114  1.455795 S    
C36   C40   1.540652 S    
C131  C135  1.386748 A    
C11   C155  1.453424 S    
C20   C104  1.408298 A    
C22   C26   1.548945 S    
N17   O58   1.301185 A    
C146  C149  1.401898 A    
C56   C60   1.403518 A    
C80   C84   1.386124 A    
C20   C160  1.452797 S    
C71   C75   1.393145 A    
O5    Zn3   2.015596 S    
C87   C91   1.401871 A    
C148  H64   1.083201 S    
C12   C102  1.411709 A    
C31   C111  1.435726 S    
C144  C148  1.386781 A    
C12   C156  1.453443 S    
C70   H22   1.083881 S    
O8    C4    1.283454 A    
C87   C121  1.450297 S    
N14   O52   1.299754 A    
C153  N1    1.157519 T    
C26   C30   1.537138 S    
C142  H58   1.083499 S    
C147  H63   1.083205 S    
C106  C139  1.451894 S    
C132  C140  1.399110 A    
C34   C38   1.540669 S    
O13   Zn3   2.018133 S    
O39   C121  1.284719 A    
C68   C72   1.382500 A    
C95   C99   1.396973 A    
C14   C124  1.385388 A    
C77   H25   1.083603 S    
C161  N9    1.156996 T    
O36   C118  1.283794 A    
C79   H27   1.083686 S    
C84   H32   1.083354 S    
C45   H13   1.110277 S    
C85   C119  1.450576 S    
C159  N7    1.157316 T    
C81   C85   1.402501 A    
C167  N23   1.157509 T    
O35   Zn11  2.017151 S    
O15   Zn4   2.018133 S    
C21   H5    1.110146 S    
C54   N18   1.439636 S    
C47   H15   1.110346 S    
C18   C103  1.408218 A    
C53   C73   1.407641 A    
C55   C75   1.407575 A    
C142  C146  1.386784 A    
C57   C61   1.417173 A    
C72   H24   1.083883 S    
O38   Zn10  2.016689 S    
C145  C149  1.401878 A    
C133  H53   1.083211 S    
C21   C25   1.548829 S    
O14   C6    1.273930 A    
C42   N14   1.457993 S    
C48   C52   1.536710 S    
C131  H51   1.083497 S    
C23   H7    1.110163 S    
C135  H55   1.083212 S    
O37   C119  1.284777 A    
Zn12  O48   2.017412 S    
C129  H49   1.083497 S    
C130  C139  1.399103 A    
O10   C6    1.273958 A    
C56   C76   1.407789 A    
C27   C47   1.552446 S    
C92   C96   1.387810 A    
C33   H9    1.110387 S    
C53   N17   1.439615 S    
O35   C118  1.283747 A    
C60   C64   1.416880 A    
C3    C63   1.461180 S    
C53   C57   1.403490 A    
O47   C128  1.285118 A    
Zn7   O31   2.018171 S    
C83   C87   1.402576 A    
C55   C59   1.403644 A    
C135  C138  1.401825 A    
Zn5   O29   2.018171 S    
C58   C166  1.449205 S    
C156  N4    1.157519 T    
C115  C117  1.448368 S    
O33   C117  1.283826 A    
O45   C127  1.285127 A    
O20   Zn8   2.017990 S    
C30   C34   1.539832 S    
O41   Zn10  2.015681 S    
C69   C73   1.393326 A    
H48   C126  1.083263 S    
C54   C74   1.407684 A    
O22   Zn6   2.018111 S    
O23   C111  1.274053 A    
C58   C62   1.417126 A    
C65   C69   1.382345 A    
O21   C109  1.273570 A    
C67   C71   1.382261 A    
O26   C110  1.273028 A    
C145  H61   1.083204 S    
O24   C112  1.273563 A    
C55   N19   1.439777 S    
O34   C117  1.283736 A    
C154  N2    1.157521 T    
C41   C45   1.534568 S    
C44   C48   1.534480 S    
C116  C125  1.401453 A    
C80   H28   1.083633 S    
N20   O63   1.300773 A    
C34   H10   1.110397 S    
C11   C102  1.411563 A    
C39   C163  1.467962 S    
C13   H41   1.083534 S    
C14   H42   1.083529 S    
Zn9   O45   2.018527 S    
C54   C58   1.403552 A    
C56   N20   1.439550 S    
N13   O50   1.299751 A    
O12   Zn2   2.018346 S    
C38   C50   1.527540 S    
C44   N16   1.457980 S    
N15   O53   1.300226 A    
O42   C120  1.284008 A    
C24   C52   1.536952 S    
O44   C122  1.283992 A    
O1    C1    1.287440 A    
C86   C90   1.401879 A    
C43   N15   1.456864 S    
C162  N10   1.157008 T    
O36   Zn12  2.018267 S    
C27   H3    1.110155 S    
C13   C151  1.397648 A    
C35   H11   1.110409 S    
C91   H35   1.083365 S    
C164  N12   1.156994 T    
C157  N5    1.157318 T    
O41   C119  1.284014 A    
C59   C167  1.449194 S    
C24   H8    1.110135 S    
C158  N6    1.157319 T    
C25   H1    1.110179 S    
C130  C134  1.386585 A    
O33   Zn9   2.017151 S    
C115  C123  1.401370 A    
C15   C152  1.397566 A    
C15   H43   1.083530 S    
C66   C70   1.382455 A    
C68   H20   1.083594 S    
C85   C89   1.401860 A    
N16   O55   1.300192 A    
C1    C61   1.460613 S    
C94   C98   1.396996 A    
C79   C83   1.386066 A    
C129  C139  1.399130 A    
C73   C97   1.445655 S    
C88   C92   1.401846 A    
C77   C81   1.386047 A    
O6    C2    1.283504 A    
O4    Zn2   2.016190 S    
C84   C88   1.402522 A    
O38   C120  1.284726 A    
C83   H31   1.083417 S    
Zn11  O47   2.018527 S    
C90   C94   1.387714 A    
O42   Zn9   2.015678 S    
C166  N22   1.157494 T    
C168  N24   1.157498 T    
C22   H6    1.110150 S    
N17   O57   1.300771 A    
C38   C162  1.467959 S    
C37   C41   1.524785 S    
O2    Zn1   2.016190 S    
C39   C43   1.522690 S    
O10   Zn1   2.018346 S    
C165  N21   1.157504 T    
O20   C108  1.283796 A    
C4    C64   1.460238 S    
C143  C147  1.386577 A    
C108  C138  1.452472 S    
N19   O61   1.300849 A    
C60   C168  1.449224 S    
C46   C50   1.536722 S    
C9    C17   1.398107 A    
C131  C140  1.399134 A    
C132  C136  1.386585 A    
C10   C101  1.411765 A    
C93   C97   1.396817 A    
C40   C52   1.527537 S    
C96   C100  1.396979 A    
C147  C150  1.401874 A    
C163  N11   1.156996 T    
C92   H36   1.083301 S    
C89   C93   1.387654 A    
O31   C114  1.282033 A    
O7    C3    1.283592 A    
C10   C154  1.453444 S    
C101  C113  1.456018 S    
O27   C111  1.272339 A    
Zn10  O46   2.017412 S    
C21   C49   1.537028 S    
C136  C138  1.401798 A    
C23   C51   1.536933 S    
C105  C142  1.399124 A    
O17   Zn5   2.017415 S    
C25   C45   1.553531 S    
C2    C62   1.460653 S    
C8    C52   1.436225 S    
O16   C8    1.273943 A    
O26   Zn5   2.019677 S    
C48   H16   1.110274 S    
O44   Zn11  2.015678 S    
C69   H21   1.083890 S    
C17   C103  1.408190 A    
C26   H2    1.110190 S    
O11   C7    1.273039 A    
C86   C120  1.450473 S    
O12   C8    1.273950 A    
C77   C97   1.395938 A    
O34   Zn10  2.018267 S    
O1    Zn1   2.015619 S    
O9    Zn1   2.019454 S    
C18   C158  1.452801 S    
C107  C137  1.452491 S    
C65   H17   1.083571 S    
C40   C164  1.467942 S    
C35   C39   1.540349 S    
O21   Zn5   2.018109 S    
O9    C5    1.274055 A    
C9    C101  1.411794 A    
O39   Zn11  2.016690 S    
O24   Zn8   2.018111 S    
O25   C109  1.273014 A    
O11   Zn2   2.019454 S    
C155  N3    1.157516 T    
O17   C107  1.283703 A    
O46   C127  1.284981 A    
O28   C112  1.273023 A    
N15   O54   1.300114 A    
C78   H26   1.083673 S    
O6    Zn3   2.015022 S    
C46   H14   1.110288 S    
H45   C123  1.083262 S    
C16   C126  1.385285 A    
N14   O51   1.300213 A    
C22   C50   1.536972 S    
N18   O60   1.301160 A    
C47   C51   1.538433 S    
O32   C114  1.282420 A    
O2    C2    1.287454 A    
C26   C46   1.553556 S    
C134  H54   1.083214 S    
O19   C108  1.283701 A    
C22   C34   1.551124 S    
O14   Zn3   2.019252 S    
C57   C165  1.449207 S    
C130  H50   1.083504 S    
C29   C41   1.522065 S    
C106  C143  1.399075 A    
C43   C47   1.536549 S    
C127  C149  1.452757 S    
C11   C19   1.398182 A    
C66   H18   1.083573 S    
C128  C150  1.452747 S    
C12   C20   1.398098 A    
O40   Zn12  2.016689 S    
Zn6   O30   2.017598 S    
C37   C161  1.467918 S    
C116  C118  1.448323 S    
C94   H38   1.083624 S    
C5    C49   1.436226 S    
C71   H23   1.083899 S    
C7    C51   1.437657 S    
C78   C82   1.386153 A    
C39   C51   1.530385 S    
C61   C65   1.400636 A    
C31   C43   1.518805 S    
