data_mof_unit_44867.cif
_audit_creation_date              2012-12-10T17:09:51-0500
_audit_creation_method            fapswitch 2.2
_symmetry_space_group_name_H-M    P1
_symmetry_Int_Tables_number       1
_space_group_crystal_system       triclinic
_cell_length_a                    10.813997
_cell_length_b                    13.120262
_cell_length_c                    11.709425
_cell_angle_alpha                 100.034034
_cell_angle_beta                  92.504829
_cell_angle_gamma                 90.738637
_cell_volume                      1634.03252665

loop_
_atom_site_label
_atom_site_type_symbol
_atom_type_description
_atom_site_fract_x
_atom_site_fract_y
_atom_site_fract_z
_atom_type_partial_charge
C1    C     C_R   0.498533 0.299707 0.478353 0.922380
C2    C     C_R   0.066338 0.603104 0.530711 -0.104182
C3    C     C_R   0.128767 0.507396 0.507394 -0.118186
C4    C     C_R   0.063539 0.412569 0.479668 0.343900
C5    C     C_R   0.933713 0.411821 0.478572 0.259732
C6    C     C_R   0.871104 0.505986 0.492764 -0.166906
C7    C     C_R   0.506538 0.816478 0.534534 -0.251581
C8    C     C_R   0.504949 0.187208 0.465357 -0.256166
C9    C     C_R   0.588477 0.025479 0.368613 0.411456
C10   C     C_R   0.567599 0.131712 0.372458 0.299000
C11   C     C_R   0.458988 0.137067 0.552165 0.391240
C12   C     C_R   0.262691 0.503572 0.502223 0.965703
C13   C     C_R   0.485293 0.032490 0.551421 -0.108554
C14   C     C_R   0.536120 0.973887 0.452161 -0.171028
C15   C     C_R   0.531900 0.865138 0.438325 0.415604
C16   C     C_R   0.483975 0.879754 0.642873 0.206248
C17   C     C_R   0.461790 0.985705 0.648026 0.491903
C18   C     C_R   0.382476 0.402426 0.024383 -0.319538
C19   C     C_R   0.393909 0.411296 0.146560 0.648238
C20   C     C_R   0.551555 0.539575 0.155660 0.113473
C21   C     C_R   0.541700 0.534437 0.033571 -0.075363
C22   C     C_R   0.454387 0.465994 0.966419 -0.159388
C23   C     C_R   0.503139 0.701547 0.521579 1.004270
C24   C     C_R   0.444230 0.461725 0.843224 0.560941
C25   C     C_R   0.608352 0.586808 0.855878 0.427298
C26   C     C_R   0.617379 0.596868 0.978797 0.296990
C27   C     C_R   0.737356 0.502266 0.498298 0.946367
C28   C     C_R   0.128441 0.699221 0.575434 0.339444
C29   C     C_R   0.063692 0.792827 0.583087 0.272266
C30   C     C_R   0.939704 0.791231 0.547938 -0.123053
C31   C     C_R   0.876564 0.698150 0.508522 0.375994
C32   C     C_R   0.936557 0.602216 0.509336 -0.127226
Cu1   Cu    Cu3+1 0.509250 0.507730 0.615930 1.123208
Cu2   Cu    Cu3+1 0.490750 0.492270 0.384070 1.079076
H1    H     H_    0.318730 0.344708 0.976467 0.169637
H2    H     H_    0.619481 0.590283 0.208222 0.206026
H3    H     H_    0.892278 0.863461 0.547645 0.215930
N1    N     N_R   0.523180 0.519350 0.790130 -0.248120
N2    N     N_R   0.476820 0.480650 0.209890 -0.226164
O1    O     O_R   0.506570 0.354460 0.582000 -0.548776
O2    O     O_R   0.490940 0.341410 0.386200 -0.490271
O3    O     O_R   0.327470 0.506530 0.597920 -0.525145
O4    O     O_R   0.311840 0.493480 0.402120 -0.558358
O5    O     O_R   0.509060 0.658590 0.613800 -0.491826
O6    O     O_R   0.493430 0.645540 0.418000 -0.573658
O7    O     O_R   0.688160 0.506520 0.597880 -0.531063
O8    O     O_R   0.672530 0.493470 0.402080 -0.606859
O9    O     O_3   0.130815 0.322623 0.458137 -0.721471
H4    H     H_    0.075781 0.263174 0.424970 0.387568
O10   O     O_3   0.426956 0.046668 0.749700 -0.598875
H5    H     H_    0.377216 0.004345 0.793697 0.383650
O11   O     O_3   0.609361 0.183069 0.287530 -0.654956
H6    H     H_    0.610506 0.133520 0.213328 0.350824
O12   O     O_3   0.383186 0.187534 0.635005 -0.586865
H7    H     H_    0.331090 0.236016 0.598918 0.358969
O13   O     O_3   0.356536 0.399994 0.774139 -0.655177
H8    H     H_    0.279774 0.399916 0.817060 0.321079
Cl1   Cl    Cl    0.711151 0.660998 0.788628 -0.513124
O14   O     O_3   0.700061 0.665132 0.047781 -0.670094
H9    H     H_    0.729038 0.718566 0.004787 0.397985
O15   O     O_3   0.323049 0.349950 0.203824 -0.669587
H10   H     H_    0.267661 0.304217 0.146622 0.316723
O16   O     O_3   0.249410 0.699707 0.616746 -0.731471
H11   H     H_    0.265531 0.762696 0.675414 0.386705
Cl2   Cl    Cl    0.137161 0.914891 0.627786 -0.574530
O17   O     O_3   0.760353 0.704458 0.459345 -0.720783
H12   H     H_    0.760019 0.660361 0.381511 0.344918
Cl3   Cl    Cl    0.848197 0.293436 0.461717 -0.583758
Cl4   Cl    Cl    0.543766 0.793370 0.295713 -0.482383
Cl5   Cl    Cl    0.487871 0.832447 0.776059 -0.515374
O18   O     O_3   0.670113 0.973762 0.292251 -0.629497
H13   H     H_    0.732963 0.023562 0.274335 0.354611

loop_
_geom_bond_atom_site_label_1
_geom_bond_atom_site_label_2
_ccdc_geom_bond_type
C17   O10   S    
C31   O17   S    
C6    C32   A    
C9    C14   A    
C29   C30   A    
C23   O6    A    
C25   N1    A    
C24   O13   S    
C1    C8    S    
C2    C28   A    
C9    C10   A    
C29   Cl2   S    
C24   N1    A    
Cu1   N1    S    
C14   C15   A    
C13   C17   A    
C30   C31   A    
C21   C26   A    
C10   O11   S    
C7    C15   A    
O10   H5    S    
C3    C12   S    
O18   H13   S    
Cu2   O6    S    
C18   C22   A    
C21   C22   A    
O11   H6    S    
C2    C32   A    
Cu1   O7    S    
C11   C13   A    
C5    C6    A    
Cu2   O2    S    
C19   N2    A    
C19   O15   S    
C8    C11   A    
C7    C23   S    
Cu1   O3    S    
C27   O7    A    
C11   O12   S    
O9    H4    S    
Cu1   Cu2   S    
C12   O4    A    
C2    C3    A    
C5    Cl3   S    
O15   H10   S    
C15   Cl4   S    
C22   C24   A    
Cu1   O1    S    
C16   C17   A    
C25   Cl1   S    
Cu2   O4    S    
C1    O2    A    
C3    C4    A    
C20   H2    S    
C28   O16   S    
C9    O18   S    
O14   H9    S    
C16   Cl5   S    
C20   C21   A    
C18   H1    S    
C8    C10   A    
C18   C19   A    
C4    O9    S    
C27   O8    A    
O17   H12   S    
O13   H8    S    
C20   N2    A    
O12   H7    S    
C28   C29   A    
C26   O14   S    
C12   O3    A    
Cu2   O8    S    
C1    O1    A    
C25   C26   A    
C13   C14   A    
C4    C5    A    
Cu2   N2    S    
C31   C32   A    
C7    C16   A    
C23   O5    A    
C6    C27   S    
C30   H3    S    
O16   H11   S    
Cu1   O5    S    
