data_mof_unit_26967.cif
_audit_creation_date              2012-12-11T14:45:34-0500
_audit_creation_method            fapswitch 2.2
_symmetry_space_group_name_H-M    P1
_symmetry_Int_Tables_number       1
_space_group_crystal_system       triclinic
_cell_length_a                    24.876299
_cell_length_b                    7.171281
_cell_length_c                    14.463624
_cell_angle_alpha                 90.825863
_cell_angle_beta                  102.849333
_cell_angle_gamma                 89.663455
_cell_volume                      2515.35275471

loop_
_atom_site_label
_atom_site_type_symbol
_atom_type_description
_atom_site_fract_x
_atom_site_fract_y
_atom_site_fract_z
_atom_type_partial_charge
O1    O     O_R   0.319150 0.364170 0.330530 -0.527414
O2    O     O_R   0.680850 0.635830 0.669470 -0.530533
O3    O     O_R   0.180850 0.864170 0.169470 -0.551100
O4    O     O_R   0.819150 0.135830 0.830530 -0.532853
O5    O     O_R   0.210330 0.696850 0.354180 -0.550815
O6    O     O_R   0.789670 0.303150 0.645820 -0.538842
O7    O     O_R   0.289670 0.196850 0.145820 -0.520263
O8    O     O_R   0.710330 0.803150 0.854180 -0.522173
C1    C     C_R   0.197421 0.526818 0.378096 0.686738
C2    C     C_R   0.802321 0.473766 0.621493 0.739555
C3    C     C_R   0.302261 0.024007 0.121121 0.728339
C4    C     C_R   0.697581 0.976690 0.878822 0.726501
O9    O     O_R   0.320550 0.694110 0.341970 -0.544839
O10   O     O_R   0.679450 0.305890 0.658030 -0.541187
O11   O     O_R   0.179450 0.194110 0.158030 -0.543572
O12   O     O_R   0.820550 0.805890 0.841970 -0.540408
O13   O     O_R   0.291860 0.861000 0.157170 -0.548747
O14   O     O_R   0.708140 0.139000 0.842830 -0.551130
O15   O     O_R   0.208140 0.361000 0.342830 -0.527896
O16   O     O_R   0.791860 0.639000 0.657170 -0.545459
C5    C     C_R   0.341788 0.524912 0.362552 0.702256
C6    C     C_R   0.657992 0.474553 0.638355 0.690792
C7    C     C_R   0.158167 0.023799 0.137457 0.688069
C8    C     C_R   0.841693 0.975783 0.862572 0.680428
O17   O     O_3   0.240460 0.529330 0.189380 -0.383936
O18   O     O_3   0.759540 0.470670 0.810620 -0.377479
O19   O     O_3   0.259540 0.029330 0.310620 -0.373738
O20   O     O_3   0.740460 0.970670 0.689380 -0.380178
V1    V     V_3+5 0.251770 0.805510 0.261240 1.417150
V2    V     V_3+5 0.748230 0.194490 0.738760 1.461571
V3    V     V_3+5 0.248230 0.305510 0.238760 1.471323
V4    V     V_3+5 0.751770 0.694490 0.761240 1.480290
C9    C     C_R   0.102714 0.001258 0.074156 -0.086011
C10   C     C_R   0.896321 0.994282 0.928093 -0.080848
C11   C     C_R   0.396744 0.508660 0.427319 -0.062699
C12   C     C_R   0.603090 0.486409 0.573565 -0.064141
C13   C     C_R   0.957999 0.178099 0.049917 0.036300
C14   C     C_R   0.039189 0.793143 0.966802 -0.008860
C15   C     C_R   0.545192 0.600332 0.426708 0.024218
C16   C     C_R   0.455330 0.359486 0.564786 0.010840
C17   C     C_R   0.905633 0.143138 0.993234 -0.192012
C18   C     C_R   0.092578 0.843210 0.014616 -0.246994
C19   C     C_R   0.596900 0.582265 0.488520 -0.227255
C20   C     C_R   0.402999 0.399982 0.508546 -0.234937
C21   C     C_R   0.940172 0.876813 0.920225 -0.201579
C22   C     C_R   0.058301 0.113793 0.084671 -0.178706
C23   C     C_R   0.556634 0.410509 0.598557 -0.162836
C24   C     C_R   0.443719 0.575477 0.400730 -0.169895
C25   C     C_R   0.994049 0.909688 0.975047 0.098970
C26   C     C_R   0.003594 0.068008 0.037602 0.110838
C27   C     C_R   0.503247 0.432728 0.539879 0.100050
C28   C     C_R   0.497277 0.535834 0.454572 0.106182
H1    H     H_    0.066936 0.234493 0.131154 0.175392
H2    H     H_    0.932160 0.768456 0.866353 0.178002
H3    H     H_    0.437828 0.656482 0.337106 0.139984
H4    H     H_    0.562721 0.343595 0.666539 0.160198
H5    H     H_    0.126751 0.752514 0.008688 0.129920
H6    H     H_    0.871378 0.231946 0.000818 0.125270
H7    H     H_    0.366612 0.341377 0.526594 0.114593
H8    H     H_    0.632997 0.639001 0.468888 0.123421
C29   C     C_R   0.666826 0.000039 0.954440 -0.207168
C30   C     C_R   0.333775 0.009830 0.046338 -0.197787
C31   C     C_R   0.833056 0.483126 0.546477 -0.208407
C32   C     C_R   0.163448 0.527919 0.448433 -0.192611
C33   C     C_R   0.651836 0.193321 0.085028 -0.152381
C34   C     C_R   0.343235 0.893891 0.892854 -0.123820
C35   C     C_R   0.838105 0.562217 0.386859 -0.113509
C36   C     C_R   0.156014 0.555802 0.611720 -0.121061
C37   C     C_R   0.687687 0.121195 0.031657 -0.085221
C38   C     C_R   0.309935 0.928862 0.957392 -0.089703
C39   C     C_R   0.806248 0.528534 0.453141 -0.093414
C40   C     C_R   0.188970 0.544811 0.545471 -0.089319
C41   C     C_R   0.611689 0.938866 0.937347 0.393142
C42   C     C_R   0.389975 0.060699 0.068853 0.393305
C43   C     C_R   0.890700 0.463987 0.571889 0.377885
C44   C     C_R   0.105082 0.529721 0.417272 0.395187
C45   C     C_R   0.573441 0.030005 0.984052 -0.015055
C46   C     C_R   0.423556 0.031741 0.001311 -0.012513
C47   C     C_R   0.923378 0.520569 0.507978 -0.024615
C48   C     C_R   0.071719 0.549134 0.485659 -0.005306
C49   C     C_R   0.595365 0.154891 0.060026 0.025323
C50   C     C_R   0.399368 0.939053 0.914931 0.036458
C51   C     C_R   0.895760 0.561123 0.413604 0.028606
C52   C     C_R   0.098545 0.555550 0.583215 0.035460
C53   C     C_R   0.514634 0.004964 0.958436 0.059112
C54   C     C_R   0.480787 0.081351 0.017911 0.052247
C55   C     C_R   0.982144 0.538076 0.533723 0.046912
C56   C     C_R   0.012582 0.558943 0.461624 0.073000
C57   C     C_R   0.504630 0.212634 0.088231 -0.137756
C58   C     C_R   0.487828 0.919608 0.872188 -0.122379
C59   C     C_R   0.982837 0.604971 0.370082 -0.058827
C60   C     C_R   0.010990 0.552851 0.629066 -0.153873
C61   C     C_R   0.560723 0.246902 0.109360 -0.181863
C62   C     C_R   0.431352 0.890507 0.850411 -0.181145
C63   C     C_R   0.925776 0.605949 0.346584 -0.154820
C64   C     C_R   0.067928 0.563134 0.652983 -0.174031
H9    H     H_    0.577118 0.348494 0.164551 0.169547
H10   H     H_    0.412706 0.825090 0.782908 0.145047
H11   H     H_    0.904966 0.643952 0.275221 0.129622
H12   H     H_    0.088321 0.575217 0.727262 0.129300
H13   H     H_    0.667600 0.287261 0.144185 0.187136
H14   H     H_    0.325537 0.827597 0.825132 0.197072
H15   H     H_    0.817942 0.594250 0.314318 0.183989
H16   H     H_    0.175287 0.564328 0.686697 0.198397
H17   H     H_    0.480379 0.299182 0.124898 0.218948
H18   H     H_    0.508734 0.883306 0.816954 0.220804
H19   H     H_    0.002361 0.656147 0.316838 0.161162
H20   H     H_    0.990417 0.569350 0.686803 0.193636
C65   C     C_2   0.962025 0.327022 0.122901 0.362256
H21   H     H_    0.937530 0.453168 0.107328 0.058743
O21   O     O_2   0.989389 0.304208 0.203050 -0.511973
C66   C     C_2   0.033526 0.612403 0.913959 0.316771
H22   H     H_    0.067724 0.559883 0.885813 0.058572
O22   O     O_2   0.992870 0.514219 0.906951 -0.533051
C67   C     C_2   0.544253 0.679151 0.332335 0.298092
H23   H     H_    0.572851 0.789098 0.325383 0.080430
O23   O     O_2   0.514611 0.612817 0.260844 -0.552875
C68   C     C_2   0.457003 0.233366 0.645811 0.328943
H24   H     H_    0.423163 0.234588 0.682030 0.071177
O24   O     O_2   0.493803 0.118693 0.668866 -0.541204
O25   O     O_3   0.411345 0.129589 0.159366 -0.565522
C69   C     C_3   0.435141 0.981154 0.217328 -0.226151
H25   H     H_    0.471478 0.923571 0.193788 0.178807
H26   H     H_    0.404681 0.868908 0.218501 0.138721
H27   H     H_    0.449551 0.034761 0.290972 0.166968
O26   O     O_3   0.596326 0.793895 0.873107 -0.564612
C70   C     C_3   0.599964 0.625994 0.923831 -0.216885
H28   H     H_    0.571071 0.625815 0.972595 0.144797
H29   H     H_    0.642900 0.599282 0.964031 0.156027
H30   H     H_    0.588120 0.508952 0.872443 0.159479
O27   O     O_3   0.081031 0.477447 0.324166 -0.538161
C71   C     C_3   0.089802 0.612136 0.258092 -0.185644
H31   H     H_    0.051925 0.624126 0.201091 0.154285
H32   H     H_    0.122446 0.563609 0.222191 0.155830
H33   H     H_    0.099270 0.754336 0.289524 0.113410
O28   O     O_3   0.913757 0.389597 0.659612 -0.559844
C72   C     C_3   0.923446 0.197719 0.647462 -0.194339
H34   H     H_    0.954337 0.174375 0.603385 0.138708
H35   H     H_    0.884566 0.122272 0.615837 0.134820
H36   H     H_    0.940415 0.137066 0.718147 0.167745
C73   C     C_2   0.250468 0.878399 0.931588 0.427948
H37   H     H_    0.223554 0.911155 0.979200 0.003534
O29   O     O_2   0.230585 0.800070 0.856304 -0.525972
C74   C     C_2   0.746975 0.173802 0.056601 0.431568
H38   H     H_    0.776067 0.107839 0.020518 0.002345
O30   O     O_2   0.764188 0.290569 0.118230 -0.530541
C75   C     C_2   0.250119 0.547859 0.578689 0.423006
H39   H     H_    0.276594 0.535549 0.528615 -0.000484
O31   O     O_2   0.271869 0.564272 0.662852 -0.524631
C76   C     C_2   0.745140 0.536962 0.423950 0.420264
H40   H     H_    0.720088 0.496562 0.472737 -0.005963
O32   O     O_2   0.721977 0.587694 0.344772 -0.527959

loop_
_geom_bond_atom_site_label_1
_geom_bond_atom_site_label_2
_ccdc_geom_bond_type
O17   V3    S    
C24   H3    S    
C16   C68   S    
C55   C56   A    
O1    C5    A    
O26   C70   S    
C50   C62   A    
O19   V1    S    
C1    C32   S    
O13   V1    S    
C34   H14   S    
O3    C7    A    
C75   H39   S    
C33   H13   S    
C48   C52   A    
C3    C30   S    
O15   V3    S    
C66   O22   D    
C35   H15   S    
C14   C25   A    
C53   C54   A    
C37   C74   S    
O7    C3    A    
C72   H35   S    
C9    C18   A    
O9    V1    S    
C75   O31   D    
C17   H6    S    
C14   C18   A    
C73   O29   D    
O4    C8    A    
C44   O27   S    
C63   H11   S    
C39   C76   S    
C62   H10   S    
C20   H7    S    
C41   O26   S    
O1    V3    S    
C30   C38   A    
C12   C23   A    
O2    V4    S    
C52   C64   A    
O3    V1    S    
C68   H24   S    
C60   H20   S    
C2    C31   S    
C2    O16   A    
C71   H31   S    
C7    C9    S    
O2    C6    A    
O14   V2    S    
C45   C49   A    
C16   C20   A    
C13   C65   S    
C36   C40   A    
C46   C54   A    
O11   C7    A    
C15   C28   A    
C45   C53   A    
O12   C8    A    
C55   C60   A    
C57   C61   A    
C9    C22   A    
C10   C17   A    
O10   V2    S    
C11   C24   A    
C18   H5    S    
C47   C55   A    
C66   H22   S    
C1    O15   A    
C58   C62   A    
O5    V1    S    
C60   C64   A    
C72   H36   S    
O7    V3    S    
C14   C66   S    
C27   C28   A    
C36   C52   A    
C59   H19   S    
C58   H18   S    
C74   O30   D    
C13   C26   A    
O18   V4    S    
O28   C72   S    
C23   C27   A    
C29   C41   A    
C8    C10   S    
O8    V4    S    
C70   H29   S    
O5    C1    A    
C34   C50   A    
C49   C61   A    
C46   C50   A    
C33   C49   A    
C56   C59   A    
C21   C25   A    
O8    C4    A    
C51   C63   A    
C32   C44   A    
O9    C5    A    
C10   C21   A    
C35   C51   A    
C11   C20   A    
O25   C69   S    
C19   H8    S    
O6    V2    S    
C31   C39   A    
C21   H2    S    
C15   C67   S    
C76   O32   D    
C69   H26   S    
O27   C71   S    
C16   C27   A    
C61   H9    S    
O16   V4    S    
C29   C37   A    
C67   O23   D    
C3    O13   A    
C38   C73   S    
C43   O28   S    
C44   C48   A    
C74   H38   S    
C54   C57   A    
O6    C2    A    
C15   C19   A    
C53   C58   A    
O11   V3    S    
C5    C11   S    
O12   V4    S    
C40   C75   S    
C6    C12   S    
C72   H34   S    
C22   C26   A    
C57   H17   S    
O10   C6    A    
C69   H27   S    
C65   O21   D    
C70   H30   S    
C48   C56   A    
C65   H21   S    
C47   C51   A    
C4    C29   S    
C67   H23   S    
C34   C38   A    
C31   C43   A    
C71   H33   S    
C33   C37   A    
C64   H12   S    
C22   H1    S    
O20   V2    S    
C35   C39   A    
C32   C40   A    
C13   C17   A    
C68   O24   D    
C59   C63   A    
C24   C28   A    
C42   O25   S    
C71   H32   S    
C25   C26   A    
C42   C46   A    
C4    O14   A    
C41   C45   A    
C76   H40   S    
C30   C42   A    
C12   C19   A    
C36   H16   S    
C69   H25   S    
C73   H37   S    
C43   C47   A    
O4    V2    S    
C70   H28   S    
C23   H4    S    
