data_mof_unit_45086.cif
_audit_creation_date              2012-12-11T15:28:37-0500
_audit_creation_method            fapswitch 2.2
_symmetry_space_group_name_H-M    P1
_symmetry_Int_Tables_number       1
_space_group_crystal_system       triclinic
_cell_length_a                    6.960836
_cell_length_b                    19.600083
_cell_length_c                    23.283667
_cell_angle_alpha                 95.81594
_cell_angle_beta                  90.959842
_cell_angle_gamma                 88.910747
_cell_volume                      3159.38593932

loop_
_atom_site_label
_atom_site_type_symbol
_atom_type_description
_atom_site_fract_x
_atom_site_fract_y
_atom_site_fract_z
_atom_type_partial_charge
O1    O     O_R   0.617180 0.809390 0.808140 -0.527857
O2    O     O_R   0.382820 0.190610 0.191860 -0.528598
O3    O     O_R   0.293300 0.672410 0.795490 -0.537310
O4    O     O_R   0.706700 0.327590 0.204510 -0.536999
O5    O     O_R   0.117220 0.690610 0.691850 -0.518442
O6    O     O_R   0.882780 0.309390 0.308150 -0.518693
C1    C     C_R   0.463724 0.647605 0.805083 0.765615
C2    C     C_R   0.536272 0.352385 0.194904 0.766864
O7    O     O_R   0.287840 0.807750 0.814460 -0.528751
O8    O     O_R   0.712160 0.192250 0.185540 -0.528817
O9    O     O_R   0.111720 0.826910 0.710960 -0.530558
O10   O     O_R   0.888280 0.173090 0.289040 -0.538105
C3    C     C_R   0.456477 0.830740 0.833188 0.700263
C4    C     C_R   0.543522 0.169262 0.166811 0.696717
O11   O     O_R   0.622680 0.673080 0.789040 -0.522984
O12   O     O_R   0.377320 0.326920 0.210960 -0.523079
O13   O     O_3   0.448820 0.756130 0.716020 -0.349569
O14   O     O_3   0.551180 0.243870 0.283980 -0.350995
V1    V     V_3+5 0.176220 0.748860 0.756300 1.468490
V2    V     V_3+5 0.823780 0.251140 0.243700 1.461702
O15   O     O_R   0.781670 0.827580 0.704500 -0.532394
O16   O     O_R   0.218330 0.172420 0.295500 -0.531820
C5    C     C_R   0.948430 0.851747 0.693786 0.687530
C6    C     C_R   0.052054 0.148094 0.306056 0.696637
O17   O     O_R   0.787130 0.692240 0.685530 -0.511382
O18   O     O_R   0.212870 0.307760 0.314470 -0.507897
C7    C     C_R   0.956088 0.669191 0.666833 0.732422
C8    C     C_R   0.043909 0.330748 0.333208 0.741756
V3    V     V_3+5 0.675510 0.751130 0.743690 1.496730
V4    V     V_3+5 0.324490 0.248870 0.256310 1.499688
O19   O     O_3   0.952780 0.743870 0.783980 -0.367741
O20   O     O_3   0.047220 0.256130 0.216020 -0.367997
C9    C     C_1   0.966628 0.617053 0.614825 -0.165316
C10   C     C_1   0.033372 0.382765 0.385296 -0.159011
C11   C     C_1   0.978210 0.573497 0.572036 0.028180
C12   C     C_1   0.021796 0.426232 0.428144 0.025563
C13   C     C_1   0.993435 0.521685 0.521434 0.019804
C14   C     C_1   0.006576 0.477987 0.478784 0.018381
C15   C     C_R   0.950745 0.914810 0.663854 -0.046728
C16   C     C_R   0.057506 0.085880 0.337249 -0.060295
C17   C     C_R   0.894222 0.037230 0.666858 -0.128001
C18   C     C_R   0.186921 0.970981 0.341041 -0.138660
C19   C     C_R   0.892727 0.976919 0.693692 -0.154055
C20   C     C_R   0.142835 0.026409 0.310079 -0.162433
C21   C     C_R   0.008336 0.913594 0.606048 -0.126938
C22   C     C_R   0.014258 0.088771 0.396398 -0.151119
C23   C     C_R   0.022416 0.975244 0.578669 0.104702
C24   C     C_R   0.076028 0.035420 0.430433 0.101080
C25   C     C_R   0.956968 0.036888 0.609798 0.107935
C26   C     C_R   0.156746 0.975179 0.400755 0.108512
C27   C     C_R   0.089920 0.977489 0.520740 -0.013999
C28   C     C_R   0.057673 0.038784 0.492316 -0.013869
C29   C     C_R   0.016777 0.100947 0.527755 -0.014806
C30   C     C_R   0.194538 0.922222 0.490478 -0.018845
C31   C     C_R   0.960253 0.098519 0.584806 -0.215711
C32   C     C_R   0.218059 0.920698 0.430955 -0.227247
H1    H     H_    0.925108 0.145942 0.611031 0.162369
H2    H     H_    0.294494 0.877714 0.408078 0.161664
H3    H     H_    0.935985 0.133470 0.414806 0.115389
H4    H     H_    0.034483 0.863898 0.582843 0.101766
H5    H     H_    0.179494 0.023495 0.264833 0.112010
H6    H     H_    0.845821 0.978686 0.737967 0.111723
H7    H     H_    0.846937 0.084577 0.691024 0.128085
H8    H     H_    0.252523 0.925517 0.318535 0.127768
C33   C     C_R   0.475650 0.583494 0.833347 -0.122088
C34   C     C_R   0.524332 0.416491 0.166636 -0.122544
C35   C     C_R   0.461328 0.459958 0.830300 -0.148618
C36   C     C_R   0.538470 0.540030 0.169680 -0.148946
C37   C     C_R   0.467121 0.518759 0.800873 -0.039143
C38   C     C_R   0.532724 0.481230 0.199110 -0.039152
C39   C     C_R   0.485338 0.587610 0.893869 -0.215754
C40   C     C_R   0.514701 0.412370 0.106110 -0.215695
C41   C     C_R   0.485214 0.528044 0.924170 0.101354
C42   C     C_R   0.514743 0.471936 0.075809 0.101305
C43   C     C_R   0.462768 0.463538 0.891165 0.038134
C44   C     C_R   0.537099 0.536445 0.108814 0.038262
C45   C     C_R   0.504635 0.530705 0.985982 0.042566
C46   C     C_R   0.495315 0.469274 0.013997 0.042549
C47   C     C_R   0.461802 0.407168 0.979527 -0.215489
C48   C     C_R   0.538100 0.592813 0.020454 -0.215561
C49   C     C_R   0.445044 0.403540 0.919457 -0.025583
C50   C     C_R   0.554797 0.596444 0.080524 -0.025333
H9    H     H_    0.512290 0.361343 0.084132 0.101550
H10   H     H_    0.487858 0.638637 0.915845 0.101391
H11   H     H_    0.459685 0.410690 0.804900 0.185411
H12   H     H_    0.540027 0.589300 0.195076 0.185052
H13   H     H_    0.440952 0.359981 0.998334 0.145702
H14   H     H_    0.558921 0.640005 0.001652 0.145669
C51   C     C_1   0.467126 0.882807 0.885248 -0.203248
C52   C     C_1   0.532869 0.117197 0.114748 -0.203369
C53   C     C_1   0.478573 0.926327 0.928069 0.015120
C54   C     C_1   0.521419 0.073678 0.071926 0.014621
C55   C     C_1   0.493540 0.978140 0.978679 0.018300
C56   C     C_1   0.506450 0.021867 0.021315 0.018153
C57   C     C_2   0.064630 0.169865 0.511585 0.748962
O21   O     O_2   0.211429 0.177751 0.485028 -0.552378
O22   O     O_R   0.945751 0.226324 0.528760 -0.654791
H15   H     H_    0.994277 0.270548 0.515574 0.301863
C58   C     C_2   0.312808 0.871846 0.519788 0.739835
O23   O     O_2   0.398186 0.889924 0.564976 -0.554079
O24   O     O_R   0.332835 0.804327 0.494482 -0.662551
H16   H     H_    0.418441 0.775136 0.518220 0.297868
C59   C     C_2   0.398705 0.335822 0.888107 0.760962
O25   O     O_2   0.483993 0.284098 0.900619 -0.549490
O26   O     O_R   0.251966 0.330727 0.846196 -0.654831
H17   H     H_    0.232797 0.281849 0.828534 0.309559
C60   C     C_2   0.601050 0.664168 0.111877 0.760369
O27   O     O_2   0.515718 0.715881 0.099359 -0.549773
O28   O     O_R   0.747760 0.669281 0.153796 -0.655039
H18   H     H_    0.766875 0.718162 0.171458 0.309323
C61   C     C_2   0.539246 0.489920 0.263628 0.737049
O29   O     O_2   0.490760 0.443735 0.291568 -0.565173
O30   O     O_R   0.599254 0.552031 0.292722 -0.652486
H19   H     H_    0.597375 0.551946 0.336254 0.307857
C62   C     C_2   0.460506 0.510075 0.736358 0.737833
O31   O     O_2   0.509282 0.556219 0.708415 -0.565673
O32   O     O_R   0.400068 0.448016 0.707269 -0.651342
H20   H     H_    0.401924 0.448099 0.663738 0.309192

loop_
_geom_bond_atom_site_label_1
_geom_bond_atom_site_label_2
_ccdc_geom_bond_type
C21   H4    S    
C2    C34   S    
C55   C56   T    
O6    C8    A    
C22   H3    S    
C29   C57   S    
C41   C43   A    
C57   O21   D    
O4    C2    A    
V1    O19   S    
C47   H13   S    
O22   H15   S    
C23   C25   A    
C34   C38   A    
C45   C46   A    
C7    C9    S    
C16   C22   A    
O9    V1    S    
O24   H16   S    
C42   C44   A    
C11   C13   S    
C39   H10   S    
O3    C1    A    
V2    O20   S    
C9    C11   T    
C5    C15   S    
C53   C55   S    
O12   V4    S    
C62   O31   D    
C36   H12   S    
C21   C23   A    
O7    C3    A    
C4    C52   S    
C6    C16   S    
O5    C7    A    
C59   O26   S    
C34   C40   A    
C61   O29   D    
O8    V2    S    
C62   O32   S    
C60   O27   D    
O3    V1    S    
O14   V4    S    
C51   C53   T    
C10   C12   T    
C15   C21   A    
C24   C26   A    
C8    C10   S    
C2    O12   A    
C17   C19   A    
C18   C20   A    
C17   C25   A    
O7    V1    S    
O11   V3    S    
C30   C32   A    
C29   C31   A    
O17   V3    S    
C22   C24   A    
C35   H11   S    
C27   C28   A    
C40   C42   A    
O8    C4    A    
C44   C50   A    
C39   C41   A    
C46   C47   A    
C43   C49   A    
C15   C19   A    
C1    O11   A    
C25   C31   A    
O15   V3    S    
C26   C32   A    
C35   C37   A    
C13   C14   T    
C1    C33   S    
C52   C54   T    
C58   O23   D    
C24   C28   A    
O10   V2    S    
O1    V3    S    
C61   O30   S    
C50   C60   S    
C18   C26   A    
C48   C50   A    
C58   O24   S    
O18   V4    S    
C31   H1    S    
O16   C6    A    
C30   C58   S    
O1    C3    A    
C17   H7    S    
C12   C14   S    
C18   H8    S    
C28   C29   A    
C47   C49   A    
O30   H19   S    
C49   C59   S    
C45   C48   A    
C37   C62   S    
O16   V4    S    
C3    C51   S    
C23   C27   A    
C57   O22   S    
O5    V1    S    
C20   H5    S    
O17   C7    A    
O6    V2    S    
O26   H17   S    
O10   C6    A    
O18   C8    A    
O2    V4    S    
C27   C30   A    
O15   C5    A    
C48   H14   S    
C33   C39   A    
O13   V3    S    
V4    O20   S    
C36   C44   A    
C54   C56   S    
C60   O28   S    
C33   C37   A    
O9    C5    A    
O13   V1    S    
C32   H2    S    
O14   V2    S    
O2    C4    A    
C40   H9    S    
C38   C61   S    
O4    V2    S    
C16   C20   A    
C35   C43   A    
V3    O19   S    
C42   C46   A    
O28   H18   S    
C59   O25   D    
C36   C38   A    
C41   C45   A    
O32   H20   S    
C19   H6    S    
