data_mof_unit_25134.cif
_audit_creation_date              2012-12-10T18:01:14-0500
_audit_creation_method            fapswitch 2.2
_symmetry_space_group_name_H-M    P1
_symmetry_Int_Tables_number       1
_space_group_crystal_system       triclinic
_cell_length_a                    9.60502
_cell_length_b                    10.801409
_cell_length_c                    17.25764
_cell_angle_alpha                 92.998327
_cell_angle_beta                  85.389796
_cell_angle_gamma                 91.766076
_cell_volume                      1781.56824076

loop_
_atom_site_label
_atom_site_type_symbol
_atom_type_description
_atom_site_fract_x
_atom_site_fract_y
_atom_site_fract_z
_atom_type_partial_charge
C1    C     C_R   0.501242 0.737741 0.501053 0.779771
C2    C     C_R   0.498602 0.262474 0.501417 0.793305
C3    C     C_R   0.626113 0.938983 0.486462 -0.215273
C4    C     C_R   0.374768 0.061834 0.522217 -0.223250
C5    C     C_R   0.625085 0.066922 0.488033 -0.167329
C6    C     C_R   0.376248 0.933866 0.522217 -0.188953
C7    C     C_R   0.498723 0.128746 0.504149 -0.015046
C8    C     C_R   0.501845 0.871922 0.503568 -0.013149
C9    C     C_R   0.925650 0.590720 0.542429 0.174063
C10   C     C_R   0.073864 0.408586 0.458293 0.194008
C11   C     C_R   0.074109 0.589091 0.541015 -0.031202
C12   C     C_R   0.925644 0.411244 0.458802 -0.049624
C13   C     C_R   0.480424 0.500367 0.649994 0.781494
C14   C     C_R   0.519311 0.497107 0.350307 0.784150
C15   C     C_R   0.465896 0.508547 0.735209 -0.066397
C16   C     C_R   0.533973 0.497309 0.265858 -0.058899
C17   C     C_R   0.568511 0.575473 0.774316 -0.226239
C18   C     C_R   0.496718 0.604144 0.230712 -0.204984
C19   C     C_R   0.555376 0.591778 0.854789 -0.138696
C20   C     C_R   0.512724 0.610363 0.150200 -0.140581
C21   C     C_R   0.444423 0.533865 0.898048 0.117339
C22   C     C_R   0.561377 0.507767 0.103899 0.106347
C23   C     C_R   0.339919 0.468937 0.859499 -0.220510
C24   C     C_R   0.604603 0.403505 0.139058 -0.203423
C25   C     C_R   0.347773 0.457793 0.778324 -0.012005
C26   C     C_R   0.592956 0.396912 0.219860 -0.015908
C27   C     C_2   0.442472 0.532794 0.983741 -0.082357
C28   C     C_2   0.559234 0.503414 0.018326 -0.086475
Cu1   Cu    Cu3+1 0.359340 0.499980 0.500000 0.934569
Cu2   Cu    Cu3+1 0.640660 0.500020 0.500000 0.923994
H1    H     H_    0.658175 0.616933 0.742511 0.148141
H2    H     H_    0.455817 0.683012 0.265787 0.136495
H3    H     H_    0.254402 0.423523 0.892676 0.127276
H4    H     H_    0.640829 0.323808 0.103055 0.144824
H5    H     H_    0.482970 0.693443 0.123884 0.139692
H6    H     H_    0.634885 0.645720 0.883576 0.135268
H7    H     H_    0.723032 0.893103 0.469533 0.138726
H8    H     H_    0.277288 0.107874 0.536682 0.143937
H9    H     H_    0.722419 0.116870 0.473437 0.146246
H10   H     H_    0.278982 0.883644 0.536533 0.140824
H11   H     H_    0.132840 0.658917 0.572249 0.129927
H12   H     H_    0.866532 0.342088 0.427130 0.142097
N1    N     N_R   0.147930 0.499970 0.499980 -0.185257
N2    N     N_R   0.852070 0.500030 0.500020 -0.193303
O1    O     O_R   0.381260 0.680340 0.500000 -0.590338
O2    O     O_R   0.618740 0.319660 0.500000 -0.589503
O3    O     O_R   0.618830 0.680370 0.500010 -0.605280
O4    O     O_R   0.381170 0.319630 0.499990 -0.602647
O5    O     O_R   0.367440 0.500000 0.613600 -0.563733
O6    O     O_R   0.632560 0.500000 0.386400 -0.568155
O7    O     O_R   0.605010 0.500030 0.613600 -0.602120
O8    O     O_R   0.394990 0.499970 0.386400 -0.593209
C29   C     C_R   0.631377 0.278820 0.251706 0.107952
C30   C     C_R   0.760089 0.225384 0.226727 -0.161108
C31   C     C_R   0.786178 0.103729 0.244091 -0.148664
C32   C     C_R   0.684610 0.034392 0.286593 -0.117272
C33   C     C_R   0.556913 0.086932 0.311948 -0.129797
C34   C     C_R   0.531235 0.209149 0.295663 -0.163059
H13   H     H_    0.838214 0.276450 0.191482 0.121516
H14   H     H_    0.883491 0.062047 0.222579 0.129646
H15   H     H_    0.704189 0.939631 0.299163 0.125795
H16   H     H_    0.477232 0.032409 0.343632 0.145256
H17   H     H_    0.431264 0.247589 0.314236 0.115701
C35   C     C_R   0.231675 0.391953 0.740988 0.124266
C36   C     C_R   0.108079 0.454205 0.732416 -0.132158
C37   C     C_R   0.997407 0.392584 0.697381 -0.120164
C38   C     C_R   0.009110 0.268294 0.671460 -0.117261
C39   C     C_R   0.131453 0.205509 0.680581 -0.156653
C40   C     C_R   0.243128 0.267286 0.714697 -0.145071
H18   H     H_    0.097798 0.550171 0.752938 0.111846
H19   H     H_    0.902286 0.440898 0.690829 0.143415
H20   H     H_    0.923148 0.220457 0.644712 0.126874
H21   H     H_    0.139466 0.108801 0.661434 0.125369
H22   H     H_    0.337721 0.218040 0.721149 0.117333
C41   C     C_R   0.683778 0.450601 0.972696 0.115988
C42   C     C_R   0.815814 0.507893 0.978504 -0.154615
C43   C     C_R   0.933954 0.455526 0.938769 -0.137596
C44   C     C_R   0.921441 0.344759 0.893998 -0.115659
C45   C     C_R   0.790254 0.287366 0.887604 -0.135630
C46   C     C_R   0.671654 0.339729 0.926959 -0.134340
H23   H     H_    0.826733 0.593275 0.013484 0.128486
H24   H     H_    0.035130 0.500672 0.943022 0.148947
H25   H     H_    0.013325 0.303284 0.864293 0.139506
H26   H     H_    0.780662 0.201793 0.852676 0.127785
H27   H     H_    0.570808 0.293282 0.922695 0.124726
C47   C     C_R   0.306515 0.554880 0.029632 0.116060
C48   C     C_R   0.237848 0.666680 0.024426 -0.173034
C49   C     C_R   0.112009 0.688845 0.068918 -0.163669
C50   C     C_R   0.053151 0.599104 0.118116 -0.115071
C51   C     C_R   0.119295 0.486532 0.122373 -0.121375
C52   C     C_R   0.245184 0.464082 0.078119 -0.133766
H28   H     H_    0.282807 0.737153 0.986846 0.128347
H29   H     H_    0.059988 0.775554 0.065198 0.126983
H30   H     H_    0.955596 0.616313 0.152355 0.129224
H31   H     H_    0.073073 0.416695 0.159987 0.121549
H32   H     H_    0.295289 0.376366 0.081865 0.126362
C53   C     C_3   0.852987 0.701219 0.584676 -0.374041
C54   C     C_3   0.926178 0.765547 0.652832 -0.459237
C55   C     C_3   0.835280 0.865950 0.694770 -0.848966
H33   H     H_    0.813413 0.937645 0.653792 0.257406
H34   H     H_    0.734811 0.825489 0.719441 0.247525
H35   H     H_    0.890983 0.911242 0.743070 0.242232
H36   H     H_    0.948812 0.696096 0.695037 0.222775
H37   H     H_    0.025052 0.812618 0.631243 0.215414
H38   H     H_    0.842364 0.771388 0.541257 0.199457
H39   H     H_    0.749206 0.672446 0.609435 0.255540
C56   C     C_3   0.146513 0.298183 0.416292 -0.379582
C57   C     C_3   0.063550 0.219603 0.357604 -0.445349
C58   C     C_3   0.155357 0.122682 0.312745 -0.851108
H40   H     H_    0.226608 0.167511 0.268107 0.249932
H41   H     H_    0.217064 0.073816 0.352920 0.256412
H42   H     H_    0.089494 0.052539 0.282587 0.239954
H43   H     H_    0.975737 0.168992 0.389209 0.222364
H44   H     H_    0.021434 0.280148 0.315359 0.230189
H45   H     H_    0.242637 0.330706 0.384132 0.247802
H46   H     H_    0.170564 0.234629 0.461164 0.209661

loop_
_geom_bond_atom_site_label_1
_geom_bond_atom_site_label_2
_ccdc_geom_bond_type
C31   C32   A    
C1    C8    S    
C2    C7    S    
C48   C49   A    
C53   C54   S    
C33   C34   A    
C33   H16   S    
Cu1   O5    S    
C43   C44   A    
C32   C33   A    
C46   H27   S    
C22   C24   A    
C19   C21   A    
Cu2   O7    S    
C24   C26   A    
C47   C52   A    
C58   H41   S    
C45   H26   S    
C15   C25   A    
C54   H36   S    
C57   C58   S    
C38   H20   S    
C57   H44   S    
C50   H30   S    
C12   H12   S    
C52   H32   S    
C13   O7    A    
C20   H5    S    
C44   H25   S    
C14   O8    A    
C55   H33   S    
C39   C40   A    
C23   H3    S    
C56   C57   S    
C11   N1    A    
C41   C46   A    
C18   C20   A    
C53   H38   S    
C37   C38   A    
Cu2   O6    S    
C22   C28   S    
C31   H14   S    
Cu1   N1    S    
Cu2   N2    S    
C10   C56   S    
C4    C7    A    
C30   H13   S    
C16   C26   A    
Cu1   O4    S    
C38   C39   A    
Cu2   O3    S    
C51   H31   S    
C42   C43   A    
C4    C6    A    
C3    C8    A    
C58   H42   S    
C5    C7    A    
C49   H29   S    
C47   C48   A    
C1    O3    A    
C6    C8    A    
C2    O4    A    
C39   H21   S    
C29   C30   A    
C2    O2    A    
Cu1   O1    S    
C25   C35   S    
C57   H43   S    
C27   C47   S    
C41   C42   A    
Cu1   Cu2   S    
C37   H19   S    
C40   H22   S    
C35   C40   A    
C9    C11   A    
C56   H45   S    
C10   C12   A    
C13   O5    A    
C53   H39   S    
C55   H34   S    
C20   C22   A    
C54   C55   S    
C13   C15   S    
C17   H1    S    
C14   C16   S    
C18   H2    S    
C26   C29   S    
C34   H17   S    
C15   C17   A    
C5    H9    S    
C30   C31   A    
C9    N2    A    
C9    C53   S    
C10   N1    A    
C44   C45   A    
Cu2   O2    S    
C4    H8    S    
C3    C5    A    
C42   H23   S    
C29   C34   A    
C19   H6    S    
C35   C36   A    
C21   C23   A    
C12   N2    A    
C58   H40   S    
C1    O1    A    
C51   C52   A    
C14   O6    A    
C43   H24   S    
C54   H37   S    
C17   C19   A    
C11   H11   S    
C6    H10   S    
C23   C25   A    
C21   C27   S    
C24   H4    S    
C56   H46   S    
C45   C46   A    
C55   H35   S    
C49   C50   A    
C3    H7    S    
C16   C18   A    
C36   C37   A    
C27   C28   D    
C32   H15   S    
C50   C51   A    
C48   H28   S    
C28   C41   S    
C36   H18   S    
Cu1   O8    S    
