data_mof_unit_46909.cif
_audit_creation_date              2013-03-05T15:46:02-0500
_audit_creation_method            fapswitch 2.2
_symmetry_space_group_name_H-M    P1
_symmetry_Int_Tables_number       1
_space_group_crystal_system       triclinic
_cell_length_a                    17.424691
_cell_length_b                    24.361391
_cell_length_c                    14.800576
_cell_angle_alpha                 90.143251
_cell_angle_beta                  124.594643
_cell_angle_gamma                 89.971473
_cell_volume                      5171.82659094

loop_
_atom_site_label
_atom_site_type_symbol
_atom_site_description
_atom_site_fract_x
_atom_site_fract_y
_atom_site_fract_z
_atom_type_partial_charge
C1    C     C_R   0.349386 0.151375 0.908793 -0.107755
C2    C     C_R   0.350563 0.848167 0.908781 -0.150572
C3    C     C_R   0.849931 0.650803 0.907174 -0.144824
C4    C     C_R   0.853564 0.348261 0.906728 -0.186033
H1    H     H_    0.311534 0.164724 0.824502 0.129424
H2    H     H_    0.313750 0.834329 0.824711 0.148845
H3    H     H_    0.803453 0.663009 0.822269 0.146415
H4    H     H_    0.809476 0.335533 0.821709 0.165289
N1    N     N_R   0.392140 0.102630 0.941800 -0.070685
N2    N     N_R   0.392140 0.897370 0.941800 -0.073965
N3    N     N_R   0.892140 0.602630 0.941800 -0.067787
N4    N     N_R   0.892140 0.397370 0.941800 -0.072935
C5    C     C_R   0.439661 0.848502 0.091384 0.367925
C6    C     C_R   0.439581 0.151602 0.091566 0.364308
C7    C     C_R   0.945823 0.346348 0.088775 0.288767
C8    C     C_R   0.943821 0.653083 0.089378 0.276315
N5    N     N_R   0.450890 0.896450 0.057150 -0.094624
N6    N     N_R   0.450890 0.103550 0.057150 -0.093886
N7    N     N_R   0.950890 0.396450 0.057150 -0.096520
N8    N     N_R   0.950890 0.603550 0.057150 -0.095466
C9    C     C_R   0.548906 0.045292 0.304522 -0.055367
C10   C     C_R   0.549027 0.954844 0.304372 -0.054280
C11   C     C_R   0.976158 0.545584 0.244656 -0.048542
C12   C     C_R   0.976214 0.454398 0.244550 -0.048236
H5    H     H_    0.569856 0.086662 0.333563 0.172756
H6    H     H_    0.570526 0.913607 0.333314 0.171914
H7    H     H_    0.963769 0.588012 0.252806 0.131178
H8    H     H_    0.963901 0.411940 0.252439 0.133437
N9    N     N_R   0.525160 0.027960 0.206160 -0.057004
N10   N     N_R   0.525160 0.972040 0.206160 -0.057963
N11   N     N_R   0.025160 0.527960 0.206160 -0.045094
N12   N     N_R   0.025160 0.472040 0.206160 -0.045377
C13   C     C_R   0.234168 0.953474 0.758230 0.010681
C14   C     C_R   0.231902 0.045656 0.752308 -0.073280
C15   C     C_R   0.734040 0.453615 0.758493 -0.003807
C16   C     C_R   0.731723 0.545703 0.751289 -0.091045
H9    H     H_    0.216839 0.910709 0.747702 0.150555
H10   H     H_    0.210245 0.087935 0.733185 0.153507
H11   H     H_    0.716336 0.410926 0.749135 0.149459
H12   H     H_    0.709912 0.587820 0.730493 0.153249
N13   N     N_R   0.317870 0.971120 0.792790 -0.056370
N14   N     N_R   0.317870 0.028880 0.792790 -0.062350
N15   N     N_R   0.817870 0.471120 0.792790 -0.061620
N16   N     N_R   0.817870 0.528880 0.792790 -0.066421
C17   C     C_R   0.378234 0.184009 0.000514 -0.036985
C18   C     C_R   0.379209 0.815780 0.000315 -0.034203
C19   C     C_R   0.880986 0.682838 0.997688 -0.058735
C20   C     C_R   0.885876 0.315800 0.996475 -0.048793
C21   C     C_R   0.566123 0.000077 0.368989 -0.022597
C22   C     C_R   0.943294 0.499983 0.268588 -0.015878
C23   C     C_R   0.176066 0.998808 0.724173 0.137236
C24   C     C_R   0.676002 0.498959 0.724547 0.140339
C25   C     C_R   0.516358 0.045461 0.747558 -0.093218
C26   C     C_R   0.517882 0.954205 0.749513 -0.074392
C27   C     C_R   0.951086 0.545336 0.695927 -0.060177
C28   C     C_R   0.950970 0.454532 0.695732 -0.039368
H13   H     H_    0.522212 0.087613 0.731254 0.099370
H14   H     H_    0.526779 0.911784 0.737309 0.098183
H15   H     H_    0.932961 0.587360 0.668915 0.096334
H16   H     H_    0.932712 0.412483 0.668422 0.104561
N17   N     N_R   0.473480 0.027920 0.793480 -0.046142
N18   N     N_R   0.473480 0.972080 0.793480 -0.041924
N19   N     N_R   0.973480 0.527920 0.793480 -0.049916
N20   N     N_R   0.973480 0.472080 0.793480 -0.050761
C29   C     C_R   0.758758 0.953404 0.296176 -0.047965
C30   C     C_R   0.760345 0.045751 0.297371 -0.089311
C31   C     C_R   0.255746 0.453651 0.300435 -0.011313
C32   C     C_R   0.258262 0.545463 0.300841 -0.050993
H17   H     H_    0.770259 0.910984 0.321421 0.115949
H18   H     H_    0.775276 0.087755 0.325648 0.157270
H19   H     H_    0.265301 0.411479 0.326948 0.130322
H20   H     H_    0.272752 0.587461 0.329386 0.162368
N21   N     N_R   0.681610 0.971120 0.207570 -0.059083
N22   N     N_R   0.681610 0.028880 0.207570 -0.060763
N23   N     N_R   0.181610 0.471120 0.207570 -0.054877
N24   N     N_R   0.181610 0.528880 0.207570 -0.055399
C33   C     C_R   0.671858 0.139836 0.094648 0.039498
C34   C     C_R   0.662434 0.854857 0.093510 0.011082
C35   C     C_R   0.188700 0.623051 0.089168 -0.040915
C36   C     C_R   0.188929 0.377339 0.088908 -0.043058
H21   H     H_    0.723730 0.149545 0.179851 0.152155
H22   H     H_    0.712973 0.844415 0.178609 0.140869
H23   H     H_    0.246529 0.627690 0.173514 0.141101
H24   H     H_    0.246992 0.372789 0.173148 0.126124
N25   N     N_R   0.605410 0.102620 0.056870 -0.063859
N26   N     N_R   0.605410 0.897380 0.056870 -0.063889
N27   N     N_R   0.105410 0.602620 0.056870 -0.050924
N28   N     N_R   0.105410 0.397380 0.056870 -0.050754
C37   C     C_R   0.568976 0.851496 0.910078 -0.151202
C38   C     C_R   0.577557 0.144571 0.910658 -0.127452
C39   C     C_R   0.096378 0.375049 0.906053 -0.070692
C40   C     C_R   0.096124 0.625387 0.906251 -0.071424
H25   H     H_    0.532050 0.836801 0.826432 0.134604
H26   H     H_    0.542152 0.160296 0.828092 0.125603
H27   H     H_    0.066056 0.368058 0.820288 0.146830
H28   H     H_    0.065721 0.632578 0.820577 0.146288
N29   N     N_R   0.549680 0.896430 0.944180 -0.060353
N30   N     N_R   0.549680 0.103570 0.944180 -0.059953
N31   N     N_R   0.049680 0.396430 0.944180 -0.063756
N32   N     N_R   0.049680 0.603570 0.944180 -0.064805
Ni1   Ni    Ni4+2 0.433410 0.064680 0.868830 0.241691
Ni2   Ni    Ni4+2 0.433410 0.935320 0.868830 0.259660
Ni3   Ni    Ni4+2 0.933410 0.564680 0.868830 0.223969
Ni4   Ni    Ni4+2 0.933410 0.435320 0.868830 0.242374
Ni5   Ni    Ni4+2 0.565650 0.934380 0.131170 0.278318
Ni6   Ni    Ni4+2 0.565650 0.065620 0.131170 0.285330
Ni7   Ni    Ni4+2 0.065650 0.434380 0.131170 0.306523
Ni8   Ni    Ni4+2 0.065650 0.565620 0.131170 0.310461
C41   C     C_R   0.548880 0.999800 0.723231 0.032261
C42   C     C_R   0.934997 0.499897 0.631498 0.062609
C43   C     C_R   0.811518 0.999277 0.351772 0.113614
C44   C     C_R   0.308214 0.499107 0.357441 0.088806
C45   C     C_R   0.655434 0.165461 0.003690 0.089595
C46   C     C_R   0.640014 0.826095 0.002426 0.125312
C47   C     C_R   0.186159 0.636302 0.995575 0.075392
C48   C     C_R   0.186542 0.364386 0.995212 0.072543
C49   C     C_3   0.039797 0.935330 0.587072 0.508200
C50   C     C_3   0.010235 0.030008 0.653423 0.586681
C51   C     C_3   0.536977 0.435215 0.594213 0.508023
C52   C     C_3   0.511614 0.532727 0.655688 0.572159
C53   C     C_3   0.935931 0.939244 0.494912 -0.515534
C54   C     C_3   0.911166 0.032618 0.543069 -0.548669
C55   C     C_3   0.432097 0.439452 0.504782 -0.509694
C56   C     C_3   0.411917 0.535311 0.546377 -0.517553
H29   H     H_    0.892401 0.925466 0.523810 0.219270
H30   H     H_    0.857800 0.015914 0.554536 0.202630
H31   H     H_    0.390495 0.428724 0.537947 0.232616
H32   H     H_    0.358662 0.521437 0.560427 0.219633
H33   H     H_    0.920304 0.909991 0.429078 0.231997
H34   H     H_    0.887547 0.075178 0.515797 0.242878
H35   H     H_    0.413436 0.408022 0.441338 0.226595
H36   H     H_    0.390380 0.577767 0.516427 0.247005
H37   H     H_    0.130647 0.019898 0.527775 0.253221
H38   H     H_    0.084556 0.073783 0.554935 0.228786
H39   H     H_    0.627753 0.515017 0.526173 0.248095
H40   H     H_    0.583623 0.570970 0.550365 0.228935
C57   C     C_3   0.071747 0.029629 0.533919 -0.590740
C58   C     C_3   0.569822 0.526572 0.533029 -0.594634
C59   C     C_3   0.076572 0.997249 0.629392 -0.147707
C60   C     C_3   0.575795 0.497265 0.631710 -0.156541
C61   C     C_3   0.907458 0.998951 0.450671 -0.047366
C62   C     C_3   0.404960 0.498415 0.455536 -0.066787
C63   C     C_3   0.976569 0.022516 0.422599 0.571207
C64   C     C_3   0.473667 0.518199 0.423585 0.590471
C65   C     C_R   0.288800 0.731850 0.896757 -0.192703
C66   C     C_R   0.287690 0.267615 0.896620 -0.185223
C67   C     C_R   0.746647 0.296547 0.985210 -0.247357
C68   C     C_R   0.749734 0.697095 0.006320 -0.221415
H41   H     H_    0.270166 0.749625 0.820068 0.180734
H42   H     H_    0.268421 0.249237 0.819997 0.175150
H43   H     H_    0.731397 0.340161 0.975787 0.190889
H44   H     H_    0.744708 0.652986 0.011643 0.188978
C69   C     C_R   0.688686 0.260555 0.990688 0.368072
C70   C     C_R   0.687818 0.731334 0.008507 0.363895
C71   C     C_R   0.245091 0.683181 0.894090 0.337425
C72   C     C_R   0.244675 0.316676 0.893524 0.336749
C73   C     C_R   0.713753 0.204992 0.005401 -0.075187
C74   C     C_R   0.699418 0.787845 0.002271 -0.076622
C75   C     C_R   0.260074 0.664131 0.993129 -0.011273
C76   C     C_R   0.260648 0.336836 0.992511 -0.008530
C77   C     C_R   0.793566 0.185419 0.015234 -0.151802
C78   C     C_R   0.769300 0.809836 0.993842 -0.178000
C79   C     C_R   0.338871 0.682597 0.092393 -0.131755
C80   C     C_R   0.340218 0.319190 0.091745 -0.140762
H45   H     H_    0.810567 0.142037 0.025780 0.177176
H46   H     H_    0.776237 0.853785 0.988752 0.164952
H47   H     H_    0.359091 0.665733 0.170278 0.200719
H48   H     H_    0.362039 0.337834 0.169222 0.183893
C81   C     C_R   0.386970 0.728006 0.094136 -0.044935
C82   C     C_R   0.386997 0.272800 0.093933 -0.049903
C83   C     C_R   0.850699 0.221813 0.009829 -0.024076
C84   C     C_R   0.830122 0.775234 0.991757 -0.035925
H49   H     H_    0.445312 0.740691 0.173071 0.203183
H50   H     H_    0.445499 0.260335 0.172821 0.203896
H51   H     H_    0.913307 0.207648 0.017946 0.157181
H52   H     H_    0.884822 0.791474 0.985469 0.152690
C85   C     C_R   0.353774 0.757564 0.997436 0.094118
C86   C     C_R   0.352812 0.242355 0.997511 0.092104
C87   C     C_R   0.826531 0.276772 0.995329 0.083714
C88   C     C_R   0.819705 0.719510 0.998605 0.094957
C89   C     C_R   0.608447 0.950107 0.629177 -0.122407
C90   C     C_R   0.609553 0.049450 0.630562 -0.123269
C91   C     C_R   0.889248 0.450195 0.461282 -0.068912
C92   C     C_R   0.889243 0.549591 0.461714 -0.093002
H53   H     H_    0.605382 0.910949 0.661159 0.122934
H54   H     H_    0.607635 0.088538 0.663930 0.123631
H55   H     H_    0.891305 0.411004 0.496599 0.139857
H56   H     H_    0.891257 0.588781 0.497326 0.135035
C93   C     C_R   0.611833 0.950178 0.538087 -0.107569
C94   C     C_R   0.612725 0.049587 0.539283 -0.113861
C95   C     C_R   0.887809 0.450258 0.366793 -0.098380
C96   C     C_R   0.887860 0.549585 0.367267 -0.091351
H57   H     H_    0.610960 0.910990 0.503204 0.144239
H58   H     H_    0.612569 0.088809 0.505266 0.145893
H59   H     H_    0.889080 0.411122 0.333125 0.135291
H60   H     H_    0.889208 0.588735 0.333999 0.132683
C97   C     C_R   0.602817 0.999958 0.485486 0.102033
C98   C     C_R   0.898653 0.499943 0.327587 0.113770
C99   C     C_R   0.595312 0.999760 0.666557 0.117255
C100  C     C_R   0.899831 0.499885 0.515280 0.092545
Br1   Br    Br    0.049893 0.884896 0.698107 -0.455740
Br2   Br    Br    0.995612 0.995467 0.762953 -0.402927
Br3   Br    Br    0.550862 0.387950 0.711105 -0.424843
Br4   Br    Br    0.497997 0.501424 0.768491 -0.311936
N33   N     N_R   0.987268 0.984154 0.352232 0.261621
O1    O     O_R   0.916739 0.955263 0.276646 -0.380618
O2    O     O_R   0.055962 0.991346 0.341824 -0.286116
N34   N     N_R   0.945412 0.076183 0.365644 0.219193
O3    O     O_R   0.919671 0.080674 0.264379 -0.346382
O4    O     O_R   0.943995 0.120064 0.414965 -0.368000
N35   N     N_R   0.482610 0.476705 0.356256 0.265372
O5    O     O_R   0.549840 0.481654 0.342578 -0.288964
O6    O     O_R   0.411793 0.446489 0.285459 -0.406264
N36   N     N_R   0.443207 0.570371 0.361460 0.209193
O7    O     O_R   0.442539 0.616211 0.406320 -0.398377
O8    O     O_R   0.418251 0.571480 0.260217 -0.362394
N37   N     N_R   0.606912 0.280670 0.982334 0.243381
O9    O     O_R   0.569859 0.327278 0.934219 -0.300644
O10   O     O_R   0.574344 0.255696 0.031536 -0.382738
N38   N     N_R   0.615054 0.708451 0.015911 0.245337
O11   O     O_R   0.575853 0.737193 0.053418 -0.386856
O12   O     O_R   0.591429 0.657106 0.991312 -0.300677
N39   N     N_R   0.188255 0.653583 0.792547 0.227982
O13   O     O_R   0.190069 0.600160 0.792512 -0.344004
O14   O     O_R   0.145248 0.679390 0.699197 -0.351137
N40   N     N_R   0.187660 0.345651 0.791563 0.228378
O15   O     O_R   0.144083 0.319214 0.698610 -0.353761
O16   O     O_R   0.189705 0.399056 0.790665 -0.344264
N41   N     N_R   0.500726 0.830729 0.202089 0.199036
O17   O     O_R   0.470331 0.828242 0.264517 -0.414841
O18   O     O_R   0.589452 0.825710 0.245386 -0.419838
N42   N     N_R   0.501873 0.170032 0.201821 0.200535
O19   O     O_R   0.590593 0.173715 0.244023 -0.408775
O20   O     O_R   0.472752 0.173388 0.265463 -0.413710
N43   N     N_R   0.014278 0.324091 0.194877 0.229791
O21   O     O_R   0.003205 0.275607 0.222488 -0.344201
O22   O     O_R   0.091010 0.350895 0.262222 -0.412272
N44   N     N_R   0.011742 0.676170 0.195061 0.232470
O23   O     O_R   0.089287 0.650263 0.262648 -0.401892
O24   O     O_R   0.000086 0.725071 0.220900 -0.334577
N45   N     N_R   0.086668 0.905869 0.542612 0.244506
O25   O     O_R   0.062320 0.855495 0.508179 -0.292790
O26   O     O_R   0.155221 0.926558 0.542183 -0.378300
N46   N     N_R   0.046506 0.085895 0.697282 0.227059
O27   O     O_R   0.105043 0.093400 0.802623 -0.355172
O28   O     O_R   0.017112 0.129078 0.634637 -0.349531
N47   N     N_R   0.580183 0.403081 0.548158 0.243676
O29   O     O_R   0.553344 0.352621 0.516610 -0.322101
O30   O     O_R   0.648446 0.421326 0.544439 -0.395401
N48   N     N_R   0.549402 0.588805 0.695798 0.230343
O31   O     O_R   0.606104 0.598258 0.800739 -0.354735
O32   O     O_R   0.523755 0.630420 0.629615 -0.358619

loop_
_geom_bond_atom_site_label_1
_geom_bond_atom_site_label_2
_geom_bond_distance
_ccdc_geom_bond_type
H39   C58   1.106510 S    
C64   N36   1.481063 S    
H37   C57   1.106086 S    
C49   C59   1.618257 S    
C35   C47   1.399144 A    
N13   N14   1.407116 A    
C6    N6    1.333946 A    
C80   C82   1.382711 A    
N39   O13   1.301815 A    
C14   N14   1.323395 A    
C95   C98   1.402043 A    
C32   C44   1.382198 A    
C36   H24   1.076375 S    
C56   C62   1.561817 S    
H38   C57   1.106046 S    
C9    C21   1.376076 A    
C22   C98   1.462480 S    
C34   C46   1.363248 A    
N33   O1    1.301137 A    
N46   O27   1.302903 A    
C7    N7    1.329110 A    
C84   H52   1.083941 S    
C57   C59   1.580078 S    
C66   C86   1.405660 A    
C14   C23   1.400421 A    
N9    N10   1.362291 A    
C77   C83   1.369377 A    
C68   C70   1.378185 A    
C82   C86   1.404077 A    
C1    H1    1.079183 S    
C51   C60   1.618967 S    
C76   C80   1.398029 A    
C38   N30   1.325311 A    
C52   N48   1.485021 S    
C48   C76   1.475486 S    
C27   H15   1.079817 S    
C72   N40   1.436929 S    
C61   C63   1.588210 S    
C90   H54   1.080794 S    
C5    C18   1.394639 A    
C49   Br1   1.980605 S    
C68   H44   1.084850 S    
N17   N18   1.360343 A    
N2    N5    1.406678 A    
N48   O32   1.301708 A    
C30   N22   1.320951 A    
C40   H28   1.075836 S    
C29   N21   1.309047 A    
C39   C48   1.387172 A    
C56   H36   1.104573 S    
N45   O25   1.302899 A    
N11   Ni8   1.861792 S    
C38   C45   1.368128 A    
C44   C62   1.473390 S    
N2    Ni2   1.850897 S    
N26   N29   1.373325 A    
C49   C53   1.530476 S    
N15   Ni4   1.873683 S    
C29   C43   1.381505 A    
C16   H12   1.077141 S    
C51   N47   1.491221 S    
N25   N30   1.373449 A    
C37   N29   1.325008 A    
C78   H46   1.085125 S    
C25   N17   1.334608 A    
C27   C42   1.380113 A    
C46   C74   1.393371 S    
N27   Ni8   1.836426 S    
C63   N34   1.483182 S    
N18   Ni2   1.850132 S    
N34   O3    1.302645 A    
C92   C100  1.402627 A    
N12   Ni7   1.858709 S    
C27   N19   1.334200 A    
N43   O21   1.300568 A    
C92   C96   1.384342 A    
C52   C60   1.603467 S    
C11   H7    1.076201 S    
C30   C43   1.383292 A    
C4    N4    1.324392 A    
C79   C81   1.379510 A    
C15   N15   1.315594 A    
C49   N45   1.490796 S    
C69   N37   1.444065 S    
N29   Ni2   1.919270 S    
C16   C24   1.399490 A    
C93   H57   1.080192 S    
C4    H4    1.081800 S    
C56   H32   1.112814 S    
C34   N26   1.320769 A    
N33   O2    1.302633 A    
N31   Ni4   1.919270 S    
C57   C63   1.546319 S    
C33   N25   1.318562 A    
N24   Ni8   1.889766 S    
C66   H42   1.079130 S    
C35   N27   1.339503 A    
C36   N28   1.340871 A    
C37   H25   1.080892 S    
N43   O22   1.300730 A    
C18   C85   1.479335 S    
C83   C87   1.383572 A    
C2    H2    1.079418 S    
C89   C93   1.382554 A    
C7    C20   1.373484 A    
C33   C45   1.360325 A    
C8    C19   1.372138 A    
C81   C85   1.402194 A    
N38   O11   1.301200 A    
N16   Ni3   1.871996 S    
C50   N46   1.484937 S    
C38   H26   1.080141 S    
C6    C17   1.396679 A    
N47   O30   1.300160 A    
N21   N22   1.407116 A    
C12   C22   1.384901 A    
N44   O24   1.300913 A    
N3    N8    1.406558 A    
C71   N39   1.436865 S    
C96   C98   1.401588 A    
C42   C100  1.461965 S    
C89   C99   1.400635 A    
C53   C61   1.557479 S    
N23   Ni7   1.888041 S    
C72   C76   1.413712 A    
C51   Br3   1.977838 S    
N19   Ni3   1.847094 S    
N44   O23   1.300828 A    
C1    C17   1.395597 A    
N28   Ni7   1.833386 S    
C25   H13   1.073506 S    
N36   O7    1.301193 A    
C11   C22   1.385798 A    
C21   C97   1.459425 S    
C26   N18   1.334785 A    
N48   O31   1.302871 A    
N19   N20   1.360343 A    
C71   C75   1.414529 A    
N32   Ni3   1.917512 S    
C2    C18   1.394316 A    
N17   Ni1   1.847094 S    
C92   H56   1.080295 S    
C26   C41   1.384976 A    
C47   C75   1.474336 S    
C32   H20   1.079795 S    
N45   O26   1.300062 A    
C11   N11   1.337484 A    
C54   H30   1.113104 S    
C79   H47   1.078329 S    
N23   N24   1.407116 A    
C12   N12   1.336704 A    
C74   C78   1.399568 A    
C53   H29   1.113680 S    
C19   C88   1.397842 S    
N5    Ni5   1.887280 S    
N22   Ni6   1.889766 S    
C34   H22   1.080961 S    
N21   Ni5   1.888041 S    
N11   N12   1.362291 A    
C33   H21   1.080539 S    
C8    N8    1.327593 A    
C3    N3    1.324744 A    
N42   O20   1.301443 A    
N13   Ni2   1.873683 S    
C1    N1    1.338868 A    
C31   C44   1.376379 A    
C32   N24   1.325472 A    
C82   H50   1.069835 S    
C50   C54   1.565383 S    
C58   C60   1.576803 S    
C17   C86   1.481841 S    
C10   C21   1.374474 A    
C80   H48   1.080860 S    
N1    Ni1   1.847839 S    
N35   O6    1.300505 A    
N40   O16   1.301838 A    
N10   Ni5   1.858709 S    
C77   H45   1.084898 S    
C52   Br4   1.970181 S    
C75   C79   1.397400 A    
N9    Ni6   1.861792 S    
C16   N16   1.323703 A    
N26   Ni5   1.833386 S    
C31   N23   1.313468 A    
C70   N38   1.445366 S    
C50   C59   1.601255 S    
C2    N2    1.340276 A    
N14   Ni1   1.871996 S    
C96   H60   1.080791 S    
C55   H31   1.113391 S    
C62   C64   1.591788 S    
C40   N32   1.330540 A    
H40   C58   1.105569 S    
C4    C20   1.364674 A    
N27   N32   1.373449 A    
C26   H14   1.074861 S    
C93   C97   1.402524 A    
N20   Ni4   1.850132 S    
C9    H5    1.074136 S    
C37   C46   1.365844 A    
C89   H53   1.080723 S    
C10   N10   1.333344 A    
C55   H35   1.106191 S    
C14   H10   1.078506 S    
C6    N42   1.424132 S    
C8    N44   1.434503 S    
C36   C48   1.398835 A    
C90   C99   1.401565 A    
C12   H8    1.076470 S    
C53   H33   1.107649 S    
C73   C77   1.397315 A    
C91   C95   1.384418 A    
N4    N7    1.406678 A    
N47   O29   1.302916 A    
N39   O14   1.301512 A    
N4    Ni4   1.850897 S    
C51   C55   1.534957 S    
C13   C23   1.385965 A    
N30   Ni1   1.917512 S    
N3    Ni3   1.847839 S    
C30   H18   1.079087 S    
C3    H3    1.081404 S    
C91   C100  1.402169 A    
N41   O17   1.301487 A    
C5    N5    1.332356 A    
N38   O12   1.301797 A    
C13   N13   1.313773 A    
C28   C42   1.380992 A    
N37   O9    1.301700 A    
N36   O8    1.302098 A    
N41   O18   1.300377 A    
N34   O4    1.301065 A    
C58   C64   1.545811 S    
C7    N43   1.435070 S    
C35   H23   1.075893 S    
C84   C88   1.381261 A    
C28   N20   1.335037 A    
C63   N33   1.486005 S    
C9    N9    1.334893 A    
N6    Ni6   1.888986 S    
N15   N16   1.407116 A    
C29   H17   1.079072 S    
C67   H43   1.085048 S    
C55   C62   1.559285 S    
C3    C19   1.366970 A    
N42   O19   1.300550 A    
C24   C60   1.487923 S    
N46   O28   1.301456 A    
C13   H9    1.070955 S    
C31   H19   1.079276 S    
C64   N35   1.486689 S    
C69   C73   1.401177 A    
N37   O10   1.301653 A    
C67   C69   1.374632 A    
C40   C47   1.386816 A    
C95   H59   1.080716 S    
N28   N31   1.373325 A    
C41   C99   1.459047 S    
C52   C56   1.564679 S    
C94   H58   1.080432 S    
C5    N41   1.423976 S    
N35   O5    1.302837 A    
C65   C71   1.397821 A    
C67   C87   1.398223 A    
N1    N6    1.406558 A    
C50   Br2   1.969017 S    
C15   H11   1.070947 S    
C28   H16   1.079902 S    
C39   H27   1.075603 S    
C68   C88   1.398843 A    
N40   O15   1.301503 A    
C10   H6    1.073593 S    
C43   C61   1.469249 S    
C65   C85   1.405344 A    
C15   C24   1.385681 A    
C70   C74   1.402395 A    
C81   H49   1.069443 S    
C54   C61   1.562435 S    
C25   C41   1.384639 A    
C90   C94   1.383122 A    
C66   C72   1.397415 A    
C45   C73   1.390093 S    
C39   N31   1.330915 A    
C78   C84   1.367775 A    
C54   H34   1.104690 S    
C20   C87   1.398042 S    
C65   H41   1.079394 S    
C91   H55   1.080395 S    
N25   Ni6   1.836426 S    
C94   C97   1.401733 A    
C23   C59   1.487642 S    
N8    Ni8   1.888986 S    
C83   H51   1.083797 S    
N7    Ni7   1.887280 S    
