data_mof_unit_44630.cif
_audit_creation_date              2012-12-11T16:07:34-0500
_audit_creation_method            fapswitch 2.2
_symmetry_space_group_name_H-M    P1
_symmetry_Int_Tables_number       1
_space_group_crystal_system       triclinic
_cell_length_a                    6.923189
_cell_length_b                    14.447349
_cell_length_c                    15.846858
_cell_angle_alpha                 90.232019
_cell_angle_beta                  90.079559
_cell_angle_gamma                 90.001031
_cell_volume                      1585.01559093

loop_
_atom_site_label
_atom_site_type_symbol
_atom_type_description
_atom_site_fract_x
_atom_site_fract_y
_atom_site_fract_z
_atom_type_partial_charge
O1    O     O_R   0.494320 0.415010 0.412140 -0.554133
O2    O     O_R   0.824010 0.404260 0.587250 -0.535131
O3    O     O_R   0.994320 0.584990 0.587860 -0.525141
C1    C     C_R   0.654700 0.383148 0.617507 0.658906
O4    O     O_R   0.824040 0.403870 0.412760 -0.538049
O5    O     O_R   0.994350 0.584590 0.412130 -0.530498
C2    C     C_R   0.655181 0.381632 0.383397 0.685213
O6    O     O_R   0.494300 0.415410 0.587870 -0.530911
O7    O     O_3   0.660800 0.559290 0.500000 -0.358058
V1    V     V_3+5 0.935650 0.489000 0.500000 1.479743
O8    O     O_R   0.324060 0.595740 0.412750 -0.548701
C3    C     C_R   0.154643 0.618657 0.383913 0.671301
O9    O     O_R   0.324040 0.596130 0.587240 -0.533423
C4    C     C_R   0.155314 0.618572 0.616197 0.802233
V2    V     V_3+5 0.435660 0.511000 0.500000 1.468893
O10   O     O_3   0.160640 0.440710 0.500000 -0.370836
C5    C     C_3   0.071009 0.666801 0.776455 -0.159539
C6    C     C_3   0.243144 0.721867 0.813805 0.174823
H1    H     H_    0.020068 0.598234 0.798650 0.153858
C7    C     C_3   0.121756 0.810920 0.811722 -0.078049
C8    C     C_3   0.948847 0.756929 0.774738 -0.151204
C9    C     C_3   0.024226 0.777631 0.684927 0.171012
C10   C     C_3   0.196345 0.832527 0.722329 -0.178658
C11   C     C_3   0.318375 0.742439 0.723932 -0.146233
C12   C     C_3   0.145287 0.688438 0.686882 -0.084915
H2    H     H_    0.796340 0.763323 0.795478 0.162046
H3    H     H_    0.247311 0.901130 0.700240 0.133990
H4    H     H_    0.470851 0.736024 0.703142 0.159999
C13   C     C_3   0.231848 0.852486 0.264399 -0.326911
H5    H     H_    0.380333 0.873224 0.245389 0.137655
H6    H     H_    0.157000 0.916007 0.287140 0.126816
C14   C     C_3   0.244948 0.781067 0.337416 -0.312890
H7    H     H_    0.177422 0.810589 0.395248 0.157371
H8    H     H_    0.399528 0.767582 0.352332 0.149876
H9    H     H_    0.377378 0.739617 0.137442 0.160796
H10   H     H_    0.394480 0.634596 0.244990 0.150163
C15   C     C_3   0.228665 0.722156 0.158700 -0.296752
C16   C     C_3   0.916618 0.782922 0.217712 -0.325200
C17   C     C_3   0.121621 0.811361 0.187300 0.095636
H11   H     H_    0.833886 0.751420 0.164574 0.153703
H12   H     H_    0.835343 0.845211 0.239110 0.136056
C18   C     C_3   0.142550 0.689186 0.312839 0.088665
C19   C     C_3   0.240302 0.650903 0.231781 -0.313028
C20   C     C_3   0.928752 0.712854 0.290924 -0.306913
H13   H     H_    0.855145 0.742295 0.347393 0.157712
H14   H     H_    0.849225 0.649025 0.272709 0.183747
H15   H     H_    0.152074 0.690512 0.103958 0.165777
H16   H     H_    0.168917 0.585258 0.212058 0.175619
C21   C     C_3   0.428620 0.304592 0.724021 -0.088724
H17   H     H_    0.334113 0.282197 0.670658 0.096258
C22   C     C_3   0.416978 0.228212 0.792494 -0.359377
H18   H     H_    0.321003 0.171583 0.769471 0.123891
H19   H     H_    0.349959 0.254975 0.851605 0.160000
H20   H     H_    0.754693 0.411143 0.784794 0.174868
H21   H     H_    0.693293 0.307314 0.893081 0.170739
C23   C     C_3   0.778772 0.338877 0.763072 -0.288437
C24   C     C_3   0.702551 0.215776 0.657011 -0.355744
C25   C     C_3   0.640819 0.313255 0.689151 0.025530
H22   H     H_    0.850149 0.218701 0.629393 0.147519
H23   H     H_    0.603097 0.192569 0.605907 0.131506
C26   C     C_3   0.620563 0.188324 0.812380 0.085590
C27   C     C_3   0.754633 0.270324 0.837542 -0.319128
C28   C     C_3   0.700203 0.144109 0.729986 -0.310200
H24   H     H_    0.609790 0.083662 0.711409 0.140065
H25   H     H_    0.849401 0.118027 0.740910 0.145601
H26   H     H_    0.930248 0.335126 0.740519 0.173887
H27   H     H_    0.899506 0.244146 0.856432 0.137507
C29   C     C_3   0.543970 0.354929 0.230955 -0.089559
H28   H     H_    0.391971 0.370968 0.248772 0.086155
C30   C     C_3   0.537581 0.282240 0.157771 -0.343440
H29   H     H_    0.619094 0.306881 0.101609 0.143070
H30   H     H_    0.385111 0.272606 0.137125 0.142257
H31   H     H_    0.375977 0.248390 0.356583 0.141171
H32   H     H_    0.355535 0.143699 0.248325 0.137576
C31   C     C_3   0.524184 0.226663 0.337912 -0.361063
C32   C     C_3   0.849365 0.276009 0.286338 -0.309523
C33   C     C_3   0.644996 0.312415 0.310915 0.058276
H33   H     H_    0.917841 0.242238 0.341879 0.130525
H34   H     H_    0.946514 0.333571 0.267758 0.177455
C34   C     C_3   0.623373 0.188234 0.186301 0.084789
C35   C     C_3   0.510096 0.154791 0.264963 -0.321081
C36   C     C_3   0.836788 0.205304 0.213382 -0.321377
H35   H     H_    0.921750 0.231432 0.158830 0.146687
H36   H     H_    0.904252 0.139077 0.233746 0.135228
H37   H     H_    0.591285 0.193639 0.394116 0.134739
H38   H     H_    0.568699 0.087152 0.286517 0.128999
O11   O     O_R   0.771990 0.083520 0.910980 -0.542873
O12   O     O_R   0.442180 0.095020 0.086060 -0.545566
O13   O     O_R   0.271950 0.914280 0.086680 -0.536715
C37   C     C_R   0.611431 0.117299 0.115443 0.656730
O14   O     O_R   0.442270 0.094630 0.911580 -0.545269
O15   O     O_R   0.272040 0.913890 0.910940 -0.525459
C38   C     C_R   0.610987 0.117179 0.882617 0.667251
O16   O     O_R   0.771900 0.083910 0.086710 -0.544437
O17   O     O_3   0.605520 0.939610 0.998840 -0.349997
V3    V     V_3+5 0.330640 0.009880 0.998810 1.410226
O18   O     O_R   0.942330 0.902710 0.911540 -0.535829
C39   C     C_R   0.111090 0.880764 0.882287 0.739796
O19   O     O_R   0.942240 0.903100 0.086030 -0.542809
C40   C     C_R   0.111110 0.881158 0.115646 0.667751
V4    V     V_3+5 0.830640 0.987830 0.998780 1.420930
O20   O     O_3   0.105630 0.058150 0.998800 -0.376411
I1    I     I_    0.422818 0.681326 0.917138 -0.478229
C41   C     C_2   0.347919 0.395169 0.757789 0.709822
O21   O     O_2   0.222722 0.435961 0.718205 -0.581304
O22   O     O_R   0.411514 0.430660 0.835127 -0.661407
H39   H     H_    0.338709 0.488507 0.852200 0.319806
C42   C     C_2   0.628194 0.445570 0.199723 0.693690
O23   O     O_2   0.775269 0.478142 0.230543 -0.594139
O24   O     O_R   0.534096 0.492334 0.134439 -0.656043
H40   H     H_    0.601360 0.552136 0.118594 0.305947
I2    I     I_    0.848151 0.823671 0.582504 -0.524133

loop_
_geom_bond_atom_site_label_1
_geom_bond_atom_site_label_2
_ccdc_geom_bond_type
C8    H2    S    
O12   V3    S    
V4    O20   S    
V3    O20   S    
O17   V3    S    
C22   C26   S    
C32   H34   S    
C1    O6    A    
C21   C41   S    
C28   H25   S    
O18   C39   A    
C17   C40   S    
O15   C39   A    
C27   H27   S    
C6    C11   S    
H9    C15   S    
C32   H33   S    
C13   C14   S    
O5    C3    A    
C16   C17   S    
C26   C38   S    
C24   H22   S    
O22   H39   S    
V2    O10   S    
H21   C27   S    
O15   V3    S    
C42   O23   D    
C26   C28   S    
O24   H40   S    
C3    C18   S    
O14   V3    S    
O11   V4    S    
O8    V2    S    
C31   H37   S    
O16   V4    S    
C42   O24   S    
C29   H28   S    
C21   C22   S    
C9    C12   S    
C10   C11   S    
C24   C28   S    
C30   H29   S    
O1    V2    S    
C10   H3    S    
C15   H15   S    
C19   H16   S    
C35   H38   S    
C2    C33   S    
C8    C9    S    
H31   C31   S    
C18   C20   S    
C41   O22   S    
C41   O21   D    
C20   H14   S    
C37   O16   A    
H20   C23   S    
O13   C40   A    
C30   C34   S    
C22   H18   S    
C11   C12   S    
C16   H12   S    
C34   C36   S    
C32   C36   S    
O4    C2    A    
C31   C35   S    
C24   H23   S    
C5    C8    S    
C21   C25   S    
C22   H19   S    
C14   H8    S    
C15   C19   S    
O2    C1    A    
C16   C20   S    
C13   H5    S    
O14   C38   A    
O19   C40   A    
C7    C10   S    
C13   C17   S    
C5    C6    S    
C32   C33   S    
C31   C33   S    
O3    C4    A    
C29   C30   S    
O19   V4    S    
O12   C37   A    
C36   H35   S    
O6    V2    S    
C9    I2    S    
O9    V2    S    
C23   C27   S    
C18   C19   S    
H32   C35   S    
O2    V1    S    
C20   H13   S    
O7    V1    S    
C29   C33   S    
O1    C2    A    
C11   H4    S    
C34   C35   S    
O5    V1    S    
O8    C3    A    
C36   H36   S    
C5    C12   S    
C14   H7    S    
O13   V3    S    
O7    V2    S    
O4    V1    S    
C15   C17   S    
O3    V1    S    
V1    O10   S    
C16   H11   S    
C24   C25   S    
C23   H26   S    
O11   C38   A    
C5    H1    S    
C23   C25   S    
C6    C7    S    
C6    I1    S    
C4    C12   S    
C34   C37   S    
C26   C27   S    
C28   H24   S    
C7    C39   S    
C7    C8    S    
C13   H6    S    
C21   H17   S    
C1    C25   S    
C14   C18   S    
C9    C10   S    
H10   C19   S    
C30   H30   S    
C29   C42   S    
O9    C4    A    
O18   V4    S    
O17   V4    S    
