data_mof_unit_67885.cif
_audit_creation_date              2013-03-05T15:43:18-0500
_audit_creation_method            fapswitch 2.2
_symmetry_space_group_name_H-M    P1
_symmetry_Int_Tables_number       1
_space_group_crystal_system       triclinic
_cell_length_a                    10.662246
_cell_length_b                    11.016506
_cell_length_c                    10.296855
_cell_angle_alpha                 91.332057
_cell_angle_beta                  87.013648
_cell_angle_gamma                 90.837349
_cell_volume                      1207.39804376

loop_
_atom_site_label
_atom_site_type_symbol
_atom_site_description
_atom_site_fract_x
_atom_site_fract_y
_atom_site_fract_z
_atom_type_partial_charge
O1    O     O_R   0.499980 0.319060 0.613040 -0.545209
O2    O     O_R   0.500020 0.319100 0.386900 -0.568072
C1    C     C_R   0.499804 0.264494 0.498316 0.898866
O3    O     O_R   0.316750 0.499980 0.613090 -0.609070
O4    O     O_R   0.316790 0.500020 0.386950 -0.654278
C2    C     C_R   0.260989 0.489234 0.504019 0.885434
Zn1   Zn    Zn3+2 0.499970 0.499970 0.650990 1.014850
Zn2   Zn    Zn3+2 0.500030 0.500030 0.349010 1.028662
O5    O     O_R   0.499980 0.680900 0.613100 -0.641165
O6    O     O_R   0.500020 0.680940 0.386960 -0.626884
O7    O     O_R   0.683210 0.499980 0.613050 -0.638882
O8    O     O_R   0.683250 0.500020 0.386910 -0.554872
C3    C     C_R   0.496486 0.735925 0.502445 0.847530
C4    C     C_R   0.738713 0.500588 0.496755 0.914099
H1    H     H_    0.129407 0.641066 0.391108 0.181466
C5    C     C_R   0.093524 0.301303 0.666862 0.207491
C6    C     C_R   0.007308 0.217914 0.725849 0.449145
C7    C     C_R   0.886181 0.207006 0.681498 0.280832
C8    C     C_R   0.844465 0.293254 0.599943 -0.306799
H2    H     H_    0.748885 0.284017 0.571105 0.185635
C9    C     C_R   0.922358 0.390255 0.556762 -0.070883
C10   C     C_R   0.051701 0.391214 0.579476 -0.065449
C11   C     C_R   0.126549 0.482847 0.512759 -0.107183
C12   C     C_R   0.072240 0.571603 0.439604 -0.288656
C13   C     C_R   0.945232 0.575395 0.430346 0.367156
C14   C     C_R   0.871047 0.486204 0.490032 -0.116153
C15   C     C_2   0.456314 0.931248 0.411866 0.242715
C16   C     C_2   0.491880 0.867269 0.511845 0.283623
C17   C     C_2   0.500356 0.058450 0.400403 0.449344
C18   C     C_2   0.474577 0.136900 0.499233 -0.331476
H3    H     H_    0.428972 0.109799 0.588781 0.190314
C19   C     C_2   0.595682 0.524020 0.924202 -0.019054
N1    N     N_2   0.501340 0.501330 0.852150 0.081293
H4    H     H_    0.687537 0.533904 0.875578 0.085234
C20   C     C_2   0.581113 0.558026 0.069974 0.601094
N2    N     N_2   0.501380 0.501360 0.147810 0.030856
O9    O     O_3   0.388918 0.505132 0.917609 -0.569712
C21   C     C_3   0.309349 0.588240 0.863991 0.198098
H5    H     H_    0.230598 0.537959 0.820367 0.210989
H6    H     H_    0.358006 0.644805 0.790415 0.147811
C22   C     C_3   0.254610 0.671478 0.972006 -0.527581
H7    H     H_    0.323715 0.682402 0.048018 0.231278
H8    H     H_    0.238205 0.761861 0.931804 0.213820
C23   C     C_3   0.129807 0.623948 0.031552 -0.879918
H9    H     H_    0.059739 0.617207 0.955845 0.255888
H10   H     H_    0.094728 0.686240 0.110943 0.273760
H11   H     H_    0.140189 0.533440 0.072663 0.258363
O10   O     O_3   0.656234 0.647529 0.125268 -0.623664
C24   C     C_3   0.684817 0.744575 0.040258 0.045932
H12   H     H_    0.668325 0.830459 0.095917 0.160701
H13   H     H_    0.623144 0.749415 0.956356 0.106184
C25   C     C_3   0.823547 0.740865 0.994827 -0.383853
H14   H     H_    0.881852 0.753594 0.080255 0.276287
H15   H     H_    0.845573 0.651387 0.948493 0.212559
C26   C     C_3   0.857803 0.840131 0.898467 -0.820736
H16   H     H_    0.803541 0.827314 0.809845 0.307812
H17   H     H_    0.959617 0.836341 0.869927 0.265424
H18   H     H_    0.837339 0.930368 0.944113 0.271707
O11   O     O_3   0.467751 0.388470 0.104385 -0.541215
C27   C     C_3   0.336035 0.370915 0.129330 0.315568
H19   H     H_    0.290955 0.364791 0.035483 0.165559
H20   H     H_    0.288781 0.448086 0.179552 0.141250
C28   C     C_3   0.302329 0.247800 0.188464 -0.389016
H21   H     H_    0.259413 0.190100 0.112512 0.197635
H22   H     H_    0.387069 0.201894 0.216638 0.308921
C29   C     C_3   0.206931 0.255074 0.303965 -0.895987
H23   H     H_    0.255361 0.270232 0.395270 0.280941
H24   H     H_    0.154938 0.168093 0.313756 0.247316
H25   H     H_    0.137680 0.327412 0.291563 0.259466
Cl1   Cl    Cl    0.246644 0.286160 0.717608 -0.622686
O12   O     O_3   0.044995 0.147545 0.826669 -0.610470
C30   C     C_3   0.978117 0.178173 0.946061 0.118647
H26   H     H_    0.019238 0.124555 0.022908 0.151452
H27   H     H_    0.878162 0.149809 0.945233 0.185460
C31   C     C_3   0.987663 0.313594 0.986137 -0.419534
H28   H     H_    0.087589 0.338589 0.994811 0.236634
H29   H     H_    0.948434 0.371747 0.911875 0.216327
C32   C     C_3   0.914990 0.339707 0.115186 -0.921680
H30   H     H_    0.813334 0.319958 0.105786 0.287203
H31   H     H_    0.926643 0.436879 0.143726 0.291809
H32   H     H_    0.950178 0.283169 0.192686 0.264585
Cl2   Cl    Cl    0.783693 0.086269 0.724897 -0.647335
Cl3   Cl    Cl    0.881763 0.696339 0.347614 -0.690499
O13   O     O_3   0.338602 0.902996 0.369495 -0.671359
C33   C     C_3   0.346310 0.848492 0.245075 0.144842
H33   H     H_    0.296808 0.759429 0.252907 0.142596
H34   H     H_    0.444007 0.828526 0.206396 0.145692
C34   C     C_3   0.276695 0.927510 0.153307 -0.351623
H35   H     H_    0.196556 0.877042 0.113174 0.201450
H36   H     H_    0.234118 0.005418 0.207297 0.257683
C35   C     C_3   0.364309 0.972854 0.043464 -0.967566
H37   H     H_    0.438542 0.033291 0.081376 0.312439
H38   H     H_    0.309100 0.023587 0.974880 0.270863
H39   H     H_    0.410854 0.894769 0.992607 0.230212
O14   O     O_3   0.518195 0.925079 0.627643 -0.627914
C36   C     C_3   0.416193 0.913841 0.722273 0.071670
H40   H     H_    0.433294 0.988740 0.792654 0.192551
H41   H     H_    0.424805 0.830288 0.777499 0.147907
C37   C     C_3   0.278319 0.931340 0.679814 -0.404223
H42   H     H_    0.223171 0.972528 0.763680 0.244119
H43   H     H_    0.271897 0.995681 0.600052 0.262233
C38   C     C_3   0.207548 0.815366 0.640662 -0.807305
H44   H     H_    0.185567 0.757662 0.725040 0.222562
H45   H     H_    0.259513 0.761997 0.564176 0.256474
H46   H     H_    0.116456 0.840424 0.601675 0.281527
O15   O     O_3   0.564401 0.096651 0.287390 -0.653611
C39   C     C_3   0.681829 0.038618 0.270861 0.050975
H47   H     H_    0.715752 0.048199 0.167691 0.172565
H48   H     H_    0.675580 0.939557 0.289768 0.147598
C40   C     C_3   0.777138 0.099995 0.357684 -0.357144
H49   H     H_    0.783113 0.198555 0.337448 0.230111
H50   H     H_    0.744387 0.088483 0.460399 0.266085
C41   C     C_3   0.906844 0.044558 0.338178 -0.882350
H51   H     H_    0.902344 0.946772 0.360321 0.323603
H52   H     H_    0.970824 0.089906 0.406260 0.265999
H53   H     H_    0.944633 0.056107 0.236738 0.238287

loop_
_geom_bond_atom_site_label_1
_geom_bond_atom_site_label_2
_geom_bond_distance
_ccdc_geom_bond_type
C29   H24   1.104000 S    
C9    C14   1.406614 A    
C28   H22   1.097157 S    
C15   C17   1.476755 S    
Zn1   N1    2.071831 S    
C22   H7    1.105940 S    
O14   C36   1.427880 S    
C26   H16   1.110855 S    
N2    O11   1.361246 S    
C33   H33   1.109904 S    
C25   H14   1.108414 S    
Zn1   O7    1.972366 S    
C17   C18   1.339766 D    
C16   O14   1.378533 S    
O4    C2    1.323269 A    
C15   O13   1.379040 S    
C8    C9    1.409635 A    
O3    Zn1   2.011974 S    
C18   H3    1.066588 S    
O7    C4    1.307901 A    
C32   H31   1.110426 S    
C29   H25   1.108300 S    
O15   C39   1.414728 S    
C36   C37   1.571146 S    
C38   H46   1.110993 S    
C27   H20   1.099534 S    
C7    C8    1.376294 A    
Zn2   N2    2.071417 S    
O5    C3    1.305478 A    
C40   H49   1.110642 S    
C7    Cl2   1.759894 S    
C8    H2    1.078969 S    
C25   H15   1.108006 S    
C5    C6    1.414551 A    
C24   H13   1.115340 S    
C36   H41   1.100598 S    
C39   H47   1.111115 S    
C3    C16   1.449316 S    
C23   H11   1.101529 S    
C41   H53   1.109217 S    
C29   H23   1.104165 S    
C28   C29   1.525576 S    
O11   C27   1.425639 S    
C9    C10   1.410589 A    
C22   H8    1.106867 S    
C30   C31   1.541964 S    
C20   O10   1.391486 S    
C12   C13   1.363809 A    
C23   H10   1.108449 S    
C39   H48   1.113410 S    
C33   H34   1.118690 S    
C19   C20   1.539061 S    
C5    Cl1   1.751323 S    
O13   C33   1.401182 S    
C21   C22   1.522870 S    
C30   H27   1.106615 S    
C35   H37   1.107634 S    
C32   H30   1.111107 S    
C13   C14   1.386913 A    
N1    O9    1.344938 S    
C27   H19   1.101719 S    
O1    C1    1.313010 A    
C20   N2    1.300595 D    
C19   H4    1.081686 S    
C1    C18   1.427433 S    
C31   H28   1.104146 S    
O9    C21   1.399215 S    
C35   H38   1.108557 S    
C37   H42   1.110869 S    
C34   C35   1.517889 S    
Zn2   O8    2.011976 S    
C24   C25   1.528803 S    
C36   H40   1.104909 S    
C6    C7    1.394734 A    
C4    C14   1.420071 S    
C38   H45   1.102471 S    
C31   H29   1.110868 S    
C40   C41   1.521814 S    
O3    C2    1.300061 A    
O10   C24   1.417128 S    
C37   H43   1.102720 S    
C34   H36   1.102128 S    
C6    O12   1.389294 S    
C26   H17   1.110887 S    
C39   C40   1.528268 S    
C27   C28   1.529962 S    
C17   O15   1.388935 S    
C23   H9    1.108019 S    
C41   H51   1.106145 S    
C33   C34   1.527021 S    
Zn1   O5    2.039920 S    
H1    C12   1.085765 S    
C5    C10   1.444217 A    
O1    Zn1   2.022010 S    
O2    Zn2   2.039920 S    
O8    C4    1.303189 A    
C30   H26   1.110281 S    
O6    C3    1.320945 A    
O4    Zn2   1.972365 S    
C25   C26   1.521437 S    
C19   N1    1.298669 D    
O2    C1    1.307595 A    
O12   C30   1.424799 S    
C35   H39   1.106783 S    
C21   H6    1.096799 S    
C32   H32   1.107551 S    
C21   H5    1.108051 S    
C2    C11   1.432377 S    
C22   C23   1.526554 S    
C38   H44   1.101822 S    
C31   C32   1.526545 S    
C40   H50   1.105937 S    
C11   C12   1.398213 A    
C28   H21   1.109384 S    
C37   C38   1.530953 S    
C34   H35   1.105537 S    
Zn2   O6    2.022010 S    
C24   H12   1.106214 S    
C26   H18   1.109360 S    
C15   C16   1.335149 D    
C13   Cl3   1.760133 S    
C10   C11   1.442021 A    
C41   H52   1.109034 S    
