data_mof_unit_66724.cif
_audit_creation_date              2013-03-05T15:39:25-0500
_audit_creation_method            fapswitch 2.2
_symmetry_space_group_name_H-M    P1
_symmetry_Int_Tables_number       1
_space_group_crystal_system       triclinic
_cell_length_a                    20.426868
_cell_length_b                    22.765482
_cell_length_c                    8.541896
_cell_angle_alpha                 90.849141
_cell_angle_beta                  105.022576
_cell_angle_gamma                 89.074411
_cell_volume                      3835.72801046

loop_
_atom_site_label
_atom_site_type_symbol
_atom_site_description
_atom_site_fract_x
_atom_site_fract_y
_atom_site_fract_z
_atom_type_partial_charge
P1    P     P_3+3 0.859590 0.433890 0.993820 0.549388
P2    P     P_3+3 0.859590 0.566110 0.493820 0.591728
P3    P     P_3+3 0.359590 0.933890 0.993820 0.552913
P4    P     P_3+3 0.359590 0.066110 0.493820 0.585399
O1    O     O_2   0.866180 0.413660 0.823810 -0.347148
O2    O     O_2   0.866180 0.586340 0.323810 -0.313993
O3    O     O_2   0.366180 0.913660 0.823810 -0.353498
O4    O     O_2   0.366180 0.086340 0.323810 -0.313084
O5    O     O_3   0.922050 0.469730 0.097400 -0.421997
O6    O     O_3   0.922050 0.530270 0.597400 -0.372101
O7    O     O_3   0.422050 0.969730 0.097400 -0.419564
O8    O     O_3   0.422050 0.030270 0.597400 -0.366686
O9    O     O_3   0.976760 0.360270 0.628090 -0.338095
O10   O     O_3   0.976760 0.639730 0.128090 -0.392385
O11   O     O_3   0.476760 0.860270 0.628090 -0.335176
O12   O     O_3   0.476760 0.139730 0.128090 -0.393130
O13   O     O_2   0.920434 0.257298 0.630698 -0.496291
O14   O     O_2   0.877715 0.709834 0.152674 -0.401944
O15   O     O_2   0.421339 0.756804 0.629733 -0.518398
O16   O     O_2   0.378154 0.210491 0.151591 -0.386189
O17   O     O_3   0.775905 0.464632 0.908876 -0.603607
O18   O     O_3   0.778766 0.533304 0.429692 -0.606142
O19   O     O_3   0.273838 0.961113 0.937395 -0.607519
O20   O     O_3   0.278736 0.031629 0.438006 -0.619732
O21   O     O_3   0.031817 0.253674 0.542750 -0.535803
O22   O     O_3   0.987400 0.763670 0.134809 -0.517268
O23   O     O_3   0.533025 0.751716 0.544273 -0.541124
O24   O     O_3   0.487412 0.262935 0.126442 -0.525708
C1    C     C_3   0.028869 0.147799 0.501806 1.047723
C2    C     C_3   0.067421 0.830759 0.068943 0.892758
C3    C     C_3   0.522466 0.646762 0.472212 2.842030
C4    C     C_3   0.563445 0.332094 0.055190 0.903293
H1    H     H_    0.083272 0.142574 0.567925 -0.165754
H2    H     H_    0.103249 0.812177 0.178865 0.014570
H3    H     H_    0.576338 0.633750 0.527216 -2.135519
H4    H     H_    0.607556 0.307718 0.132727 -0.020960
P5    P     P_3+3 0.140130 0.433190 0.695710 0.517120
P6    P     P_3+3 0.140130 0.566810 0.195710 0.541473
P7    P     P_3+3 0.640130 0.933190 0.695710 0.517946
P8    P     P_3+3 0.640130 0.066810 0.195710 0.540512
P9    P     P_3+3 0.088456 0.309140 0.114644 0.414243
P10   P     P_3+3 0.084914 0.693567 0.620091 0.455696
P11   P     P_3+3 0.589758 0.809812 0.114124 0.423303
P12   P     P_3+3 0.583777 0.194469 0.621757 0.456805
O25   O     O_2   0.133470 0.412980 0.865660 -0.354970
O26   O     O_2   0.133470 0.587020 0.365660 -0.332048
O27   O     O_2   0.633470 0.912980 0.865660 -0.352351
O28   O     O_2   0.633470 0.087020 0.365660 -0.336301
O29   O     O_3   0.022720 0.360150 0.061220 -0.395416
O30   O     O_3   0.022720 0.639850 0.561220 -0.401256
O31   O     O_3   0.522720 0.860150 0.061220 -0.397533
O32   O     O_3   0.522720 0.139850 0.561220 -0.403815
O33   O     O_2   0.123451 0.306683 0.975110 -0.435034
O34   O     O_2   0.134271 0.684101 0.511891 -0.371795
O35   O     O_2   0.625030 0.808513 0.975065 -0.426262
O36   O     O_2   0.633346 0.186481 0.513292 -0.375756
O37   O     O_3   0.206756 0.481767 0.768911 -0.579889
O38   O     O_3   0.208228 0.517194 0.262197 -0.558169
O39   O     O_3   0.706472 0.982036 0.769302 -0.580589
O40   O     O_3   0.707960 0.016974 0.261741 -0.558465
O41   O     O_3   0.049836 0.240858 0.102949 -0.604316
O42   O     O_3   0.046739 0.761453 0.554156 -0.523982
O43   O     O_3   0.553221 0.740539 0.101024 -0.600000
O44   O     O_3   0.544286 0.262278 0.560177 -0.525792
C5    C     C_3   0.001292 0.235163 0.954390 0.576751
C6    C     C_3   0.978183 0.758980 0.555455 0.565926
C7    C     C_3   0.504887 0.734402 0.952338 0.570844
C8    C     C_3   0.474919 0.257371 0.551681 0.553400
H5    H     H_    0.026499 0.218433 0.862025 0.155042
H6    H     H_    0.951368 0.723038 0.476099 0.145814
H7    H     H_    0.530848 0.721692 0.857527 0.160275
H8    H     H_    0.450446 0.224229 0.459084 0.155729
C9    C     C_3   0.947587 0.192619 0.973171 -1.144991
C10   C     C_3   0.941435 0.815739 0.492504 -1.100232
C11   C     C_3   0.455585 0.686960 0.966737 -1.138896
C12   C     C_3   0.438123 0.315704 0.505907 -1.131154
C13   C     C_3   0.231164 0.496756 0.130088 0.167522
C14   C     C_3   0.216130 0.518711 0.647495 0.089247
C15   C     C_3   0.731650 0.997112 0.130084 0.182732
C16   C     C_3   0.716051 0.018856 0.647838 0.089889
H9    H     H_    0.199898 0.459403 0.078457 0.131035
H10   H     H_    0.197059 0.562953 0.670958 0.081639
H11   H     H_    0.701449 0.959130 0.078216 0.128162
H12   H     H_    0.696654 0.063062 0.670488 0.081412
C17   C     C_3   0.306167 0.475577 0.182041 0.873039
C18   C     C_3   0.292010 0.519722 0.653528 0.950488
C19   C     C_3   0.807006 0.977262 0.183911 0.863003
C20   C     C_3   0.792053 0.020144 0.654845 0.945768
H13   H     H_    0.329010 0.491762 0.087042 0.042682
H14   H     H_    0.300059 0.478668 0.587962 -0.002751
H15   H     H_    0.829877 0.992867 0.088380 0.039133
H16   H     H_    0.800531 0.979032 0.590154 -0.005305
Ba1   Ba    Ba6+2 0.999900 0.456810 0.844860 1.577225
Ba2   Ba    Ba6+2 0.999900 0.543190 0.344860 1.616383
Ba3   Ba    Ba6+2 0.499900 0.956810 0.844860 1.580348
Ba4   Ba    Ba6+2 0.499900 0.043190 0.344860 1.617202
C21   C     C_3   0.755651 0.523797 0.930641 1.586373
C22   C     C_3   0.769084 0.471890 0.423166 1.601839
C23   C     C_3   0.258014 0.021734 0.926143 1.613872
C24   C     C_3   0.269416 0.969830 0.424653 1.634710
C25   C     C_3   0.687295 0.521813 0.978191 -1.016760
C26   C     C_3   0.703841 0.465808 0.484698 -1.123992
C27   C     C_3   0.188278 0.030714 0.965369 -1.076004
C28   C     C_3   0.204257 0.959906 0.487426 -1.161646
O45   O     O_3   0.077880 0.530130 0.092320 -0.392774
O46   O     O_3   0.077880 0.469870 0.592320 -0.384319
O47   O     O_3   0.577880 0.030130 0.092320 -0.391675
O48   O     O_3   0.577880 0.969870 0.592320 -0.383818
P13   P     P_3+3 0.933040 0.705199 0.058016 0.427137
P14   P     P_3+3 0.955845 0.292757 0.524802 0.417474
P15   P     P_3+3 0.432514 0.204600 0.054507 0.429634
P16   P     P_3+3 0.457577 0.792159 0.525457 0.395683
C29   C     C_3   0.022602 0.208505 0.425104 0.183921
C30   C     C_3   0.010709 0.785986 0.006880 0.127224
C31   C     C_3   0.524910 0.710242 0.416478 0.151507
C32   C     C_3   0.507365 0.286776 0.995455 0.166363
C33   C     C_R   0.119366 0.644567 0.932551 -0.499139
C34   C     C_R   0.123259 0.358842 0.426126 -0.427698
C35   C     C_R   0.618973 0.144446 0.932452 -0.497348
C36   C     C_R   0.625248 0.859483 0.425210 -0.434837
C37   C     C_R   0.132317 0.689973 0.838052 0.181403
C38   C     C_R   0.143896 0.319938 0.321294 0.269310
C39   C     C_R   0.630488 0.191079 0.840079 0.199538
C40   C     C_R   0.645842 0.820305 0.320797 0.269850
C41   C     C_R   0.182456 0.731007 0.905705 -0.264238
C42   C     C_R   0.203013 0.286384 0.376613 -0.412287
C43   C     C_R   0.678204 0.233746 0.911210 -0.315532
C44   C     C_R   0.704495 0.785868 0.377573 -0.420130
C45   C     C_R   0.230628 0.723368 0.058813 -0.047097
C46   C     C_R   0.241575 0.286608 0.541032 -0.015044
C47   C     C_R   0.727958 0.224869 0.061159 -0.054132
C48   C     C_R   0.743160 0.787014 0.542546 -0.019401
C49   C     C_R   0.220501 0.670343 0.144370 0.440328
C50   C     C_R   0.222294 0.331976 0.643444 0.419598
C51   C     C_R   0.719529 0.170848 0.144497 0.446145
C52   C     C_R   0.723813 0.832669 0.643893 0.432589
C53   C     C_R   0.160782 0.634586 0.087752 0.167753
C54   C     C_R   0.162843 0.367594 0.583709 0.161498
C55   C     C_R   0.660320 0.134624 0.087751 0.166106
C56   C     C_R   0.664128 0.868015 0.583572 0.159773
C57   C     C_R   0.835342 0.265069 0.276193 -0.413175
C58   C     C_R   0.848788 0.747433 0.755935 -0.369319
C59   C     C_R   0.337713 0.763972 0.275657 -0.429429
C60   C     C_R   0.345585 0.245847 0.755374 -0.374582
C61   C     C_R   0.894778 0.299444 0.322479 0.195082
C62   C     C_R   0.891966 0.702197 0.833291 0.178991
C63   C     C_R   0.396531 0.799100 0.323433 0.216608
C64   C     C_R   0.389850 0.201229 0.831072 0.175076
C65   C     C_R   0.854104 0.359712 0.086655 0.208170
C66   C     C_R   0.854923 0.640531 0.592347 0.215446
C67   C     C_R   0.356073 0.859539 0.088231 0.211880
C68   C     C_R   0.354070 0.140536 0.589078 0.199480
C69   C     C_R   0.801917 0.317738 0.022746 0.439940
C70   C     C_R   0.804119 0.683443 0.523510 0.437295
C71   C     C_R   0.304342 0.817126 0.023549 0.454932
C72   C     C_R   0.304819 0.184317 0.515358 0.447374
C73   C     C_R   0.788242 0.269753 0.120558 -0.036638
C74   C     C_R   0.800078 0.739651 0.604679 -0.046149
C75   C     C_R   0.290792 0.768580 0.119826 -0.027430
C76   C     C_R   0.298374 0.239034 0.601434 -0.030336
C77   C     C_R   0.902189 0.347077 0.229781 -0.416714
C78   C     C_R   0.898960 0.651508 0.744709 -0.560167
C79   C     C_R   0.403676 0.847275 0.232125 -0.414406
C80   C     C_R   0.397347 0.151098 0.742032 -0.547557
H17   H     H_    0.943645 0.376904 0.275982 0.180603
H18   H     H_    0.935935 0.618420 0.800274 0.172019
H19   H     H_    0.444610 0.877514 0.279384 0.180105
H20   H     H_    0.434876 0.118357 0.797070 0.170386
H21   H     H_    0.065204 0.211956 0.369034 0.070412
H22   H     H_    0.032247 0.749632 0.946756 0.042540
H23   H     H_    0.570419 0.713322 0.370966 0.127226
H24   H     H_    0.528330 0.251609 0.930527 0.014680
O49   O     O_3   0.341265 0.500024 0.333149 -0.614867
C81   C     C_3   0.411395 0.487556 0.364278 -0.228287
H25   H     H_    0.423094 0.441577 0.403721 0.162361
H26   H     H_    0.438351 0.516426 0.464378 0.162280
H27   H     H_    0.431373 0.495740 0.257835 0.144950
O50   O     O_3   0.332706 0.519570 0.815781 -0.661888
C82   C     C_3   0.390969 0.483809 0.829199 -0.302160
H28   H     H_    0.417592 0.493850 0.734727 0.132973
H29   H     H_    0.377066 0.436638 0.821982 0.187231
H30   H     H_    0.426799 0.491946 0.949103 0.173356
O51   O     O_3   0.840679 0.003360 0.333882 -0.611178
C83   C     C_3   0.911401 0.995214 0.363835 -0.235377
H31   H     H_    0.926030 0.948630 0.390184 0.143587
H32   H     H_    0.935937 0.021069 0.473031 0.210102
H33   H     H_    0.930844 0.011019 0.262088 0.158055
O52   O     O_3   0.832551 0.020347 0.817295 -0.668581
C84   C     C_3   0.891679 0.985592 0.831278 -0.281415
H34   H     H_    0.918167 0.996228 0.737036 0.137956
H35   H     H_    0.878964 0.938149 0.824215 0.186288
H36   H     H_    0.927229 0.994265 0.951344 0.176940
O53   O     O_3   0.312772 0.413631 0.179220 -0.661048
C85   C     C_3   0.292237 0.388070 0.307468 -0.286881
H37   H     H_    0.238256 0.397918 0.299798 0.128081
H38   H     H_    0.323914 0.401577 0.428046 0.181053
H39   H     H_    0.299296 0.340129 0.297354 0.185728
O54   O     O_3   0.308602 0.567447 0.566505 -0.584350
C86   C     C_3   0.303500 0.622511 0.641676 -0.148479
H40   H     H_    0.317333 0.621559 0.776299 0.119221
H41   H     H_    0.251677 0.640814 0.596801 0.176108
H42   H     H_    0.338155 0.653326 0.605085 0.198098
O55   O     O_3   0.814854 0.915353 0.185366 -0.671166
C87   C     C_3   0.795632 0.890571 0.316434 -0.285115
H43   H     H_    0.742330 0.901536 0.313976 0.131768
H44   H     H_    0.829601 0.903783 0.434647 0.182350
H45   H     H_    0.800879 0.842442 0.305657 0.183978
O56   O     O_3   0.808543 0.067823 0.567501 -0.579613
C88   C     C_3   0.802095 0.123013 0.640572 -0.134470
H46   H     H_    0.813749 0.122313 0.775061 0.110696
H47   H     H_    0.750428 0.141091 0.590992 0.174735
H48   H     H_    0.837574 0.153768 0.606939 0.204352
O57   O     O_3   0.743642 0.554591 0.780324 -0.689728
C89   C     C_3   0.720527 0.613497 0.791139 -0.523399
H49   H     H_    0.751132 0.643189 0.740361 0.170985
H50   H     H_    0.723834 0.629909 0.916446 0.185444
H51   H     H_    0.667450 0.617435 0.719658 0.450413
O58   O     O_3   0.762441 0.452689 0.259109 -0.669800
C90   C     C_3   0.707317 0.414528 0.192702 -0.408023
H52   H     H_    0.657946 0.437634 0.178314 0.214155
H53   H     H_    0.707550 0.373994 0.262286 0.132928
H54   H     H_    0.710428 0.399603 0.071135 0.248353
O59   O     O_3   0.255668 0.039964 0.765156 -0.684617
C91   C     C_3   0.217769 0.091838 0.717389 -0.481503
H55   H     H_    0.229435 0.107189 0.607870 0.204059
H56   H     H_    0.230116 0.127650 0.809700 0.167312
H57   H     H_    0.163182 0.081613 0.683746 0.196675
O60   O     O_3   0.262654 0.953092 0.258678 -0.675183
C92   C     C_3   0.206867 0.916155 0.187364 -0.374585
H58   H     H_    0.157813 0.939500 0.175974 0.210982
H59   H     H_    0.207183 0.874200 0.251107 0.138948
H60   H     H_    0.208818 0.903234 0.063914 0.261379
O61   O     O_3   0.804264 0.550802 0.054485 -0.661236
C93   C     C_3   0.855539 0.573790 0.992945 0.045672
H61   H     H_    0.863599 0.551261 0.882502 0.075690
H62   H     H_    0.902711 0.568704 0.084652 0.229155
H63   H     H_    0.843545 0.620197 0.971090 0.132386
O62   O     O_3   0.824676 0.442652 0.526663 -0.616390
C94   C     C_3   0.813655 0.381526 0.517366 -0.160662
H64   H     H_    0.808971 0.364447 0.395578 0.109909
H65   H     H_    0.770006 0.369317 0.563089 0.144908
H66   H     H_    0.857238 0.358779 0.593642 0.225914
O63   O     O_3   0.304711 0.051878 0.046816 -0.664975
C95   C     C_3   0.355869 0.075228 0.988275 0.015570
H67   H     H_    0.368354 0.051011 0.885362 0.093461
H68   H     H_    0.401501 0.071349 0.084975 0.237904
H69   H     H_    0.340665 0.120703 0.959225 0.128107
O64   O     O_3   0.325846 0.940233 0.523543 -0.611241
C96   C     C_3   0.314078 0.879234 0.515182 -0.180617
H70   H     H_    0.307551 0.862131 0.392573 0.110773
H71   H     H_    0.270844 0.867250 0.562879 0.148079
H72   H     H_    0.357650 0.856589 0.591566 0.232734
H73   H     H_    0.661152 0.480415 0.933574 0.225815
H74   H     H_    0.664648 0.498266 0.424697 0.239665
H75   H     H_    0.149272 0.002962 0.885049 0.211757
H76   H     H_    0.166805 0.995622 0.447487 0.242621
H77   H     H_    0.649734 0.555842 0.922163 0.197367
H78   H     H_    0.680855 0.422213 0.466927 0.204114
H79   H     H_    0.170542 0.077076 0.954825 0.206628
H80   H     H_    0.177307 0.918205 0.450211 0.210415
H81   H     H_    0.694229 0.528969 0.109770 0.265668
H82   H     H_    0.715786 0.472752 0.615949 0.309519
H83   H     H_    0.191433 0.022732 0.093348 0.270560
H84   H     H_    0.217607 0.957026 0.620357 0.306472
H85   H     H_    0.975057 0.211348 0.326903 0.075666
H86   H     H_    0.968439 0.808053 0.918531 0.047833
H87   H     H_    0.481345 0.719056 0.311605 -0.095242
H88   H     H_    0.463493 0.308610 0.911985 0.049613
O65   O     O_3   0.006352 0.104550 0.379068 -0.663417
C97   C     C_3   0.058013 0.088163 0.304638 -0.525609
H89   H     H_    0.041020 0.049618 0.224162 0.216960
H90   H     H_    0.105119 0.075323 0.395215 0.167312
H91   H     H_    0.068219 0.124018 0.228190 0.186677
O66   O     O_3   0.105963 0.835799 0.953503 -0.687235
C98   C     C_3   0.076064 0.875096 0.827754 -0.184642
H92   H     H_    0.087499 0.920953 0.869220 0.162246
H93   H     H_    0.020350 0.870409 0.785276 0.126075
H94   H     H_    0.098153 0.866534 0.723757 0.184278
O67   O     O_3   0.490530 0.611879 0.335379 -0.851752
C99   C     C_3   0.536957 0.572828 0.290699 -0.231123
H95   H     H_    0.510649 0.548682 0.179157 0.116980
H96   H     H_    0.556894 0.540333 0.387682 0.214479
H97   H     H_    0.578350 0.596716 0.259719 0.175880
O68   O     O_3   0.586375 0.352657 0.922359 -0.663316
C100  C     C_3   0.547443 0.400827 0.843880 -0.213004
H98   H     H_    0.557024 0.441045 0.921012 0.163206
H99   H     H_    0.492384 0.391765 0.810129 0.121066
H100  H     H_    0.562833 0.410047 0.731398 0.159797
H101  H     H_    0.913463 0.182390 0.853207 0.274190
H102  H     H_    0.899159 0.823476 0.549780 0.231177
H103  H     H_    0.423889 0.702766 0.046253 0.257213
H104  H     H_    0.393809 0.319368 0.557538 0.242028
H105  H     H_    0.826929 0.235391 0.365333 0.237197
H106  H     H_    0.856553 0.788982 0.815832 0.208972
H107  H     H_    0.329675 0.733858 0.364124 0.236203
H108  H     H_    0.353062 0.286940 0.817005 0.211209
H109  H     H_    0.181530 0.768344 0.831278 0.254825
H110  H     H_    0.220226 0.263720 0.283868 0.223904
H111  H     H_    0.674987 0.273036 0.842484 0.258734
H112  H     H_    0.720283 0.759869 0.287502 0.229056
O69   O     O_3   0.769472 0.321739 0.860716 -0.614031
C101  C     C_3   0.799002 0.278810 0.778720 -0.272641
H113  H     H_    0.797326 0.233768 0.825769 0.130567
H114  H     H_    0.852217 0.290422 0.790386 0.190027
H115  H     H_    0.770837 0.277046 0.649149 0.169494
O70   O     O_3   0.760989 0.669533 0.375058 -0.619754
C102  C     C_3   0.697087 0.654008 0.394753 -0.132039
H116  H     H_    0.680374 0.681105 0.486847 0.226959
H117  H     H_    0.696244 0.607414 0.427691 0.234212
H118  H     H_    0.659660 0.660830 0.276788 0.153331
O71   O     O_3   0.273406 0.820520 0.860768 -0.620705
C103  C     C_3   0.305344 0.778100 0.782703 -0.293026
H119  H     H_    0.304707 0.733082 0.830902 0.128757
H120  H     H_    0.358326 0.791113 0.797781 0.198041
H121  H     H_    0.278504 0.775287 0.652390 0.173149
O72   O     O_3   0.273686 0.176830 0.351712 -0.579309
C104  C     C_3   0.207029 0.155681 0.325968 -0.248483
H122  H     H_    0.180540 0.172095 0.416852 0.104539
H123  H     H_    0.206401 0.107438 0.318785 0.189811
H124  H     H_    0.176872 0.170617 0.205360 0.180482
O73   O     O_3   0.269458 0.650259 0.276241 -0.622954
C105  C     C_3   0.324585 0.627215 0.222132 -0.057041
H125  H     H_    0.351087 0.660966 0.171575 0.100245
H126  H     H_    0.308799 0.593204 0.127076 0.095018
H127  H     H_    0.362101 0.608355 0.327159 0.229574
O74   O     O_3   0.266490 0.349616 0.787316 -0.661227
C106  C     C_3   0.253605 0.319465 0.919211 -0.031939
H128  H     H_    0.226660 0.277024 0.885828 0.119631
H129  H     H_    0.227183 0.349328 0.985231 0.213704
H130  H     H_    0.302357 0.309234 0.008102 0.166805
O75   O     O_3   0.769379 0.150612 0.274577 -0.624583
C107  C     C_3   0.824631 0.129260 0.218065 -0.048704
H131  H     H_    0.847637 0.163233 0.159715 0.100071
H132  H     H_    0.809632 0.093562 0.127978 0.090339
H133  H     H_    0.864775 0.113376 0.322881 0.241986
O76   O     O_3   0.768156 0.850671 0.787243 -0.663080
C108  C     C_3   0.755979 0.820619 0.920061 -0.041873
H134  H     H_    0.729022 0.778137 0.887595 0.128600
H135  H     H_    0.729770 0.850532 0.986690 0.212995
H136  H     H_    0.805046 0.810542 0.007974 0.163398
H137  H     H_    0.078214 0.614928 0.881518 0.181036
H138  H     H_    0.077621 0.384921 0.381514 0.169816
H139  H     H_    0.578835 0.114011 0.880039 0.180095
H140  H     H_    0.579765 0.885698 0.379949 0.169810
O77   O     O_3   0.987524 0.145372 0.610846 -0.598239
C109  C     C_3   0.011915 0.100996 0.726188 -0.276517
H141  H     H_    0.971629 0.090600 0.786239 0.194876
H142  H     H_    0.056560 0.116889 0.820524 0.133906
H143  H     H_    0.025723 0.059550 0.671029 0.134568
O78   O     O_3   0.041970 0.886833 0.102237 -0.662430
C110  C     C_3   0.024930 0.888481 0.251551 -0.341270
H144  H     H_    0.057422 0.859917 0.346000 0.179813
H145  H     H_    0.970840 0.877120 0.230063 0.219637
H146  H     H_    0.031263 0.934119 0.299596 0.165880
O79   O     O_3   0.483376 0.644263 0.586394 -0.761327
C111  C     C_3   0.509600 0.600549 0.702465 -0.115971
H147  H     H_    0.469453 0.587978 0.760651 0.124541
H148  H     H_    0.552759 0.618331 0.797559 0.182580
H149  H     H_    0.526273 0.559890 0.649171 0.150472
O80   O     O_3   0.541152 0.379535 0.140057 -0.663215
C112  C     C_3   0.557452 0.369576 0.308135 -0.247162
H150  H     H_    0.610081 0.353329 0.357892 0.134474
H151  H     H_    0.522903 0.337284 0.334716 0.246971
H152  H     H_    0.550760 0.411286 0.371333 0.149354
H153  H     H_    0.974375 0.276980 0.912682 0.151186
H154  H     H_    0.974638 0.752576 0.680560 -0.002023
H155  H     H_    0.474465 0.775047 0.916760 0.142753
H156  H     H_    0.468848 0.244877 0.670856 0.019602
H157  H     H_    0.970765 0.151158 0.029315 0.285448
H158  H     H_    0.920198 0.812203 0.359472 0.297380
H159  H     H_    0.421691 0.677171 0.846138 0.275586
H160  H     H_    0.419798 0.318860 0.372102 0.295700
H161  H     H_    0.917261 0.213598 0.049214 0.245986
H162  H     H_    0.975745 0.853752 0.520095 0.247985
H163  H     H_    0.483283 0.646305 0.016614 0.279851
H164  H     H_    0.471981 0.352916 0.552473 0.259331
H165  H     H_    0.225569 0.530539 0.034827 0.012768
H166  H     H_    0.188280 0.503894 0.524740 0.107085
H167  H     H_    0.725737 0.030978 0.034933 0.011269
H168  H     H_    0.688543 0.003834 0.525000 0.106891

loop_
_geom_bond_atom_site_label_1
_geom_bond_atom_site_label_2
_geom_bond_distance
_ccdc_geom_bond_type
O10   P13   1.756007 S    
C85   H38   1.107081 S    
O40   C15   1.401193 S    
C49   C53   1.448863 A    
C19   H15   1.105407 S    
C58   C62   1.401336 A    
C23   C27   1.555388 S    
O59   C91   1.407619 S    
P9    O41   1.744386 S    
C52   C56   1.433277 A    
C15   C19   1.549789 S    
C108  H134  1.116014 S    
P11   O43   1.745300 S    
O69   C101  1.410399 S    
P12   O44   1.753358 S    
C51   C55   1.447153 A    
C7    H155  1.107499 S    
O68   C100  1.414772 S    
C70   C74   1.457681 A    
C2    C30   1.538108 S    
C85   H39   1.103617 S    
C1    H1    1.113744 S    
C18   O50   1.419405 S    
C95   H67   1.113124 S    
O66   C98   1.413455 S    
C52   O76   1.381993 S    
C65   C69   1.436418 A    
O24   C32   1.405036 S    
P4    Ba4   3.453731 S    
C68   C72   1.435234 A    
O2    Ba2   2.849953 S    
C25   H77   1.104217 S    
P2    O18   1.772699 S    
C26   H82   1.093449 S    
O74   C106  1.411449 S    
C67   C71   1.438294 A    
C60   C76   1.422864 A    
P14   C61   1.857438 S    
C57   C61   1.419653 A    
Ba4   O48   2.839838 S    
C86   H40   1.111196 S    
C16   C20   1.538787 S    
C46   C50   1.458001 A    
C93   H62   1.078570 S    
C58   C74   1.422387 A    
P4    C68   1.883111 S    
P9    O29   1.734235 S    
O60   C92   1.425714 S    
C44   H112  1.074818 S    
C101  H114  1.101698 S    
C70   O70   1.379269 S    
O24   P15   1.750871 S    
C112  H152  1.109343 S    
C80   H20   1.081366 S    
C13   H165  1.110943 S    
C18   H14   1.114216 S    
C2    H2    1.114320 S    
C22   C26   1.562949 S    
C111  H149  1.112524 S    
O72   C104  1.413126 S    
C93   H63   1.088479 S    
C104  H124  1.109541 S    
C25   H73   1.103984 S    
O51   C83   1.409946 S    
O22   C30   1.404591 S    
C92   H58   1.108935 S    
C36   H140  1.082392 S    
O16   P15   1.551747 D    
C62   C78   1.396214 A    
C14   H10   1.108227 S    
O79   C111  1.413160 S    
C72   C76   1.458524 A    
C8    H8    1.110977 S    
C110  H145  1.106388 S    
O70   C102  1.409824 S    
C4    C32   1.535093 S    
C81   H27   1.108037 S    
C18   O54   1.419252 S    
P8    O47   1.588844 S    
C45   C49   1.465147 A    
C57   C73   1.429051 A    
C35   C39   1.390700 A    
C22   O58   1.434726 S    
C97   H90   1.105266 S    
P5    O25   1.569015 D    
C108  H136  1.108436 S    
C9    H157  1.107384 S    
P7    O27   1.569015 D    
P8    O28   1.555047 D    
C1    C29   1.527498 S    
P7    C56   1.880710 S    
O28   Ba4   2.881467 S    
O20   C24   1.421687 S    
O37   C14   1.397736 S    
O76   C108  1.411340 S    
O39   C16   1.397745 S    
C3    O79   1.413823 S    
C58   H106  1.063039 S    
P12   C39   1.863760 S    
C95   H69   1.089535 S    
C1    O65   1.419219 S    
C100  H99   1.108264 S    
P15   C64   1.882436 S    
C59   H107  1.072981 S    
C6    H6    1.111125 S    
C61   C77   1.385165 A    
C60   H108  1.060181 S    
O78   C110  1.406257 S    
C43   C47   1.428471 A    
P3    O7    1.582213 S    
Ba3   O48   3.015737 S    
C105  H127  1.104915 S    
C41   C45   1.429340 A    
C11   H163  1.108161 S    
P1    Ba1   3.473366 S    
O73   C105  1.414362 S    
P3    Ba3   3.473366 S    
C28   H84   1.099589 S    
O29   Ba1   2.848843 S    
C34   C54   1.392262 A    
C77   H17   1.082280 S    
O12   P15   1.755775 S    
O31   Ba3   2.848843 S    
O23   C31   1.411115 S    
P2    C66   1.892587 S    
C33   H137  1.082377 S    
O18   C22   1.413467 S    
C110  H144  1.112770 S    
O14   P13   1.552210 D    
C24   C28   1.579037 S    
O25   Ba1   2.852622 S    
O50   C82   1.411764 S    
C110  H146  1.108511 S    
C5    H153  1.107734 S    
C96   H70   1.087862 S    
O44   C8    1.406093 S    
C92   H60   1.101042 S    
C30   H86   1.107635 S    
C19   O51   1.414585 S    
C89   H50   1.114140 S    
C6    C10   1.517321 S    
O27   Ba3   2.852622 S    
C83   H31   1.107517 S    
C104  H123  1.099180 S    
C16   H168  1.106148 S    
C84   H35   1.112038 S    
C81   H25   1.107656 S    
O38   C13   1.400321 S    
C39   C43   1.403140 A    
C103  H120  1.101164 S    
C86   H42   1.108219 S    
O8    Ba3   2.840769 S    
C36   C56   1.392331 A    
O61   C93   1.399468 S    
P10   O42   1.752964 S    
P12   O32   1.750936 S    
C13   C17   1.551348 S    
C78   H18   1.081427 S    
C23   O63   1.390596 S    
C3    C31   1.533822 S    
O80   C112  1.408163 S    
C12   H160  1.109675 S    
P7    O48   1.580991 S    
C14   H166  1.106064 S    
C23   O59   1.430955 S    
O12   Ba4   2.848773 S    
O42   C6    1.405348 S    
C71   C75   1.459163 A    
C64   C80   1.390453 A    
P2    Ba2   3.453731 S    
C98   H94   1.109288 S    
C99   H95   1.107841 S    
C106  H129  1.098215 S    
O30   Ba2   2.817997 S    
C26   H78   1.096416 S    
P9    C38   1.848947 S    
O43   C7    1.398750 S    
C37   C41   1.401299 A    
O41   C5    1.399054 S    
Ba1   O46   3.015737 S    
C109  H142  1.110393 S    
O26   Ba2   2.881467 S    
C48   C52   1.457165 A    
P9    O33   1.540483 D    
C111  H148  1.109714 S    
C88   H46   1.111439 S    
P5    Ba1   3.455311 S    
C94   H65   1.102972 S    
O22   P13   1.754841 S    
P7    Ba3   3.455311 S    
P10   O30   1.750177 S    
P11   O35   1.540397 D    
O53   C85   1.406991 S    
P5    C54   1.877740 S    
C7    C11   1.516291 S    
C109  H143  1.113078 S    
C50   O74   1.381488 S    
C96   H72   1.085244 S    
O11   P16   1.768525 S    
C32   H88   1.106081 S    
C8    C12   1.520582 S    
C103  H121  1.107417 S    
C102  H118  1.106982 S    
P6    O45   1.588844 S    
C63   C79   1.386347 A    
C90   H54   1.104923 S    
C95   H68   1.076704 S    
C85   H37   1.106986 S    
P5    O37   1.747329 S    
P6    O26   1.555047 D    
C9    H161  1.106169 S    
C43   H111  1.068953 S    
C69   O69   1.374546 S    
C87   H43   1.108048 S    
C9    H101  1.103647 S    
C15   H167  1.110979 S    
O5    Ba2   2.834125 S    
P10   C37   1.864940 S    
O7    Ba4   2.834125 S    
Ba2   O45   3.004338 S    
C27   H75   1.106676 S    
C94   H64   1.086360 S    
C107  H133  1.106440 S    
C16   H12   1.108307 S    
C91   H55   1.087213 S    
C105  H126  1.102931 S    
O57   C89   1.424180 S    
C112  H151  1.093074 S    
P16   C63   1.855810 S    
P1    O1    1.555200 D    
C20   O56   1.419282 S    
P3    O3    1.555200 D    
O11   Ba3   2.818049 S    
P4    O20   1.787134 S    
C11   H159  1.103923 S    
C42   C46   1.421064 A    
O63   C95   1.386120 S    
C88   H48   1.108265 S    
C32   H24   1.109413 S    
C46   C76   1.565557 S    
C28   H80   1.105722 S    
C24   O60   1.434732 S    
P6    O38   1.758413 S    
Ba3   Ba4   4.728318 S    
O56   C88   1.414064 S    
O67   C99   1.409156 S    
P1    C65   1.893397 S    
P4    O8    1.574461 S    
P4    O4    1.569170 D    
C40   C44   1.401771 A    
C82   H30   1.108668 S    
C105  H125  1.102009 S    
C21   O57   1.434616 S    
O65   C97   1.408917 S    
C97   H91   1.108158 S    
P8    Ba4   3.475531 S    
C19   O55   1.415771 S    
C108  H135  1.099535 S    
C31   H87   1.104969 S    
C66   C78   1.398620 A    
C102  H116  1.110828 S    
P1    O5    1.582213 S    
C31   H23   1.100221 S    
C90   H52   1.108771 S    
C17   H13   1.105757 S    
C29   H21   1.101023 S    
O6    Ba1   2.840769 S    
O49   C81   1.412469 S    
C48   C74   1.566088 S    
O9    Ba1   2.818049 S    
C26   H74   1.108626 S    
O75   C107  1.414519 S    
C100  H98   1.109849 S    
C24   O64   1.408266 S    
O21   C29   1.407200 S    
C41   H109  1.065972 S    
P12   O36   1.546629 D    
C57   H105  1.073608 S    
C87   H45   1.103997 S    
C13   H9    1.089004 S    
P7    O39   1.747717 S    
C1    O77   1.412316 S    
C103  H119  1.111634 S    
C12   H164  1.104785 S    
Ba3   O47   2.833253 S    
C83   H33   1.111478 S    
Ba4   O47   3.004338 S    
C2    O66   1.419168 S    
C3    H3    1.115813 S    
C65   C77   1.385980 A    
C93   H61   1.115161 S    
C10   H158  1.108524 S    
C91   H57   1.104698 S    
C4    H4    1.115288 S    
O64   C96   1.410754 S    
C49   O73   1.376400 S    
C8    H156  1.098958 S    
O62   C94   1.411024 S    
C27   H79   1.107666 S    
C107  H132  1.101697 S    
C4    O80   1.425265 S    
C59   C75   1.428621 A    
C22   O62   1.409509 S    
C35   C55   1.394614 A    
C106  H128  1.115984 S    
C92   H59   1.105520 S    
C34   H138  1.082326 S    
C15   H11   1.090287 S    
P11   O31   1.742561 S    
C5    H5    1.108158 S    
P6    C53   1.916750 S    
C83   H32   1.103894 S    
C7    H7    1.109765 S    
C69   C73   1.458534 A    
C84   H34   1.111422 S    
C81   H26   1.103277 S    
C82   H28   1.111830 S    
C47   C73   1.587225 S    
C86   H41   1.105109 S    
C97   H89   1.109643 S    
C4    O68   1.422773 S    
O10   Ba2   2.848773 S    
O19   C23   1.411290 S    
O71   C103  1.410300 S    
P1    O17   1.808817 S    
Ba1   Ba2   4.728318 S    
C25   H81   1.105716 S    
P3    O19   1.794649 S    
P13   C62   1.885855 S    
O4    Ba4   2.849953 S    
C60   C64   1.397892 A    
O13   P14   1.540385 D    
C109  H141  1.106818 S    
C5    C9    1.515733 S    
O15   P16   1.539940 D    
C6    H154  1.101607 S    
C59   C63   1.420132 A    
C101  H115  1.107661 S    
C98   H93   1.107674 S    
C99   H96   1.110363 S    
C100  H100  1.109382 S    
C47   C51   1.464632 A    
C34   C38   1.387113 A    
P8    C55   1.914107 S    
O17   C21   1.426315 S    
C107  H131  1.100918 S    
C10   H102  1.108018 S    
C33   C37   1.390807 A    
Ba1   O45   2.833253 S    
C20   H16   1.113720 S    
C17   O49   1.414800 S    
O54   C86   1.414644 S    
C3    O67   1.419969 S    
C14   C18   1.537969 S    
C2    O78   1.423101 S    
P2    O2    1.569170 D    
C44   C48   1.425788 A    
C99   H97   1.102653 S    
C71   O71   1.372881 S    
C96   H71   1.103624 S    
C12   H104  1.106451 S    
P10   O34   1.545068 D    
C11   H103  1.105988 S    
C89   H49   1.094899 S    
O52   C84   1.412871 S    
C102  H117  1.102973 S    
C38   C42   1.396464 A    
C84   H36   1.109366 S    
C79   H19   1.082312 S    
O9    P14   1.763181 S    
C90   H53   1.104296 S    
C21   O61   1.392478 S    
P6    Ba2   3.475531 S    
C68   C80   1.394671 A    
O21   P14   1.749151 S    
C98   H92   1.106282 S    
C87   H44   1.107285 S    
O23   P16   1.754681 S    
C67   C79   1.384217 A    
P2    O6    1.574461 S    
C45   C75   1.591949 S    
C30   H22   1.111312 S    
C101  H113  1.111140 S    
Ba2   O46   2.839838 S    
C51   O75   1.377393 S    
C33   C53   1.395049 A    
C89   H51   1.100730 S    
C91   H56   1.111103 S    
C50   C54   1.432443 A    
C106  H130  1.108267 S    
O1    Ba1   2.878392 S    
C35   H139  1.082405 S    
C42   H110  1.069522 S    
O3    Ba3   2.878392 S    
C112  H150  1.108190 S    
P3    C67   1.896030 S    
C28   H76   1.102554 S    
C72   O72   1.386742 S    
P5    O46   1.580991 S    
C17   O53   1.414936 S    
O58   C90   1.424887 S    
C111  H147  1.106589 S    
C88   H47   1.105451 S    
O32   Ba4   2.817997 S    
C94   H66   1.086123 S    
C104  H122  1.112525 S    
C10   H162  1.106130 S    
C29   H85   1.108284 S    
C20   O52   1.419422 S    
C66   C70   1.430057 A    
P8    O40   1.757306 S    
C27   H83   1.096000 S    
O55   C87   1.406999 S    
O77   C109  1.413601 S    
P11   C40   1.853102 S    
C21   C25   1.553453 S    
C36   C40   1.388054 A    
C82   H29   1.111965 S    
