data_mof_unit_64906.cif
_audit_creation_date              2012-10-26T20:52:25-0400
_audit_creation_method            fapswitch 2.2
_symmetry_space_group_name_H-M    P1
_symmetry_Int_Tables_number       1
_space_group_crystal_system       triclinic
_cell_length_a                    15.996825
_cell_length_b                    14.775383
_cell_length_c                    10.949168
_cell_angle_alpha                 89.999056
_cell_angle_beta                  89.99096
_cell_angle_gamma                 90.001158
_cell_volume                      2587.93673298

loop_
_atom_site_label
_atom_site_type_symbol
_atom_type_description
_atom_site_fract_x
_atom_site_fract_y
_atom_site_fract_z
_atom_type_partial_charge
C1    C     C_R   0.340851 0.499977 0.499981 0.552169
C2    C     C_1   0.500145 0.197359 0.499999 0.184604
C3    C     C_R   0.501066 0.500039 0.264738 0.553461
C4    C     C_R   0.498954 0.500037 0.735263 0.553208
C5    C     C_2   0.501948 0.425637 0.933128 -0.154649
C6    C     C_2   0.498288 0.425629 0.066872 -0.155236
C7    C     C_2   0.494653 0.501496 0.866955 -0.114828
C8    C     C_2   0.505402 0.501506 0.133046 -0.115757
C9    C     C_R   0.956379 0.582108 0.500025 -0.104830
C10   C     C_R   0.043624 0.582107 0.500021 -0.104844
C11   C     C_R   0.912784 0.499963 0.500003 0.038149
C12   C     C_R   0.659149 0.499979 0.500019 0.549411
C13   C     C_R   0.087215 0.499961 0.499996 0.038242
C14   C     C_R   0.956375 0.417816 0.499978 -0.105061
C15   C     C_R   0.043620 0.417815 0.499975 -0.103531
C16   C     C_1   0.823327 0.499966 0.500008 -0.058449
C17   C     C_1   0.176672 0.499963 0.499991 -0.054813
C18   C     C_1   0.251723 0.499970 0.499987 -0.020491
C19   C     C_1   0.748277 0.499974 0.500013 -0.025686
C20   C     C_R   0.500734 0.951671 0.610038 -0.103212
C21   C     C_R   0.499661 0.951674 0.389959 -0.103186
C22   C     C_R   0.500126 0.902723 0.499999 -0.038211
C23   C     C_R   0.499970 0.047864 0.388851 0.088165
C24   C     C_R   0.501054 0.047861 0.611139 0.088261
C25   C     C_R   0.500468 0.096973 0.499996 0.064045
C26   C     C_1   0.500041 0.802656 0.500000 0.126104
Cu1   Cu    Cu3+1 0.500000 0.589220 0.500000 0.991985
Cu2   Cu    Cu3+1 0.500000 0.410780 0.500000 1.003276
H1    H     H_    0.509635 0.360535 0.888369 0.159352
H2    H     H_    0.499200 0.914816 0.304413 0.110935
H3    H     H_    0.559097 0.128655 0.732796 0.224074
H4    H     H_    0.497460 0.050862 0.798411 0.225970
H5    H     H_    0.556820 0.128659 0.265972 0.224461
H6    H     H_    0.494547 0.050871 0.201676 0.226082
H7    H     H_    0.490746 0.360505 0.111627 0.161121
H8    H     H_    0.483571 0.567039 0.907858 0.103750
H9    H     H_    0.516365 0.567074 0.092145 0.103210
H10   H     H_    0.077020 0.645910 0.500038 0.115000
H11   H     H_    0.922987 0.645912 0.500045 0.113858
H12   H     H_    0.922978 0.354013 0.499962 0.113340
H13   H     H_    0.077013 0.354011 0.499955 0.117193
H14   H     H_    0.501108 0.914810 0.695585 0.110889
N1    N     N_1   0.500000 0.276710 0.500000 -0.191928
N2    N     N_1   0.500000 0.723290 0.500000 -0.192890
N3    N     N_3   0.501322 0.096060 0.725143 -0.626165
N4    N     N_3   0.499125 0.096066 0.274855 -0.626444
O1    O     O_R   0.380310 0.575320 0.500020 -0.490458
O2    O     O_R   0.619690 0.575320 0.499980 -0.490665
O3    O     O_R   0.380310 0.424640 0.499970 -0.485036
O4    O     O_R   0.619690 0.424640 0.500030 -0.495144
O5    O     O_R   0.500000 0.575320 0.321940 -0.496625
O6    O     O_R   0.500000 0.575320 0.678060 -0.496819
O7    O     O_R   0.500000 0.424640 0.321880 -0.492827
O8    O     O_R   0.500000 0.424640 0.678120 -0.492528

loop_
_geom_bond_atom_site_label_1
_geom_bond_atom_site_label_2
_ccdc_geom_bond_type
Cu1   O2    S    
C12   O4    A    
Cu2   O7    S    
H6    N4    S    
C9    C11   A    
C21   H2    S    
Cu2   N1    S    
C20   H14   S    
C12   O2    A    
C13   C17   S    
C2    N1    T    
C10   H10   S    
C21   C23   A    
C17   C18   T    
C26   N2    T    
H4    N3    S    
C21   C22   A    
Cu1   O6    S    
H5    N4    S    
C3    O7    A    
C1    C18   S    
C1    O3    A    
C4    O6    A    
C4    C7    S    
C6    C8    D    
C24   N3    S    
C9    C10   A    
Cu1   O5    S    
C2    C25   S    
C5    H1    S    
C13   C15   A    
C7    H8    S    
C16   C19   T    
C5    C6    S    
C11   C14   A    
C11   C16   S    
C8    H9    S    
C3    O5    A    
C14   H12   S    
C9    H11   S    
C23   C25   A    
C24   C25   A    
C15   H13   S    
C3    C8    S    
H3    N3    S    
Cu1   O1    S    
Cu1   Cu2   S    
C5    C7    D    
Cu2   O8    S    
C14   C15   A    
C1    O1    A    
C22   C26   S    
C12   C19   S    
C4    O8    A    
Cu2   O4    S    
Cu1   N2    S    
C10   C13   A    
C23   N4    S    
C6    H7    S    
C20   C24   A    
C20   C22   A    
Cu2   O3    S    
