data_mof_unit_57661.cif
_audit_creation_date              2012-12-10T18:58:12-0500
_audit_creation_method            fapswitch 2.2
_symmetry_space_group_name_H-M    P1
_symmetry_Int_Tables_number       1
_space_group_crystal_system       triclinic
_cell_length_a                    11.044297
_cell_length_b                    10.84386
_cell_length_c                    9.56127
_cell_angle_alpha                 89.615678
_cell_angle_beta                  102.414096
_cell_angle_gamma                 90.716381
_cell_volume                      1118.21493888

loop_
_atom_site_label
_atom_site_type_symbol
_atom_type_description
_atom_site_fract_x
_atom_site_fract_y
_atom_site_fract_z
_atom_type_partial_charge
C1    C     C_R   0.501144 0.262409 0.500648 0.786798
C2    C     C_R   0.510358 0.129339 0.503276 -0.088800
C3    C     C_R   0.527286 0.065612 0.381546 -0.217586
C4    C     C_R   0.525424 0.937235 0.380607 -0.221150
C5    C     C_R   0.508162 0.871077 0.501657 -0.092460
C6    C     C_R   0.504452 0.935468 0.626599 0.120441
C7    C     C_3   0.409973 0.928130 0.717378 -0.456830
C8    C     C_3   0.412879 0.067867 0.719954 -0.480866
C9    C     C_R   0.529007 0.604995 0.079007 0.182173
C10   C     C_R   0.457022 0.401142 0.064414 -0.053751
C11   C     C_R   0.456719 0.401332 0.915675 -0.053134
C12   C     C_R   0.262878 0.497078 0.442180 0.860737
C13   C     C_R   0.528796 0.604675 0.932179 0.166987
C14   C     C_3   0.644781 0.679326 0.950574 -0.515234
C15   C     C_3   0.644825 0.682995 0.109857 0.296991
C16   C     C_R   0.500289 0.737660 0.499759 0.796047
C17   C     C_R   0.737077 0.498037 0.558169 0.752896
C18   C     C_2   0.128109 0.487275 0.410547 -0.397955
C19   C     C_2   0.068086 0.482217 0.517839 -0.109131
C20   C     C_2   0.871937 0.494903 0.592254 0.436866
C21   C     C_2   0.933417 0.474442 0.488753 -0.276298
C22   C     C_R   0.505987 0.062712 0.627641 0.136193
Cu1   Cu    Cu3+1 0.499990 0.499980 0.640670 0.968353
Cu2   Cu    Cu3+1 0.500010 0.500020 0.359330 0.975024
H1    H     H_    0.883789 0.455949 0.379723 0.188883
H2    H     H_    0.453624 0.105355 0.827919 0.188915
H3    H     H_    0.423690 0.320238 0.111691 0.132963
H4    H     H_    0.422540 0.321117 0.852615 0.132028
H5    H     H_    0.722647 0.626540 0.924310 0.257893
H6    H     H_    0.629878 0.771114 0.898152 0.151894
H7    H     H_    0.627033 0.776137 0.148409 0.050996
H8    H     H_    0.118538 0.487441 0.628628 0.235325
H9    H     H_    0.077924 0.483149 0.299605 0.173913
H10   H     H_    0.536284 0.114318 0.284949 0.160926
H11   H     H_    0.531634 0.890621 0.283202 0.149784
H12   H     H_    0.319804 0.888854 0.659112 0.202658
H13   H     H_    0.446866 0.886372 0.824154 0.188342
H14   H     H_    0.324044 0.110192 0.664711 0.199710
N1    N     N_R   0.500780 0.500930 0.148120 -0.164554
N2    N     N_R   0.500790 0.500890 0.852210 -0.167966
O1    O     O_R   0.500000 0.319640 0.618810 -0.587596
O2    O     O_R   0.500010 0.319680 0.381230 -0.597351
O3    O     O_R   0.320680 0.500000 0.575130 -0.582546
O4    O     O_R   0.320690 0.500040 0.337550 -0.575504
O5    O     O_R   0.499990 0.680320 0.618770 -0.577819
O6    O     O_R   0.500000 0.680360 0.381190 -0.589565
O7    O     O_R   0.679310 0.499960 0.662450 -0.541737
O8    O     O_R   0.679320 0.500000 0.424870 -0.560165
O9    O     O_3   0.747522 0.621252 0.192873 -0.529950
C23   C     C_3   0.845150 0.707586 0.234822 -0.299438
H15   H     H_    0.824609 0.770478 0.317957 0.159404
H16   H     H_    0.863984 0.761697 0.142197 0.163265
H17   H     H_    0.931268 0.657942 0.281748 0.189650
F1    F     F_    0.933500 0.515423 0.729727 -0.668668

loop_
_geom_bond_atom_site_label_1
_geom_bond_atom_site_label_2
_ccdc_geom_bond_type
C16   O5    A    
C2    C22   A    
C8    C22   S    
Cu1   Cu2   S    
C15   H7    S    
C6    C7    S    
Cu1   O5    S    
Cu2   O2    S    
C7    H12   S    
C23   H16   S    
Cu1   O1    S    
C17   O8    A    
Cu2   O6    S    
Cu2   N1    S    
C23   H15   S    
C7    H13   S    
C4    H11   S    
C10   H3    S    
C7    C8    S    
C12   O4    A    
C13   C14   S    
C11   N2    A    
C8    H14   S    
C11   H4    S    
C14   H6    S    
C19   H8    S    
C1    O1    A    
C19   C21   S    
C18   C19   D    
C12   O3    A    
C2    C3    A    
C15   O9    S    
C9    C15   S    
C5    C6    A    
Cu2   O4    S    
C18   H9    S    
C23   H17   S    
Cu1   O7    S    
C10   C11   A    
C14   H5    S    
C12   C18   S    
C3    C4    A    
C6    C22   A    
C1    O2    A    
C9    N1    A    
C17   C20   S    
C8    H2    S    
C20   C21   D    
C20   F1    S    
C1    C2    S    
C16   O6    A    
O9    C23   S    
Cu1   N2    S    
C9    C13   A    
C14   C15   S    
C4    C5    A    
C5    C16   S    
C21   H1    S    
C3    H10   S    
Cu1   O3    S    
C17   O7    A    
C10   N1    A    
C13   N2    A    
Cu2   O8    S    
