data_mof_unit_15542.cif
_audit_creation_date              2012-12-10T17:02:56-0500
_audit_creation_method            fapswitch 2.2
_symmetry_space_group_name_H-M    P1
_symmetry_Int_Tables_number       1
_space_group_crystal_system       triclinic
_cell_length_a                    9.8027
_cell_length_b                    11.045735
_cell_length_c                    13.443222
_cell_angle_alpha                 94.256018
_cell_angle_beta                  81.500344
_cell_angle_gamma                 111.246757
_cell_volume                      1341.42831461

loop_
_atom_site_label
_atom_site_type_symbol
_atom_type_description
_atom_site_fract_x
_atom_site_fract_y
_atom_site_fract_z
_atom_type_partial_charge
C1    C     C_R   0.556477 0.745463 0.507353 0.872354
C2    C     C_R   0.432985 0.479780 0.971287 0.082838
C3    C     C_R   0.458666 0.450210 0.867190 0.085586
C4    C     C_R   0.534070 0.474737 0.035601 0.073765
C5    C     C_R   0.650520 0.429793 0.996911 0.167721
C6    C     C_R   0.663296 0.387442 0.897016 -0.247982
C7    C     C_R   0.567635 0.395495 0.833543 -0.199621
C8    C     C_R   0.523358 0.513163 0.137409 -0.242729
C9    C     C_R   0.734005 0.458292 0.161135 -0.195941
C10   C     C_R   0.373290 0.474816 0.799726 -0.103106
C11   C     C_2   0.588262 0.884596 0.511568 -0.357301
C12   C     C_R   0.421004 0.482842 0.690376 0.782387
C13   C     C_2   0.483923 0.930523 0.498792 -0.152127
C14   C     C_2   0.411484 0.115390 0.489093 -0.353803
C15   C     C_2   0.515516 0.069452 0.502605 -0.156562
C16   C     C_2   0.922298 0.489559 0.491682 -0.079045
C17   C     C_2   0.076923 0.509075 0.509292 -0.076503
C18   C     C_R   0.443441 0.254528 0.492846 0.859627
C19   C     C_R   0.577348 0.509891 0.309526 0.798995
C20   C     C_R   0.750935 0.424353 0.059392 -0.199548
C21   C     C_R   0.617569 0.499491 0.200807 -0.048139
C22   C     C_R   0.249477 0.507052 0.837996 -0.187506
C23   C     C_R   0.214810 0.522437 0.940826 -0.154460
C24   C     C_R   0.306411 0.511848 0.006846 -0.180578
Cu1   Cu    Cu3+1 0.362000 0.479240 0.482530 0.938101
Cu2   Cu    Cu3+1 0.638000 0.520760 0.517470 0.936825
H1    H     H_    0.807440 0.446666 0.209410 0.145778
H2    H     H_    0.374264 0.865433 0.485243 0.180731
H3    H     H_    0.302171 0.050026 0.475222 0.151712
H4    H     H_    0.697724 0.949967 0.525123 0.150762
H5    H     H_    0.125294 0.576523 0.568347 0.156938
H6    H     H_    0.873226 0.420840 0.433510 0.156588
H7    H     H_    0.106572 0.385364 0.400103 0.190922
H8    H     H_    0.747693 0.347597 0.867679 0.146112
H9    H     H_    0.839776 0.389888 0.030161 0.132255
H10   H     H_    0.440617 0.552153 0.170406 0.146335
H11   H     H_    0.181467 0.524322 0.788113 0.149106
H12   H     H_    0.272890 0.526710 0.085345 0.126592
H13   H     H_    0.118697 0.547063 0.969479 0.140407
H14   H     H_    0.578489 0.355148 0.758381 0.173244
H15   H     H_    0.625030 0.134536 0.516470 0.179556
N1    N     N_2   0.845330 0.551960 0.543750 -0.285903
N2    N     N_2   0.154690 0.448120 0.456210 -0.286050
O1    O     O_R   0.426290 0.668220 0.490680 -0.578334
O2    O     O_R   0.659360 0.703290 0.520190 -0.569109
O3    O     O_R   0.326580 0.473880 0.629020 -0.577989
O4    O     O_R   0.559660 0.508940 0.658530 -0.574995
O5    O     O_R   0.340640 0.296710 0.479810 -0.570813
O6    O     O_R   0.573710 0.331780 0.509320 -0.585904
O7    O     O_R   0.440340 0.491060 0.341470 -0.575761
O8    O     O_R   0.673420 0.526120 0.370980 -0.579696
H16   H     H_    0.894734 0.617073 0.598232 0.194267

loop_
_geom_bond_atom_site_label_1
_geom_bond_atom_site_label_2
_ccdc_geom_bond_type
C24   H12   S    
C23   C24   A    
C17   N2    D    
C13   H2    S    
C6    C7    A    
C16   N1    D    
C16   H6    S    
C14   C18   S    
C9    C20   A    
C2    C4    A    
Cu1   O5    S    
C4    C8    A    
C9    C21   A    
Cu1   N2    S    
C14   C15   D    
C2    C3    A    
C18   O6    A    
C18   O5    A    
C3    C10   A    
Cu2   O8    S    
C10   C22   A    
C11   C13   D    
C19   O7    A    
C1    O2    A    
C10   C12   S    
Cu2   O4    S    
C12   O4    A    
C23   H13   S    
Cu1   O1    S    
C19   C21   S    
C8    C21   A    
C3    C7    A    
C13   C15   S    
Cu2   N1    S    
C2    C24   A    
C5    C6    A    
C17   H5    S    
C15   H15   S    
H7    N2    S    
C19   O8    A    
C9    H1    S    
C12   O3    A    
C8    H10   S    
Cu2   O6    S    
N1    H16   S    
C5    C20   A    
Cu1   O7    S    
C16   C17   S    
C1    O1    A    
Cu2   O2    S    
Cu1   Cu2   S    
C7    H14   S    
C22   H11   S    
Cu1   O3    S    
C20   H9    S    
C22   C23   A    
C6    H8    S    
C11   H4    S    
C14   H3    S    
C4    C5    A    
C1    C11   S    
