data_mof_unit_17886.cif
_audit_creation_date              2012-10-26T20:40:16-0400
_audit_creation_method            fapswitch 2.2
_symmetry_space_group_name_H-M    P1
_symmetry_Int_Tables_number       1
_space_group_crystal_system       triclinic
_cell_length_a                    15.067038
_cell_length_b                    10.86109
_cell_length_c                    9.572354
_cell_angle_alpha                 90.475135
_cell_angle_beta                  90.206502
_cell_angle_gamma                 92.488124
_cell_volume                      1564.91973384

loop_
_atom_site_label
_atom_site_type_symbol
_atom_type_description
_atom_site_fract_x
_atom_site_fract_y
_atom_site_fract_z
_atom_type_partial_charge
C1    C     C_R   0.507643 0.263239 0.500204 0.552220
C2    C     C_R   0.185294 0.466702 0.621537 -0.096091
C3    C     C_R   0.231816 0.499962 0.500184 -0.029901
C4    C     C_R   0.328696 0.499659 0.499848 0.554507
C5    C     C_R   0.186017 0.534420 0.380415 -0.109008
C6    C     C_R   0.562616 0.124351 0.753114 -0.087159
C7    C     C_R   0.553980 0.067188 0.882307 -0.101733
C8    C     C_R   0.510437 0.952338 0.891081 -0.112001
C9    C     C_R   0.483863 0.889393 0.769399 -0.098146
C10   C     C_R   0.501429 0.940489 0.635649 0.024270
C11   C     C_R   0.527831 0.066347 0.630158 0.030565
C12   C     C_R   0.907967 0.537236 0.380954 0.026989
C13   C     C_R   0.516919 0.129672 0.502540 -0.002449
C14   C     C_R   0.502745 0.062972 0.378262 -0.127270
C15   C     C_R   0.495351 0.935787 0.380154 -0.117757
C16   C     C_R   0.495887 0.737804 0.501671 0.553175
C17   C     C_R   0.493879 0.872711 0.507307 0.003649
C18   C     C_R   0.617586 0.664580 0.146140 -0.101159
C19   C     C_R   0.674828 0.746049 0.075194 0.217902
C20   C     C_R   0.675202 0.744641 0.930920 -0.146087
C21   C     C_R   0.618235 0.663440 0.857745 -0.149243
C22   C     C_R   0.558112 0.580482 0.926117 0.131667
C23   C     C_R   0.951090 0.436754 0.745171 -0.109280
C24   C     C_R   0.557966 0.580707 0.075732 0.102243
C25   C     C_R   0.444923 0.423141 0.072947 0.017577
C26   C     C_R   0.444891 0.423245 0.924860 0.016222
C27   C     C_R   0.671289 0.500989 0.500276 0.552277
C28   C     C_R   0.815467 0.535688 0.380574 -0.086548
C29   C     C_R   0.768114 0.502674 0.501249 0.003701
C30   C     C_R   0.813439 0.471317 0.623127 -0.129262
C31   C     C_R   0.905942 0.470748 0.624534 -0.028489
C32   C     C_R   0.953553 0.503690 0.503201 0.049895
C33   C     C_R   0.043873 0.434017 0.747339 0.220856
C34   C     C_R   0.092392 0.467408 0.625611 0.003472
C35   C     C_R   0.046610 0.502606 0.503640 0.023184
C36   C     C_R   0.093727 0.536461 0.381325 0.022390
C37   C     C_R   0.047885 0.572010 0.261633 -0.062093
C38   C     C_R   0.955503 0.571608 0.261077 -0.071622
Cu1   Cu    Cu3+1 0.499990 0.499990 0.640660 0.932029
Cu2   Cu    Cu3+1 0.500010 0.500010 0.359340 0.954004
H1    H     H_    0.780482 0.561008 0.286627 0.151907
H2    H     H_    0.623612 0.671244 0.747756 0.202044
H3    H     H_    0.776696 0.445518 0.716407 0.132275
H4    H     H_    0.399751 0.360380 0.868534 0.147947
H5    H     H_    0.913524 0.411402 0.837637 0.159516
H6    H     H_    0.222603 0.439496 0.711831 0.212385
H7    H     H_    0.222215 0.560753 0.286801 0.156188
H8    H     H_    0.083495 0.599838 0.168267 0.179852
H9    H     H_    0.921252 0.598065 0.166942 0.159755
H10   H     H_    0.496912 0.109039 0.278890 0.141089
H11   H     H_    0.778413 0.893991 0.382854 0.378803
H12   H     H_    0.598085 0.212961 0.750786 0.147755
H13   H     H_    0.110706 0.200266 0.828588 0.350496
H14   H     H_    0.578604 0.113741 0.976041 0.148106
H15   H     H_    0.498816 0.910654 0.992120 0.122789
H16   H     H_    0.446696 0.803444 0.783735 0.159741
H17   H     H_    0.488848 0.886946 0.281241 0.142805
H18   H     H_    0.399821 0.360208 0.127536 0.138319
H19   H     H_    0.622609 0.670863 0.256035 0.225589
H20   H     H_    0.719348 0.807668 0.874301 0.172504
N1    N     N_R   0.500860 0.501210 0.147910 -0.247631
N2    N     N_R   0.500890 0.501290 0.852040 -0.248161
O1    O     O_R   0.499990 0.319640 0.618810 -0.513867
O2    O     O_2   0.720536 0.980445 0.132157 -0.279100
O3    O     O_3   0.737035 0.830725 0.340551 -0.560809
O4    O     O_2   0.159243 0.488262 0.954603 -0.298063
O5    O     O_2   0.029290 0.356728 0.015152 -0.277517
O6    O     O_3   0.154481 0.261045 0.869694 -0.511614
O7    O     O_R   0.500000 0.319660 0.381240 -0.501867
O8    O     O_R   0.370250 0.499960 0.618800 -0.499439
O9    O     O_R   0.370260 0.499980 0.381230 -0.496161
O10   O     O_R   0.500000 0.680340 0.618760 -0.535436
O11   O     O_R   0.500010 0.680360 0.381190 -0.521204
O12   O     O_R   0.629740 0.500020 0.618770 -0.531079
O13   O     O_R   0.629750 0.500040 0.381200 -0.519730
O14   O     O_2   0.839917 0.834647 0.122512 -0.277155
S1    S     S_3+6 0.745702 0.851872 0.167118 -0.019277
S2    S     S_3+6 0.096325 0.386572 0.903125 -0.019248

loop_
_geom_bond_atom_site_label_1
_geom_bond_atom_site_label_2
_ccdc_geom_bond_type
C24   N1    A    
C23   H5    S    
Cu2   O9    S    
C27   C29   S    
O2    S1    D    
C19   C20   A    
C16   O10   A    
C4    O8    A    
C26   H4    S    
C7    C8    A    
C38   H9    S    
C2    H6    S    
C5    H7    S    
C29   C30   A    
C12   C28   A    
C18   C24   A    
C36   C37   A    
C18   C19   A    
C30   C31   A    
C33   S2    S    
C10   C17   A    
C5    C36   A    
C28   H1    S    
Cu2   O11   S    
C34   C35   A    
H11   O3    S    
Cu1   O12   S    
C19   S1    S    
H13   O6    S    
C35   C36   A    
C8    C9    A    
C23   C33   A    
Cu1   O10   S    
C20   H20   S    
C27   O12   A    
C9    C10   A    
C2    C34   A    
C13   C14   A    
C12   C32   A    
C15   H17   S    
O5    S2    D    
C27   O13   A    
C1    O1    A    
C8    H15   S    
O6    S2    S    
O4    S2    D    
O3    S1    S    
Cu2   O7    S    
C16   O11   A    
C32   C35   A    
O14   S1    D    
C6    C11   A    
C16   C17   S    
C25   C26   A    
C1    O7    A    
Cu2   N1    S    
C23   C31   A    
C37   C38   A    
C22   N2    A    
C31   C32   A    
C33   C34   A    
C9    H16   S    
C25   N1    A    
C37   H8    S    
C22   C24   A    
C30   H3    S    
C1    C13   S    
C25   H18   S    
C3    C4    S    
Cu1   Cu2   S    
C15   C17   A    
Cu1   N2    S    
C28   C29   A    
C3    C5    A    
C6    C7    A    
Cu1   O1    S    
Cu2   O13   S    
C2    C3    A    
C26   N2    A    
C11   C13   A    
C14   H10   S    
Cu1   O8    S    
C12   C38   A    
C10   C11   A    
C21   H2    S    
C18   H19   S    
C20   C21   A    
C14   C15   A    
C7    H14   S    
C6    H12   S    
C21   C22   A    
C4    O9    A    
