data_mof_unit_6575.cif
_audit_creation_date              2012-12-10T17:03:55-0500
_audit_creation_method            fapswitch 2.2
_symmetry_space_group_name_H-M    P1
_symmetry_Int_Tables_number       1
_space_group_crystal_system       triclinic
_cell_length_a                    9.876745
_cell_length_b                    11.055122
_cell_length_c                    15.893442
_cell_angle_alpha                 95.579078
_cell_angle_beta                  78.994637
_cell_angle_gamma                 112.727112
_cell_volume                      1570.67517072

loop_
_atom_site_label
_atom_site_type_symbol
_atom_type_description
_atom_site_fract_x
_atom_site_fract_y
_atom_site_fract_z
_atom_type_partial_charge
C1    C     C_R   0.555702 0.746551 0.510708 0.810035
C2    C     C_R   0.443017 0.253030 0.492079 0.814504
C3    C     C_R   0.324437 0.472698 0.077958 -0.219351
C4    C     C_R   0.681626 0.563446 0.923492 -0.213706
C5    C     C_R   0.221034 0.442089 0.023633 -0.217012
C6    C     C_R   0.784620 0.591703 0.977930 -0.216253
C7    C     C_2   0.584308 0.888021 0.527110 -0.018704
C8    C     C_2   0.412229 0.110289 0.485532 0.014509
C9    C     C_2   0.471488 0.927641 0.524819 -0.183946
C10   C     C_2   0.481545 0.064823 0.533036 -0.173071
C11   C     C_2   0.921547 0.488789 0.494762 0.059801
C12   C     C_2   0.073622 0.503128 0.510434 0.058987
C13   C     C_R   0.409544 0.483542 0.662788 0.786277
C14   C     C_R   0.591006 0.518985 0.337254 0.789367
C15   C     C_R   0.352336 0.469438 0.756262 -0.081744
C16   C     C_R   0.649757 0.541592 0.244099 -0.085784
C17   C     C_R   0.158531 0.413206 0.882116 -0.221380
C18   C     C_R   0.845246 0.607882 0.119282 -0.218866
C19   C     C_R   0.198347 0.418309 0.792676 0.151171
C20   C     C_R   0.803909 0.594382 0.208323 0.141449
C21   C     C_R   0.459043 0.507584 0.810726 -0.276932
C22   C     C_R   0.544566 0.513037 0.189502 -0.274592
C23   C     C_R   0.419464 0.494240 0.900104 0.079436
C24   C     C_R   0.585368 0.533559 0.100818 0.077929
C25   C     C_R   0.266376 0.449953 0.935298 0.129563
C26   C     C_R   0.738436 0.577617 0.065961 0.129453
C27   C     C_R   0.527172 0.523235 0.955402 0.072648
C28   C     C_R   0.478378 0.509340 0.045744 0.073597
Cu1   Cu    Cu3+1 0.362980 0.479380 0.485080 1.030641
Cu2   Cu    Cu3+1 0.637020 0.520620 0.514920 1.035014
H1    H     H_    0.104016 0.411887 0.051269 0.155292
H2    H     H_    0.901862 0.623621 0.950547 0.156351
H3    H     H_    0.429802 0.473252 0.217928 0.209131
H4    H     H_    0.573796 0.548881 0.781362 0.198487
H5    H     H_    0.041706 0.376979 0.910817 0.133884
H6    H     H_    0.962354 0.645235 0.091186 0.133161
H7    H     H_    0.278589 0.467150 0.145162 0.183283
H8    H     H_    0.728358 0.573986 0.856483 0.182583
H9    H     H_    0.547478 0.130925 0.577962 0.151551
H10   H     H_    0.366160 0.855475 0.511185 0.195665
H11   H     H_    0.117662 0.561052 0.564770 0.168702
H12   H     H_    0.871005 0.422114 0.445402 0.182609
N1    N     N_2   0.842890 0.551600 0.537350 -0.008079
N2    N     N_2   0.157110 0.448400 0.462650 -0.002894
O1    O     O_R   0.426810 0.668300 0.492040 -0.611480
O2    O     O_R   0.573190 0.331700 0.507960 -0.610712
O3    O     O_R   0.658240 0.703130 0.517240 -0.520849
O4    O     O_R   0.341760 0.296870 0.482760 -0.544473
O5    O     O_R   0.319390 0.472820 0.610170 -0.611611
O6    O     O_R   0.680610 0.527180 0.389830 -0.607061
O7    O     O_R   0.550820 0.507640 0.635370 -0.521752
O8    O     O_R   0.449180 0.492360 0.364630 -0.502436
C29   C     C_3   0.927873 0.642095 0.261242 -0.336442
C30   C     C_3   0.939001 0.772410 0.307405 -0.817297
H13   H     H_    0.830327 0.766457 0.345546 0.255290
H14   H     H_    0.021674 0.798549 0.351267 0.250557
H15   H     H_    0.975605 0.851042 0.260036 0.246131
H16   H     H_    0.912731 0.567349 0.307096 0.257919
H17   H     H_    0.037353 0.657236 0.220040 0.206181
C31   C     C_3   0.072733 0.365773 0.740511 -0.359446
C32   C     C_3   0.060555 0.232807 0.697694 -0.788245
H18   H     H_    0.971057 0.199927 0.657939 0.236416
H19   H     H_    0.166113 0.237977 0.655855 0.256770
H20   H     H_    0.032128 0.158815 0.747337 0.245934
H21   H     H_    0.963943 0.351692 0.782218 0.200366
H22   H     H_    0.084707 0.437574 0.693067 0.240411
C33   C     C_3   0.319149 0.017486 0.422004 -0.452020
C34   C     C_3   0.274996 0.082293 0.357786 -0.745282
H23   H     H_    0.185606 0.115421 0.390715 0.306074
H24   H     H_    0.373372 0.164862 0.327231 0.269845
H25   H     H_    0.230312 0.010082 0.306637 0.226479
H26   H     H_    0.384498 0.962645 0.383547 0.226594
H27   H     H_    0.216369 0.945461 0.458010 0.243102
C35   C     C_3   0.733333 0.979955 0.551132 -0.369020
C36   C     C_3   0.865144 0.985969 0.481212 -0.723958
H28   H     H_    0.891069 0.896863 0.480515 0.270149
H29   H     H_    0.842013 0.997084 0.417326 0.269041
H30   H     H_    0.965105 0.071188 0.494813 0.254484
H31   H     H_    0.739499 0.081718 0.564783 0.208327
H32   H     H_    0.747882 0.945823 0.611005 0.223111
S1    S     S_3+6 0.103070 0.366115 0.368186 0.044229
O9    O     O_2   0.957527 0.252234 0.388273 -0.346463
O10   O     O_2   0.085595 0.458976 0.312098 -0.362521
O11   O     O_3   0.228300 0.308378 0.312841 -0.533107
H33   H     H_    0.186943 0.265755 0.260644 0.348834
S2    S     S_3+6 0.908866 0.663134 0.618683 0.056073
O12   O     O_2   0.928310 0.592909 0.689140 -0.359631
O13   O     O_2   0.055962 0.766931 0.584042 -0.350438
O14   O     O_3   0.788367 0.735645 0.659550 -0.506198
H34   H     H_    0.832285 0.793771 0.706839 0.345361

loop_
_geom_bond_atom_site_label_1
_geom_bond_atom_site_label_2
_ccdc_geom_bond_type
C6    H2    S    
Cu2   O7    S    
C18   C26   A    
S1    O11   S    
S1    O9    D    
C29   H17   S    
Cu1   O5    S    
C29   C30   S    
C2    O2    A    
C15   C19   A    
Cu1   Cu2   S    
C22   C24   A    
C3    C28   A    
C24   C26   A    
S2    O13   D    
C11   H12   S    
C33   H26   S    
C32   H19   S    
C13   O7    A    
C14   O8    A    
C34   H23   S    
C11   N1    D    
C33   H27   S    
C23   C27   A    
C9    C10   S    
Cu2   O6    S    
C31   H22   S    
C35   H32   S    
S1    O10   D    
C7    C35   S    
C30   H14   S    
C35   C36   S    
C14   O6    A    
Cu1   O4    S    
C33   C34   S    
Cu2   O3    S    
O11   H33   S    
C4    C6    A    
N2    S1    S    
S2    O12   D    
C1    O3    A    
C21   H4    S    
C2    O4    A    
C9    H10   S    
Cu1   O1    S    
C10   H9    S    
C32   H20   S    
C36   H28   S    
C12   H11   S    
C16   C20   A    
C36   H29   S    
C13   O5    A    
C5    C25   A    
C8    C10   D    
C4    H8    S    
C31   H21   S    
C35   H31   S    
C21   C23   A    
Cu1   N2    S    
C14   C16   S    
Cu2   N1    S    
C4    C27   A    
C7    C9    D    
C22   H3    S    
C30   H13   S    
C16   C22   A    
C1    C7    S    
N1    S2    S    
Cu2   O2    S    
C2    C8    S    
C24   C28   A    
C20   C29   S    
C3    C5    A    
S2    O14   S    
C29   H16   S    
C19   C31   S    
C17   C25   A    
C13   C15   S    
C12   N2    D    
C1    O1    A    
C6    C26   A    
C34   H25   S    
C17   C19   A    
C18   C20   A    
C23   C25   A    
C32   H18   S    
C36   H30   S    
C15   C21   A    
C3    H7    S    
C8    C33   S    
C34   H24   S    
C27   C28   A    
C31   C32   S    
C17   H5    S    
O14   H34   S    
C18   H6    S    
Cu1   O8    S    
C11   C12   S    
C5    H1    S    
C30   H15   S    
