data_mof_unit_27667.cif
_audit_creation_date              2012-12-11T14:43:31-0500
_audit_creation_method            fapswitch 2.2
_symmetry_space_group_name_H-M    P1
_symmetry_Int_Tables_number       1
_space_group_crystal_system       triclinic
_cell_length_a                    20.836297
_cell_length_b                    7.104118
_cell_length_c                    16.366092
_cell_angle_alpha                 91.397545
_cell_angle_beta                  92.614573
_cell_angle_gamma                 90.732899
_cell_volume                      2419.09017286

loop_
_atom_site_label
_atom_site_type_symbol
_atom_type_description
_atom_site_fract_x
_atom_site_fract_y
_atom_site_fract_z
_atom_type_partial_charge
O1    O     O_R   0.564840 0.505290 0.579830 -0.537001
O2    O     O_R   0.435160 0.005290 0.420170 -0.536678
O3    O     O_R   0.556720 0.179930 0.409350 -0.538567
O4    O     O_R   0.443280 0.679930 0.590650 -0.538694
C1    C     C_R   0.570210 0.343410 0.380828 0.697079
C2    C     C_R   0.429650 0.845970 0.619011 0.698252
O5    O     O_R   0.572280 0.175810 0.578530 -0.538291
O6    O     O_R   0.427720 0.675810 0.421470 -0.541848
O7    O     O_R   0.450830 0.001920 0.590540 -0.535414
O8    O     O_R   0.549170 0.501920 0.409460 -0.535475
C3    C     C_R   0.589960 0.347286 0.604890 0.688853
C4    C     C_R   0.409721 0.841237 0.395135 0.687730
O9    O     O_3   0.460130 0.338030 0.503750 -0.372406
O10   O     O_3   0.539870 0.838030 0.496250 -0.370157
V1    V     V_3+5 0.507400 0.064560 0.499310 1.415662
V2    V     V_3+5 0.492600 0.564560 0.500690 1.413294
C5    C     C_R   0.144237 0.928018 0.168049 -0.164287
C6    C     C_R   0.858151 0.396122 0.830145 -0.155625
C7    C     C_R   0.355257 0.837450 0.332883 -0.064869
C8    C     C_R   0.642998 0.370393 0.668278 -0.059901
C9    C     C_R   0.294670 0.669374 0.221586 -0.160890
C10   C     C_R   0.689692 0.548159 0.786617 -0.161925
C11   C     C_R   0.347788 0.683737 0.277067 -0.169093
C12   C     C_R   0.638282 0.509131 0.730528 -0.163959
C13   C     C_R   0.308117 0.977376 0.332026 -0.212384
C14   C     C_R   0.700524 0.270476 0.663148 -0.211189
C15   C     C_R   0.253559 0.961016 0.277757 0.082774
C16   C     C_R   0.753208 0.312730 0.718202 0.085056
C17   C     C_R   0.246868 0.806450 0.221687 0.154519
C18   C     C_R   0.747703 0.452212 0.780682 0.155853
C19   C     C_R   0.192628 0.791612 0.166805 -0.298157
C20   C     C_R   0.800060 0.492725 0.836332 -0.310729
C21   C     C_R   0.149633 0.075707 0.227807 0.471465
C22   C     C_R   0.864352 0.263927 0.764901 0.471138
C23   C     C_R   0.204727 0.094181 0.280167 -0.269681
C24   C     C_R   0.811747 0.220520 0.710812 -0.261546
H1    H     H_    0.188711 0.676311 0.122147 0.149245
H2    H     H_    0.795005 0.594907 0.885841 0.140846
H3    H     H_    0.290553 0.549424 0.179395 0.118221
H4    H     H_    0.684362 0.655577 0.833880 0.114967
H5    H     H_    0.208378 0.211020 0.324063 0.140083
H6    H     H_    0.817123 0.115516 0.662528 0.136632
H7    H     H_    0.383281 0.573662 0.276400 0.122969
H8    H     H_    0.594567 0.588797 0.735446 0.117039
H9    H     H_    0.312659 0.094846 0.375546 0.120822
H10   H     H_    0.705124 0.165901 0.614481 0.115136
C25   C     C_R   0.381091 0.905921 0.836490 -0.160587
C26   C     C_R   0.622059 0.276446 0.165169 -0.161424
H11   H     H_    0.470316 0.887943 0.776718 0.102157
H12   H     H_    0.532752 0.259885 0.224756 0.104255
H13   H     H_    0.301514 0.946967 0.957161 0.125333
H14   H     H_    0.703651 0.250272 0.046048 0.125448
H15   H     H_    0.405046 0.924927 0.896366 0.111422
H16   H     H_    0.599756 0.234416 0.106304 0.111583
C27   C     C_R   0.389223 0.859571 0.690454 -0.037640
C28   C     C_R   0.610716 0.345342 0.309271 -0.038879
C29   C     C_R   0.077534 0.873020 0.732551 -0.177929
C30   C     C_R   0.919033 0.482996 0.265498 -0.175709
C31   C     C_R   0.111805 0.851429 0.662152 -0.138564
C32   C     C_R   0.883734 0.499303 0.335217 -0.134127
C33   C     C_R   0.178755 0.854976 0.666462 -0.153456
C34   C     C_R   0.818101 0.458607 0.331700 -0.154200
C35   C     C_R   0.213591 0.880121 0.742303 0.079355
C36   C     C_R   0.785648 0.400676 0.257312 0.079595
C37   C     C_R   0.177898 0.904696 0.814509 0.066224
C38   C     C_R   0.822725 0.379647 0.186054 0.066889
C39   C     C_R   0.282504 0.880103 0.748936 0.072996
C40   C     C_R   0.717583 0.366167 0.251049 0.072842
C41   C     C_R   0.313742 0.904627 0.827616 0.139923
C42   C     C_R   0.688501 0.311790 0.173649 0.140141
C43   C     C_R   0.277774 0.928337 0.897123 -0.201164
C44   C     C_R   0.725767 0.291825 0.105094 -0.202157
C45   C     C_R   0.211051 0.928503 0.890824 -0.197337
C46   C     C_R   0.791711 0.324887 0.111067 -0.200315
C47   C     C_R   0.321829 0.857029 0.680561 -0.217208
C48   C     C_R   0.677092 0.382911 0.318624 -0.217691
C49   C     C_R   0.418413 0.884374 0.768500 -0.170864
C50   C     C_R   0.583690 0.291854 0.232442 -0.169415
C51   C     C_R   0.109549 0.901993 0.808797 -0.081324
C52   C     C_R   0.889929 0.419431 0.191073 -0.081729
H17   H     H_    0.301877 0.839265 0.618911 0.092226
H18   H     H_    0.695588 0.420214 0.379499 0.093388
H19   H     H_    0.025502 0.866492 0.727586 0.135186
H20   H     H_    0.969510 0.522389 0.269401 0.116297
H21   H     H_    0.201725 0.836155 0.609279 0.107026
H22   H     H_    0.794053 0.476878 0.388135 0.106643
H23   H     H_    0.086186 0.830272 0.603526 0.117408
H24   H     H_    0.907320 0.546917 0.392475 0.116007
H25   H     H_    0.185559 0.946989 0.946596 0.106620
H26   H     H_    0.818228 0.308252 0.056025 0.112066
O11   O     O_R   0.950790 0.256670 0.090520 -0.531177
O12   O     O_R   0.049210 0.756670 0.909480 -0.538985
O13   O     O_R   0.927720 0.590370 0.921470 -0.542263
O14   O     O_R   0.072280 0.090370 0.078530 -0.517252
C53   C     C_R   0.910479 0.418609 0.894641 0.723785
C54   C     C_R   0.090004 0.924449 0.105204 0.720310
O15   O     O_R   0.943270 0.586180 0.090640 -0.541302
O16   O     O_R   0.056730 0.086180 0.909360 -0.533318
O17   O     O_R   0.064850 0.759970 0.079840 -0.538776
O18   O     O_R   0.935150 0.259970 0.920160 -0.516875
C55   C     C_R   0.930027 0.419248 0.118746 0.691426
C56   C     C_R   0.069765 0.916382 0.881125 0.698041
O19   O     O_3   0.039850 0.428050 0.996240 -0.372053
O20   O     O_3   0.960150 0.928050 0.003760 -0.373437
V3    V     V_3+5 0.992610 0.701540 0.000700 1.441267
V4    V     V_3+5 0.007390 0.201540 0.999300 1.494870
O21   O     O_3   0.100821 0.203574 0.235897 -0.547451
C57   C     C_3   0.057964 0.131057 0.291954 -0.252978
H27   H     H_    0.082306 0.110533 0.353051 0.128094
H28   H     H_    0.034976 0.996880 0.268383 0.124208
H29   H     H_    0.019238 0.233552 0.300586 0.160632
O22   O     O_3   0.921480 0.171237 0.754884 -0.552836
C58   C     C_3   0.960664 0.284136 0.707216 -0.269060
H30   H     H_    0.972023 0.422907 0.737953 0.127745
H31   H     H_    0.937976 0.304447 0.645193 0.131403
H32   H     H_    0.006853 0.211911 0.699232 0.167805

loop_
_geom_bond_atom_site_label_1
_geom_bond_atom_site_label_2
_ccdc_geom_bond_type
C35   C37   A    
C28   C48   A    
C15   C17   A    
C22   O22   S    
C29   C51   A    
C1    C28   S    
C24   H6    S    
O1    C3    A    
C2    C27   S    
O2    C4    A    
C2    O7    A    
O20   V4    S    
C32   H24   S    
C37   C45   A    
O5    C3    A    
C34   H22   S    
H13   C43   S    
C37   C51   A    
C36   C40   A    
C27   C49   A    
C29   C31   A    
C30   C32   A    
C38   C46   A    
C54   O17   A    
C28   C50   A    
C57   H27   S    
C32   C34   A    
C26   C50   A    
C41   C43   A    
O22   C58   S    
C34   C36   A    
O13   V3    S    
C25   C41   A    
C8    C12   A    
C57   H28   S    
C21   O21   S    
O21   C57   S    
C29   H19   S    
C51   C56   S    
C20   H2    S    
C30   C52   A    
C25   H15   S    
C58   H32   S    
C27   C47   A    
O5    V1    S    
O6    V2    S    
C6    C53   S    
O11   V4    S    
C5    C21   A    
O11   C55   A    
C7    C13   A    
H12   C50   S    
O20   V3    S    
O17   V3    S    
C35   C39   A    
C3    C8    S    
C31   C33   A    
C44   C46   A    
C48   H18   S    
C5    C54   S    
C53   O18   A    
C47   H17   S    
C15   C23   A    
O16   C56   A    
C9    C17   A    
C19   H1    S    
C39   C41   A    
C36   C38   A    
O4    V2    S    
C26   H16   S    
H14   C44   S    
C30   H20   S    
C9    H3    S    
O6    C4    A    
C10   H4    S    
C33   C35   A    
O19   V3    S    
O1    V2    S    
O14   C54   A    
O2    V1    S    
C6    C22   A    
C33   H21   S    
O4    C2    A    
C9    C11   A    
C13   C15   A    
C5    C19   A    
C10   C12   A    
C6    C20   A    
C25   C49   A    
C13   H9    S    
O3    V1    S    
C7    C11   A    
C43   C45   A    
C58   H30   S    
O14   V4    S    
C10   C18   A    
C11   H7    S    
C14   C16   A    
C26   C42   A    
O3    C1    A    
O12   C56   A    
C40   C48   A    
C38   C52   A    
O18   V4    S    
O16   V4    S    
C57   H29   S    
C52   C55   S    
C46   H26   S    
C16   C18   A    
O7    V1    S    
O15   V3    S    
C1    O8    A    
C17   C19   A    
O8    V2    S    
C18   C20   A    
C8    C14   A    
C12   H8    S    
C4    C7    S    
C21   C23   A    
H11   C49   S    
O19   V4    S    
C22   C24   A    
C23   H5    S    
C31   H23   S    
C14   H10   S    
C45   H25   S    
O12   V3    S    
C39   C47   A    
C16   C24   A    
O13   C53   A    
O9    V2    S    
C40   C42   A    
O10   V1    S    
C42   C44   A    
O15   C55   A    
C58   H31   S    
