data_mof_unit_36062.cif
_audit_creation_date              2012-12-10T20:34:47-0500
_audit_creation_method            fapswitch 2.2
_symmetry_space_group_name_H-M    P1
_symmetry_Int_Tables_number       1
_space_group_crystal_system       triclinic
_cell_length_a                    10.658226
_cell_length_b                    10.676036
_cell_length_c                    9.861359
_cell_angle_alpha                 89.411638
_cell_angle_beta                  90.17852
_cell_angle_gamma                 90.271788
_cell_volume                      1122.02335367

loop_
_atom_site_label
_atom_site_type_symbol
_atom_type_description
_atom_site_fract_x
_atom_site_fract_y
_atom_site_fract_z
_atom_type_partial_charge
C1    C     C_R   0.506271 0.260182 0.500768 0.908399
C2    C     C_3   0.878211 0.502793 0.499820 -0.040533
C3    C     C_3   0.930180 0.585600 0.617068 -0.493633
C4    C     C_3   0.929968 0.560639 0.362957 -0.174882
C5    C     C_R   0.530335 0.062486 0.624053 0.036807
C6    C     C_R   0.531681 0.129734 0.502546 -0.097795
C7    C     C_R   0.561106 0.068652 0.381635 -0.228070
C8    C     C_R   0.560488 0.938466 0.378617 0.074382
C9    C     C_R   0.527705 0.871834 0.498224 -0.115328
C10   C     C_R   0.524003 0.935159 0.620892 -0.000872
C11   C     C_3   0.438155 0.927991 0.741645 -0.074107
C12   C     C_R   0.257726 0.502007 0.499745 0.844717
C13   C     C_3   0.448084 0.070603 0.746665 -0.192620
C14   C     C_R   0.390281 0.488327 0.070982 0.222084
C15   C     C_R   0.607207 0.522025 0.071993 -0.105010
C16   C     C_R   0.607248 0.521825 0.928163 -0.120706
C17   C     C_R   0.390073 0.489280 0.928384 0.203171
C18   C     C_3   0.299988 0.382342 0.923096 -0.471684
C19   C     C_3   0.301636 0.380113 0.076765 -0.488797
C20   C     C_R   0.505226 0.740175 0.499115 0.872008
C21   C     C_R   0.741881 0.505224 0.500078 0.884169
C22   C     C_3   0.071320 0.357376 0.501582 0.104889
C23   C     C_3   0.922684 0.361569 0.520729 0.098494
C24   C     C_3   0.072252 0.569334 0.625922 -0.420160
C25   C     C_3   0.072827 0.572055 0.372750 -0.425277
C26   C     C_3   0.121138 0.498154 0.499347 0.087213
H1    H     H_    0.117309 0.663359 0.633308 0.176728
H2    H     H_    0.908056 0.685992 0.598802 0.184157
H3    H     H_    0.576184 0.120597 0.288020 0.196135
H4    H     H_    0.479787 0.877035 0.829898 0.188788
H5    H     H_    0.358681 0.120947 0.726936 0.148041
H6    H     H_    0.694155 0.538065 0.125850 0.165938
H7    H     H_    0.694229 0.537571 0.874507 0.150885
H8    H     H_    0.207577 0.410023 0.880938 0.194561
H9    H     H_    0.340756 0.297890 0.876811 0.227405
H10   H     H_    0.209931 0.406074 0.120529 0.182402
H11   H     H_    0.344922 0.294369 0.121110 0.246816
H12   H     H_    0.095619 0.517201 0.720405 0.193947
H13   H     H_    0.887831 0.562155 0.717000 0.186577
H14   H     H_    0.102558 0.671956 0.382084 0.189962
H15   H     H_    0.114564 0.539778 0.276386 0.180442
H16   H     H_    0.907263 0.497676 0.277527 0.147926
N1    N     N_R   0.499150 0.499140 0.142800 -0.109820
N2    N     N_R   0.499150 0.499180 0.857150 -0.114179
O1    O     O_R   0.500020 0.316790 0.614690 -0.617546
O2    O     O_R   0.500000 0.316760 0.385350 -0.620969
O3    O     O_R   0.314800 0.500000 0.614670 -0.628373
O4    O     O_R   0.314790 0.499960 0.385330 -0.634187
O5    O     O_R   0.500000 0.683240 0.614650 -0.634570
O6    O     O_R   0.499980 0.683210 0.385310 -0.588300
O7    O     O_R   0.685210 0.500040 0.614670 -0.617006
O8    O     O_R   0.685200 0.500000 0.385330 -0.638249
Zn1   Zn    Zn3+2 0.500010 0.500020 0.653130 0.944167
Zn2   Zn    Zn3+2 0.499990 0.499980 0.346870 0.956886
N3    N     N_3   0.129960 0.287305 0.615197 -0.487238
H17   H     H_    0.226294 0.278086 0.599171 0.180728
H18   H     H_    0.095437 0.195356 0.615061 0.199324
C27   C     C_2   0.873827 0.686613 0.324301 0.420319
H19   H     H_    0.814988 0.737375 0.394297 0.056337
O9    O     O_2   0.894962 0.732825 0.212882 -0.584607
N4    N     N_3   0.585773 0.876251 0.253549 -0.414916
H20   H     H_    0.520125 0.906466 0.181480 0.230028
H21   H     H_    0.674725 0.904243 0.220268 0.214649
N5    N     N_3   0.310033 0.886837 0.709525 -0.442922
H22   H     H_    0.307760 0.789042 0.709728 0.204719
H23   H     H_    0.283873 0.917786 0.612450 0.182515
C28   C     C_2   0.519061 0.116853 0.868511 0.394489
H24   H     H_    0.604419 0.171567 0.856097 0.138896
O10   O     O_2   0.478879 0.096548 0.982422 -0.611708
N6    N     N_3   0.104609 0.292100 0.375161 -0.479150
H25   H     H_    0.201979 0.287194 0.364518 0.198299
H26   H     H_    0.069227 0.337654 0.289476 0.174596
N7    N     N_3   0.856877 0.277550 0.424950 -0.422626
H27   H     H_    0.892641 0.186679 0.433844 0.223240
H28   H     H_    0.865675 0.305839 0.324061 0.172098
C29   C     C_2   0.885096 0.317078 0.663915 0.439972
H29   H     H_    0.931687 0.354755 0.752636 0.060767
O11   O     O_2   0.803341 0.237948 0.681351 -0.593235

loop_
_geom_bond_atom_site_label_1
_geom_bond_atom_site_label_2
_ccdc_geom_bond_type
N3    H17   S    
C7    H3    S    
N7    H27   S    
C24   H1    S    
C23   C29   S    
C12   O4    A    
C4    C25   S    
C15   H6    S    
O4    Zn2   S    
O6    Zn2   S    
C3    H2    S    
C24   C26   S    
C19   H10   S    
C25   H14   S    
C13   C28   S    
C5    C6    A    
C1    O2    A    
C27   O9    D    
C15   C16   A    
C18   C19   S    
N4    H21   S    
C20   O6    A    
C9    C20   S    
N2    Zn1   S    
C11   H4    S    
C8    C9    A    
C24   H12   S    
N6    H25   S    
C19   H11   S    
C18   H9    S    
C16   N2    A    
C5    C13   S    
C8    N4    S    
O3    Zn1   S    
O1    Zn1   S    
N7    H28   S    
C14   C17   A    
C3    C24   S    
C23   N7    S    
C12   O3    A    
O8    Zn2   S    
C28   H24   S    
C7    C8    A    
C29   H29   S    
C11   N5    S    
C25   H15   S    
C27   H19   S    
C1    C6    S    
C12   C26   S    
C28   O10   D    
N5    H23   S    
C2    C4    S    
C20   O5    A    
C16   H7    S    
N1    Zn2   S    
O2    Zn2   S    
C2    C21   S    
C17   C18   S    
C18   H8    S    
C6    C7    A    
N3    H18   S    
C21   O7    A    
C9    C10   A    
C14   C19   S    
C13   H5    S    
C29   O11   D    
C22   N3    S    
N5    H22   S    
C2    C3    S    
C25   C26   S    
C17   N2    A    
C15   N1    A    
C5    C10   A    
C11   C13   S    
C1    O1    A    
C4    H16   S    
O5    Zn1   S    
N4    H20   S    
C10   C11   S    
C3    H13   S    
C22   C26   S    
C4    C27   S    
C2    C23   S    
C22   C23   S    
N6    H26   S    
O7    Zn1   S    
C22   N6    S    
C21   O8    A    
C14   N1    A    
