data_mof_unit_39933.cif
_audit_creation_date              2013-03-05T15:55:20-0500
_audit_creation_method            fapswitch 2.2
_symmetry_space_group_name_H-M    P1
_symmetry_Int_Tables_number       1
_space_group_crystal_system       triclinic
_cell_length_a                    27.690965
_cell_length_b                    10.611917
_cell_length_c                    9.9139
_cell_angle_alpha                 89.358059
_cell_angle_beta                  90.680241
_cell_angle_gamma                 90.366686
_cell_volume                      2912.79601043

loop_
_atom_site_label
_atom_site_type_symbol
_atom_site_description
_atom_site_fract_x
_atom_site_fract_y
_atom_site_fract_z
_atom_type_partial_charge
O1    O     O_R   0.500000 0.316780 0.614690 -0.570990
O2    O     O_R   0.500000 0.316750 0.385360 -0.637328
C1    C     C_R   0.499349 0.260875 0.500168 0.925334
O3    O     O_R   0.428760 0.500030 0.614650 -0.611684
O4    O     O_R   0.428750 0.500010 0.385320 -0.646168
C2    C     C_R   0.406093 0.499172 0.499291 0.953962
Zn1   Zn    Zn3+2 0.500000 0.500020 0.653130 1.033224
Zn2   Zn    Zn3+2 0.500000 0.499980 0.346870 0.978062
O5    O     O_R   0.500000 0.683250 0.614640 -0.605073
O6    O     O_R   0.500000 0.683220 0.385310 -0.618480
O7    O     O_R   0.571250 0.499990 0.614680 -0.574325
O8    O     O_R   0.571240 0.499970 0.385350 -0.623848
C3    C     C_R   0.500624 0.739310 0.499584 0.931745
C4    C     C_R   0.593883 0.497736 0.500746 0.865766
C5    C     C_R   0.177246 0.380183 0.464571 0.593746
O9    O     O_2   0.202124 0.274253 0.439164 -0.492793
N1    N     N_R   0.201381 0.489737 0.491942 -0.351469
C6    C     C_R   0.177745 0.600090 0.513674 0.591040
C7    C     C_R   0.278033 0.473060 0.618852 0.449403
C8    C     C_R   0.328348 0.476807 0.618828 -0.234047
C9    C     C_R   0.327754 0.510676 0.376092 -0.161376
C10   C     C_R   0.277678 0.507790 0.375357 -0.122406
C11   C     C_R   0.252788 0.489555 0.495854 0.178036
C12   C     C_R   0.101579 0.489147 0.491584 -0.054477
C13   C     C_R   0.126774 0.377597 0.464329 -0.033384
C14   C     C_R   0.101048 0.267310 0.434934 -0.100052
C15   C     C_R   0.127293 0.601985 0.514038 -0.033547
C16   C     C_R   0.353370 0.495928 0.497956 -0.067365
H1    H     H_    0.346324 0.525247 0.281592 0.177915
H2    H     H_    0.258009 0.520257 0.281116 0.179867
H3    H     H_    0.119451 0.182093 0.406222 0.201738
C17   C     C_R   0.646479 0.489255 0.502363 -0.112888
C18   C     C_R   0.974841 0.369543 0.503408 -0.028734
C19   C     C_R   0.974513 0.601709 0.495676 -0.000647
C20   C     C_R   0.949269 0.485428 0.498153 0.057402
C21   C     C_R   0.948771 0.256716 0.531838 0.248859
C22   C     C_R   0.898651 0.257296 0.529254 -0.062617
C23   C     C_R   0.873216 0.369326 0.509610 -0.089272
C24   C     C_R   0.898223 0.485038 0.497661 -0.079583
C25   C     C_R   0.872213 0.599672 0.485979 -0.170839
C26   C     C_R   0.821481 0.593240 0.496564 0.611627
N2    N     N_R   0.798453 0.479310 0.504072 -0.360676
C27   C     C_R   0.822891 0.368527 0.508138 0.623708
C28   C     C_R   0.721787 0.463872 0.627556 0.503435
C29   C     C_R   0.671486 0.469067 0.624627 -0.214546
C30   C     C_R   0.672050 0.501446 0.381724 -0.087555
C31   C     C_R   0.722041 0.495400 0.383608 -0.056096
C32   C     C_R   0.746998 0.477023 0.505543 0.153079
O10   O     O_2   0.798379 0.258179 0.512021 -0.447136
C33   C     C_R   0.025290 0.372435 0.482632 0.061746
C34   C     C_R   0.050627 0.487977 0.495219 0.090376
C35   C     C_R   0.025402 0.602473 0.509068 0.067424
C36   C     C_R   0.050965 0.265573 0.441491 -0.142046
H4    H     H_    0.651891 0.459213 0.717948 0.232465
H5    H     H_    0.879552 0.169853 0.549553 0.254321
H6    H     H_    0.032603 0.181174 0.408538 0.194780
O11   O     O_2   0.203121 0.707168 0.535286 -0.493832
C37   C     C_R   0.102200 0.713330 0.537469 -0.093290
H7    H     H_    0.348051 0.464007 0.712856 0.195088
H8    H     H_    0.121212 0.800803 0.557554 0.206964
C38   C     C_R   0.948392 0.713651 0.475146 -0.237143
C39   C     C_R   0.898104 0.714423 0.466012 0.382188
O12   O     O_2   0.794944 0.698592 0.504550 -0.370762
C40   C     C_R   0.052048 0.713941 0.534415 -0.190202
H9    H     H_    0.967005 0.801889 0.458986 0.201924
H10   H     H_    0.653559 0.517077 0.286186 0.188228
H11   H     H_    0.741647 0.506611 0.290309 0.163536
H12   H     H_    0.034939 0.802359 0.556404 0.181545
C41   C     C_R   0.587598 0.135026 0.446131 -0.236654
H13   H     H_    0.587723 0.236400 0.434972 0.171422
C42   C     C_R   0.631337 0.072772 0.430937 0.227964
C43   C     C_R   0.633370 0.941676 0.450644 0.375071
C44   C     C_R   0.590305 0.874082 0.470868 -0.262641
H14   H     H_    0.592218 0.772654 0.481238 0.162504
C45   C     C_R   0.545516 0.936644 0.480548 0.008782
C46   C     C_R   0.544602 0.067859 0.474519 0.068427
C47   C     C_R   0.500576 0.128656 0.498925 -0.130009
C48   C     C_R   0.457385 0.063607 0.522478 0.181954
C49   C     C_R   0.457691 0.933528 0.520787 0.229829
C50   C     C_R   0.501488 0.871908 0.499550 -0.172192
H15   H     H_    0.535447 0.675333 0.124234 0.162487
C51   C     C_R   0.445836 0.317031 0.133230 -0.144172
H16   H     H_    0.433259 0.327926 0.234351 0.211034
C52   C     C_R   0.428271 0.214770 0.059358 -0.202516
H17   H     H_    0.403506 0.148118 0.105276 0.206704
C53   C     C_R   0.447364 0.190752 0.932523 -0.181438
H18   H     H_    0.441040 0.099236 0.888161 0.208179
C54   C     C_R   0.482647 0.272067 0.879531 0.457700
C55   C     C_R   0.485063 0.394710 0.931593 0.051456
C56   C     C_R   0.477116 0.404927 0.072053 0.143456
N3    N     N_R   0.499540 0.498800 0.142780 -0.115027
C57   C     C_R   0.519253 0.597002 0.071005 -0.071168
H19   H     H_    0.531083 0.680799 0.873442 0.169728
C58   C     C_R   0.517021 0.599764 0.927571 -0.044265
N4    N     N_R   0.499520 0.498720 0.857170 -0.116263
S1    S     S_3+6 0.247484 0.446999 0.772551 0.076574
O13   O     O_2   0.217774 0.560519 0.804975 -0.272145
O14   O     O_2   0.214374 0.335048 0.758894 -0.213364
O15   O     O_3   0.286857 0.419112 0.899865 -0.521059
H20   H     H_    0.299388 0.503186 0.925787 0.354549
S2    S     S_3+6 0.870748 0.860615 0.420052 0.125243
O16   O     O_2   0.847605 0.915828 0.542150 -0.156594
O17   O     O_2   0.907631 0.952865 0.367561 -0.294671
O18   O     O_3   0.828419 0.838744 0.299274 -0.404183
H21   H     H_    0.845168 0.793203 0.226964 0.348486
Br1   Br    Br    0.397956 0.152963 0.553797 -0.444539
Br2   Br    Br    0.686019 0.172105 0.377423 -0.346703
S3    S     S_3+6 0.688619 0.858952 0.453808 0.115611
O19   O     O_2   0.685061 0.750601 0.551847 -0.319707
O20   O     O_2   0.697913 0.808614 0.315559 -0.211458
O21   O     O_3   0.735434 0.950738 0.500964 -0.354875
H22   H     H_    0.730950 0.964641 0.598791 0.384854
Br3   Br    Br    0.398369 0.839769 0.547587 -0.401838
S4    S     S_3+6 0.538862 0.195987 0.858570 0.046675
O22   O     O_2   0.559264 0.165337 0.996163 -0.258483
O23   O     O_2   0.531606 0.075088 0.783402 -0.334110
O24   O     O_3   0.578607 0.289018 0.777587 -0.532679
H23   H     H_    0.605222 0.232413 0.752101 0.379304
S5    S     S_3+6 0.752109 0.444132 0.784377 0.070911
O25   O     O_2   0.771314 0.312208 0.794469 -0.238254
O26   O     O_2   0.793443 0.536126 0.794750 -0.270350
O27   O     O_3   0.713884 0.468028 0.912117 -0.534495
H24   H     H_    0.733328 0.452826 0.995166 0.393331
Br4   Br    Br    0.976950 0.105678 0.608276 -0.448238

loop_
_geom_bond_atom_site_label_1
_geom_bond_atom_site_label_2
_geom_bond_distance
_ccdc_geom_bond_type
H19   C58   1.081392 S    
C42   Br2   1.916104 S    
C26   N2    1.364959 A    
C20   C24   1.413429 A    
C7    C8    1.393589 A    
C12   C15   1.407735 A    
S4    O22   1.503270 D    
C47   C48   1.397819 A    
Zn1   O7    2.013909 S    
N1    C11   1.423579 S    
C40   H12   1.079388 S    
C21   C22   1.387858 A    
C21   Br4   1.930507 S    
C52   C53   1.396529 A    
C30   H10   1.082979 S    
C23   C24   1.410378 A    
O7    C4    1.298777 A    
C53   C54   1.402298 A    
C36   H6    1.078991 S    
C37   H8    1.083447 S    
C5    O9    1.349824 S    
S1    O15   1.682992 S    
C18   C21   1.421393 A    
C25   C39   1.422265 A    
S3    O19   1.500753 D    
C41   C46   1.413302 A    
C5    N1    1.365541 A    
C19   C20   1.414421 A    
C44   H14   1.081667 S    
C41   C42   1.393875 A    
O5    C3    1.280794 A    
H15   C57   1.081651 S    
C52   H17   1.082490 S    
C2    C16   1.460037 S    
C43   S3    1.768516 S    
S1    O14   1.502345 D    
C45   C50   1.409132 A    
C38   C39   1.394470 A    
C39   S2    1.783031 S    
C12   C34   1.411772 A    
C3    C50   1.407166 S    
C14   H3    1.083335 S    
S2    O17   1.503547 D    
C9    C10   1.386746 A    
C44   C45   1.415267 A    
C41   H13   1.080201 S    
O3    Zn1   2.004804 S    
C31   H11   1.083091 S    
O18   H21   0.990503 S    
C33   C34   1.414758 A    
S5    O26   1.502924 D    
C37   C40   1.388766 A    
C33   C36   1.409045 A    
C34   C35   1.414171 A    
S2    O16   1.502783 D    
C12   C13   1.408288 A    
O3    C2    1.298127 A    
C35   C40   1.413476 A    
N3    C57   1.369536 A    
C53   H18   1.082972 S    
C27   O10   1.350142 S    
C8    C16   1.403442 A    
C28   S5    1.769166 S    
C18   C33   1.414575 A    
C9    H1    1.083155 S    
O6    C3    1.285526 A    
C19   C38   1.406354 A    
O1    C1    1.286774 A    
C55   N4    1.380576 A    
C7    C11   1.408116 A    
C45   C46   1.393431 A    
C22   C23   1.396284 A    
C6    O11   1.350014 S    
C31   C32   1.397705 A    
Zn2   O8    2.004801 S    
S1    O13   1.503003 D    
C57   C58   1.422584 A    
N1    C6    1.365647 A    
Zn2   N3    2.023395 S    
N2    C32   1.425135 S    
C46   C47   1.407693 A    
C8    H7    1.082182 S    
C25   C26   1.411150 A    
C9    C16   1.401451 A    
O8    C4    1.298098 A    
C29   H4    1.081814 S    
S2    O18   1.682532 S    
C51   C52   1.397550 A    
C49   Br3   1.934559 S    
N2    C27   1.360185 A    
C26   O12   1.345360 S    
C1    C47   1.403919 S    
C14   C36   1.389118 A    
C24   C25   1.420591 A    
C28   C29   1.394280 A    
S5    O27   1.682550 S    
Zn1   O5    1.977312 S    
C30   C31   1.386079 A    
C10   H2    1.083108 S    
O21   H22   0.992019 S    
O1    Zn1   1.985705 S    
C17   C30   1.401426 A    
O2    Zn2   1.977309 S    
C6    C15   1.397381 A    
C4    C17   1.459660 S    
C43   C44   1.402975 A    
C15   C37   1.397656 A    
O4    Zn2   2.013911 S    
S4    O23   1.502088 D    
S5    O25   1.502607 D    
Zn1   N4    2.022925 S    
C19   C35   1.413830 A    
C51   C56   1.406244 A    
S3    O21   1.681498 S    
C48   Br1   1.934514 S    
O2    C1    1.277745 A    
C13   C14   1.397929 A    
C42   C43   1.404062 A    
O15   H20   0.990718 S    
C48   C49   1.380757 A    
C56   N3    1.366377 A    
O4    C2    1.298813 A    
C18   C20   1.423132 A    
S3    O20   1.502215 D    
C54   S4    1.773591 S    
C58   N4    1.368886 A    
C17   C29   1.403846 A    
S4    O24   1.679241 S    
C5    C13   1.397681 A    
C49   C50   1.400731 A    
C22   H5    1.083213 S    
C38   H9    1.077280 S    
C23   C27   1.393432 A    
C54   C55   1.406360 A    
Zn2   O6    1.985704 S    
C51   H16   1.072887 S    
O27   H24   0.990678 S    
C10   C11   1.397205 A    
C55   C56   1.417830 A    
O24   H23   0.990600 S    
C7    S1    1.769768 S    
C28   C32   1.408923 A    
