data_mof_unit_23996.cif
_audit_creation_date              2012-12-11T17:34:19-0500
_audit_creation_method            fapswitch 2.2
_symmetry_space_group_name_H-M    P1
_symmetry_Int_Tables_number       1
_space_group_crystal_system       triclinic
_cell_length_a                    23.725944
_cell_length_b                    7.243667
_cell_length_c                    20.747328
_cell_angle_alpha                 89.876733
_cell_angle_beta                  105.136278
_cell_angle_gamma                 90.115451
_cell_volume                      3441.97991138

loop_
_atom_site_label
_atom_site_type_symbol
_atom_type_description
_atom_site_fract_x
_atom_site_fract_y
_atom_site_fract_z
_atom_type_partial_charge
O1    O     O_R   0.449110 0.494310 0.552140 -0.535501
O2    O     O_R   0.550890 0.994310 0.447860 -0.537931
O3    O     O_R   0.440010 0.824420 0.415850 -0.535073
O4    O     O_R   0.559990 0.324420 0.584150 -0.534762
C1    C     C_R   0.425444 0.655510 0.391368 0.678620
C2    C     C_R   0.574557 0.155432 0.608642 0.680780
O5    O     O_R   0.442260 0.824040 0.549660 -0.538202
O6    O     O_R   0.557740 0.324040 0.450340 -0.540297
O7    O     O_R   0.553160 0.993960 0.582620 -0.532666
O8    O     O_R   0.446840 0.493960 0.417380 -0.532500
C3    C     C_R   0.428430 0.655300 0.567037 0.692633
C4    C     C_R   0.571820 0.155473 0.433020 0.692684
O9    O     O_3   0.536380 0.660670 0.510660 -0.375347
O10   O     O_3   0.463620 0.160670 0.489340 -0.373142
V1    V     V_3+5 0.493250 0.935680 0.498020 1.410223
V2    V     V_3+5 0.506750 0.435680 0.501980 1.408561
C5    C     C_R   0.845000 0.908572 0.194093 -0.142459
C6    C     C_R   0.155244 0.415600 0.805585 -0.143865
H1    H     H_    0.843105 0.790881 0.225778 0.116182
H2    H     H_    0.157156 0.299282 0.773489 0.115817
C7    C     C_R   0.882745 0.904208 0.152080 -0.237870
C8    C     C_R   0.117493 0.408514 0.847620 -0.238251
H3    H     H_    0.909671 0.783148 0.153066 0.128586
H4    H     H_    0.090557 0.286942 0.846214 0.128296
C9    C     C_R   0.886482 0.054913 0.110168 -0.095529
C10   C     C_R   0.113745 0.557341 0.890069 -0.097019
C11   C     C_R   0.850134 0.209776 0.110584 0.271309
C12   C     C_R   0.150204 0.712826 0.890303 0.274401
C13   C     C_R   0.813400 0.214154 0.153983 -0.191395
C14   C     C_R   0.186950 0.719885 0.846939 -0.190719
C15   C     C_R   0.810400 0.064124 0.195478 0.082980
C16   C     C_R   0.189858 0.572023 0.804731 0.084181
C17   C     C_1   0.771218 0.071578 0.238653 -0.045673
C18   C     C_1   0.229214 0.581988 0.761699 -0.047185
C19   C     C_1   0.738090 0.084977 0.274108 -0.016444
C20   C     C_1   0.262704 0.596091 0.726622 -0.015943
C21   C     C_R   0.680175 0.954156 0.345863 -0.230606
C22   C     C_R   0.305827 0.481260 0.638299 -0.216764
C23   C     C_R   0.639691 0.970242 0.383715 -0.170344
C24   C     C_R   0.346496 0.493400 0.600202 -0.167287
C25   C     C_R   0.616068 0.142975 0.393359 -0.080592
C26   C     C_R   0.384819 0.644655 0.607138 -0.081541
C27   C     C_R   0.635124 0.299943 0.364538 -0.243635
C28   C     C_R   0.381676 0.783458 0.653384 -0.235577
H5    H     H_    0.617954 0.434901 0.371305 0.123359
H6    H     H_    0.411285 0.900098 0.659851 0.120889
C29   C     C_R   0.676436 0.283809 0.326468 0.328975
C30   C     C_R   0.341464 0.771222 0.692755 0.327301
C31   C     C_R   0.698292 0.108464 0.316227 0.101086
C32   C     C_R   0.303310 0.617700 0.685284 0.086314
C33   C     C_R   0.636156 0.108209 0.793724 -0.145662
C34   C     C_R   0.363833 0.609719 0.206301 -0.145302
H7    H     H_    0.715352 0.031283 0.904505 0.127425
H8    H     H_    0.284633 0.532951 0.095556 0.127576
H9    H     H_    0.619057 0.095388 0.837145 0.112670
H10   H     H_    0.380928 0.597542 0.162882 0.113386
C35   C     C_R   0.617353 0.145170 0.674316 -0.032009
C36   C     C_R   0.382643 0.645531 0.325704 -0.031557
C37   C     C_R   0.903296 0.086808 0.770629 -0.183048
C38   C     C_R   0.096680 0.585886 0.229358 -0.183064
C39   C     C_R   0.866489 0.118726 0.707723 -0.115431
C40   C     C_R   0.133492 0.617520 0.292263 -0.115561
C41   C     C_R   0.806349 0.127566 0.698417 -0.140814
C42   C     C_R   0.193638 0.626698 0.301584 -0.141174
C43   C     C_R   0.780810 0.100456 0.752148 0.029189
C44   C     C_R   0.219176 0.600229 0.247871 0.029282
C45   C     C_R   0.818763 0.061671 0.817132 0.033237
C46   C     C_R   0.181216 0.561720 0.182893 0.033203
C47   C     C_R   0.718767 0.111663 0.743178 0.070157
C48   C     C_R   0.281223 0.611846 0.256847 0.070252
C49   C     C_R   0.696346 0.094273 0.799910 0.103819
C50   C     C_R   0.303642 0.595230 0.200121 0.103432
C51   C     C_R   0.733480 0.054268 0.862253 -0.269980
C52   C     C_R   0.266505 0.555430 0.137793 -0.270159
C53   C     C_R   0.793234 0.027944 0.870731 0.226521
C54   C     C_R   0.206743 0.528640 0.129318 0.226869
C55   C     C_R   0.677730 0.136407 0.679912 -0.202095
C56   C     C_R   0.322265 0.636264 0.320112 -0.202419
C57   C     C_R   0.597085 0.133101 0.731501 -0.164903
C58   C     C_R   0.402907 0.634349 0.268520 -0.163933
C59   C     C_R   0.880863 0.059484 0.825887 -0.079735
C60   C     C_R   0.119115 0.559175 0.174121 -0.079803
H11   H     H_    0.950066 0.086616 0.776519 0.099714
H12   H     H_    0.049908 0.585421 0.223453 0.099742
H13   H     H_    0.884900 0.140764 0.665750 0.116605
H14   H     H_    0.115080 0.639080 0.334219 0.116527
O11   O     O_R   0.053190 0.709680 0.082610 -0.538850
O12   O     O_R   0.946810 0.209680 0.917390 -0.539069
O13   O     O_R   0.057740 0.380240 0.950340 -0.544044
O14   O     O_R   0.942260 0.880240 0.049660 -0.544195
C61   C     C_R   0.071431 0.548893 0.932508 0.735456
C62   C     C_R   0.928617 0.048380 0.067543 0.735857
O15   O     O_R   0.060000 0.379940 0.084150 -0.528910
O16   O     O_R   0.940000 0.879940 0.915850 -0.528919
O17   O     O_R   0.949110 0.210100 0.052140 -0.516228
O18   O     O_R   0.050890 0.710100 0.947860 -0.516671
C63   C     C_R   0.075323 0.548660 0.108368 0.755605
C64   C     C_R   0.924666 0.048724 0.891634 0.755277
O19   O     O_3   0.963630 0.543720 0.989330 -0.377441
O20   O     O_3   0.036370 0.043720 0.010670 -0.377677
V3    V     V_3+5 0.006750 0.268680 0.001980 1.418567
V4    V     V_3+5 0.993250 0.768680 0.998020 1.418875
H15   H     H_    0.690856 0.143683 0.634016 0.090911
H16   H     H_    0.309139 0.642881 0.366009 0.090153
H17   H     H_    0.781068 0.158600 0.648469 0.107213
H18   H     H_    0.218927 0.657503 0.351524 0.106921
N1    N     N_2   0.825719 0.948652 0.931696 -0.531215
H19   H     H_    0.814929 0.001000 0.973002 0.251580
C65   C     C_3   0.823553 0.749180 0.931208 -0.483244
H20   H     H_    0.851276 0.695264 0.979041 0.220467
H21   H     H_    0.840039 0.693240 0.889748 0.205109
H22   H     H_    0.777955 0.701101 0.925108 0.169798
N2    N     N_2   0.174252 0.449483 0.068394 -0.530920
H23   H     H_    0.185054 0.502295 0.027067 0.252040
C66   C     C_3   0.176428 0.250033 0.068986 -0.483264
H24   H     H_    0.148739 0.196144 0.021170 0.220102
H25   H     H_    0.159914 0.193550 0.110455 0.205209
H26   H     H_    0.222034 0.202497 0.075147 0.169890
N3    N     N_2   0.847676 0.357606 0.064919 -0.502622
H27   H     H_    0.859710 0.483061 0.087874 0.248735
C67   C     C_3   0.794330 0.366936 0.011439 -0.586143
H28   H     H_    0.805598 0.370044 0.962826 0.213545
H29   H     H_    0.769534 0.493580 0.016577 0.187885
H30   H     H_    0.765254 0.246204 0.011377 0.193203
N4    N     N_2   0.152682 0.858740 0.936526 -0.502861
H31   H     H_    0.139892 0.984462 0.914067 0.248511
C68   C     C_3   0.206407 0.868939 0.989423 -0.587497
H32   H     H_    0.195676 0.871921 0.038326 0.213717
H33   H     H_    0.230990 0.995953 0.983698 0.187687
H34   H     H_    0.235430 0.748557 0.989318 0.193985
H35   H     H_    0.786052 0.333915 0.153984 0.136652
H36   H     H_    0.214383 0.840047 0.847580 0.123782
H37   H     H_    0.697217 0.820332 0.339456 0.139041
H38   H     H_    0.276540 0.363837 0.631392 0.126807
H39   H     H_    0.626941 0.845935 0.405384 0.138076
H40   H     H_    0.347619 0.384824 0.564744 0.133067
N5    N     N_2   0.694439 0.443081 0.296818 -0.522555
H41   H     H_    0.664059 0.547893 0.287332 0.249010
C69   C     C_3   0.752959 0.506650 0.328988 -0.577103
H42   H     H_    0.764298 0.624701 0.300480 0.197324
H43   H     H_    0.785665 0.396536 0.330478 0.210455
H44   H     H_    0.755633 0.551622 0.380885 0.189031
N6    N     N_2   0.342081 0.908533 0.742097 -0.522170
H45   H     H_    0.380564 0.981783 0.757844 0.251797
C70   C     C_3   0.290187 0.021581 0.732804 -0.542260
H46   H     H_    0.301760 0.169507 0.730436 0.189968
H47   H     H_    0.271400 0.002253 0.776015 0.204907
H48   H     H_    0.256461 0.986092 0.686200 0.189353
H49   H     H_    0.550701 0.138993 0.727745 0.102134
H50   H     H_    0.449291 0.640727 0.272274 0.104147

loop_
_geom_bond_atom_site_label_1
_geom_bond_atom_site_label_2
_ccdc_geom_bond_type
C44   C46   A    
C41   C43   A    
C53   N1    S    
O18   V4    S    
C11   C13   A    
C51   C53   A    
C35   C57   A    
C47   C55   A    
O1    C3    A    
O2    C4    A    
C2    O7    A    
O12   V3    S    
O3    V1    S    
C29   C31   A    
C23   H39   S    
O5    C3    A    
C40   H14   S    
C52   C54   A    
C1    C36   S    
C22   C24   A    
C37   H11   S    
C65   H21   S    
C69   H44   S    
C43   C47   A    
C48   C56   A    
C59   C64   S    
O16   C64   A    
C66   H24   S    
C21   C31   A    
C3    C26   S    
C38   C40   A    
C13   H35   S    
C47   C49   A    
O14   V4    S    
C67   H30   S    
C40   C42   A    
C5    H1    S    
C61   O18   A    
H8    C52   S    
C38   C60   A    
C66   H25   S    
C19   C31   S    
O17   V3    S    
N1    H19   S    
C15   C17   S    
C41   H17   S    
C25   C27   A    
C6    H2    S    
C36   C58   A    
C57   H49   S    
C24   C26   A    
O6    V2    S    
N1    C65   S    
C2    C35   S    
C26   C28   A    
C70   H47   S    
C28   H6    S    
C70   H46   S    
N3    C67   S    
C69   H42   S    
C37   C39   A    
C56   H16   S    
C35   C55   A    
C23   C25   A    
C65   H22   S    
O15   V3    S    
C49   C51   A    
O5    V1    S    
C43   C45   A    
C10   C61   S    
C62   O17   A    
C5    C7    A    
C30   N6    S    
C42   C44   A    
O4    V2    S    
C58   H50   S    
C68   H33   S    
C4    C25   S    
C34   C50   A    
O11   V4    S    
N5    C69   S    
O14   C62   A    
O6    C4    A    
C66   H26   S    
C29   N5    S    
C39   C41   A    
C54   N2    S    
O1    V2    S    
C69   H43   S    
O2    V1    S    
C27   H5    S    
C67   H28   S    
C39   H13   S    
C50   C52   A    
C45   C59   A    
C7    H3    S    
N4    H31   S    
C5    C15   A    
C60   C63   S    
C8    H4    S    
C55   H15   S    
O4    C2    A    
C6    C16   A    
C68   H32   S    
O15   C63   A    
C70   H48   S    
C20   C32   S    
C12   N4    S    
N2    H23   S    
N6    C70   S    
C7    C9    A    
C9    C62   S    
O13   V3    S    
C6    C8    A    
H7    C51   S    
C37   C59   A    
O3    C1    A    
N3    H27   S    
C33   C49   A    
C42   H18   S    
C22   C32   A    
C11   N3    S    
C46   C54   A    
N5    H41   S    
C10   C12   A    
C46   C60   A    
C12   C14   A    
O7    V1    S    
C68   H34   S    
C1    O8    A    
C13   C15   A    
O8    V2    S    
C65   H20   S    
C14   C16   A    
C38   H12   S    
C44   C48   A    
C34   H10   S    
C14   H36   S    
C30   C32   A    
O20   V3    S    
C17   C19   T    
C18   C20   T    
C33   H9    S    
C22   H38   S    
C21   H37   S    
C33   C57   A    
C67   H29   S    
C36   C56   A    
C28   C30   A    
O19   V4    S    
C45   C53   A    
O16   V4    S    
C21   C23   A    
O13   C61   A    
C8    C10   A    
O9    V2    S    
N4    C68   S    
O10   V1    S    
C48   C50   A    
C24   H40   S    
N2    C66   S    
C34   C58   A    
C27   C29   A    
O12   C64   A    
N6    H45   S    
C16   C18   S    
O11   C63   A    
C9    C11   A    
