data_mof_unit_60146.cif
_audit_creation_date              2013-03-05T15:40:30-0500
_audit_creation_method            fapswitch 2.2
_symmetry_space_group_name_H-M    P1
_symmetry_Int_Tables_number       1
_space_group_crystal_system       triclinic
_cell_length_a                    10.930453
_cell_length_b                    10.852595
_cell_length_c                    16.037099
_cell_angle_alpha                 91.348832
_cell_angle_beta                  97.73993
_cell_angle_gamma                 98.388096
_cell_volume                      1863.07427312

loop_
_atom_site_label
_atom_site_type_symbol
_atom_site_description
_atom_site_fract_x
_atom_site_fract_y
_atom_site_fract_z
_atom_type_partial_charge
Zn1   Zn    Zn3+2 0.408180 0.591840 0.569080 1.043095
Zn2   Zn    Zn3+2 0.608390 0.616500 0.442190 1.042843
Zn3   Zn    Zn3+2 0.381900 0.393170 0.419650 1.037896
Zn4   Zn    Zn3+2 0.601540 0.398480 0.569080 1.025529
O1    O     O_3   0.500000 0.500000 0.500000 -0.525575
O2    O     O_R   0.777820 0.443700 0.559450 -0.634138
O3    O     O_R   0.228980 0.549520 0.537250 -0.604934
O4    O     O_R   0.592170 0.786730 0.470640 -0.627778
O5    O     O_R   0.401030 0.220040 0.432660 -0.630771
O6    O     O_R   0.566290 0.591070 0.323460 -0.615264
O7    O     O_R   0.580640 0.419420 0.684420 -0.634161
O8    O     O_R   0.407770 0.434760 0.307690 -0.631200
O9    O     O_R   0.445300 0.554750 0.684430 -0.609936
O10   O     O_R   0.452040 0.769470 0.559450 -0.623721
O11   O     O_R   0.554760 0.223750 0.537250 -0.636974
O12   O     O_R   0.782610 0.596300 0.470630 -0.605100
O13   O     O_R   0.210590 0.410470 0.432660 -0.597529
C1    C     C_R   0.837743 0.524048 0.518573 0.899611
C2    C     C_R   0.160506 0.474726 0.482274 0.837241
C3    C     C_R   0.527519 0.835847 0.518770 0.856265
C4    C     C_R   0.472869 0.163068 0.481716 0.905392
C5    C     C_R   0.483845 0.515345 0.275904 0.829809
C6    C     C_R   0.515786 0.484215 0.723970 0.819999
C7    C     C_1   0.476666 0.520826 0.186197 -0.094627
C8    C     C_2   0.464095 0.530810 0.020716 -0.145629
C9    C     C_2   0.534269 0.467111 0.979008 -0.146477
C10   C     C_1   0.527848 0.472856 0.888958 0.034534
C11   C     C_1   0.470813 0.525410 0.110799 0.033655
C12   C     C_1   0.522370 0.477927 0.813604 -0.091352
H1    H     H_    0.597272 0.410269 0.012325 0.175395
H2    H     H_    0.401137 0.587697 0.987399 0.175749
C13   C     C_2   0.024760 0.469380 0.472585 -0.004949
C14   C     C_2   0.971110 0.532539 0.528257 0.043647
C15   C     C_2   0.461491 0.028048 0.474949 -0.323983
H3    H     H_    0.390252 0.976117 0.428089 0.157480
C16   C     C_2   0.538282 0.969298 0.525952 -0.267274
H4    H     H_    0.610854 0.019107 0.572751 0.173265
N1    N     N_R   0.950436 0.398116 0.401443 0.193154
O14   O     O_R   0.973503 0.287778 0.381368 -0.337150
O15   O     O_R   0.869094 0.447976 0.351518 -0.386403
N2    N     N_R   0.038093 0.589673 0.606201 0.214775
O16   O     O_R   0.020341 0.700599 0.629438 -0.371155
O17   O     O_R   0.089018 0.520671 0.662161 -0.353255

loop_
_geom_bond_atom_site_label_1
_geom_bond_atom_site_label_2
_geom_bond_distance
_ccdc_geom_bond_type
C8    H2    1.086569 S    
Zn3   O13   1.947044 S    
Zn3   O5    1.933620 S    
C13   N1    1.444051 S    
C10   C12   1.204820 T    
Zn2   O12   1.942939 S    
N2    O16   1.300869 A    
C15   C16   1.332610 D    
C4    C15   1.452613 S    
C14   N2    1.437890 S    
C13   C14   1.356594 D    
Zn4   O11   1.928502 S    
O12   C1    1.269100 A    
O6    C5    1.280010 A    
Zn4   O7    1.906428 S    
N1    O15   1.301291 A    
N2    O17   1.301810 A    
O5    C4    1.271203 A    
C9    C10   1.439639 S    
O4    C3    1.271504 A    
Zn1   O1    1.940969 S    
C2    C13   1.463368 S    
C6    C12   1.433289 S    
O7    C6    1.282519 A    
C16   H4    1.086359 S    
O13   C2    1.273441 A    
C9    H1    1.086563 S    
O3    C2    1.267942 A    
N1    O14   1.301118 A    
O2    C1    1.262948 A    
C1    C14   1.434159 S    
C5    C7    1.433293 S    
Zn2   O1    1.943116 S    
Zn1   O9    1.905056 S    
C3    C16   1.436464 S    
O8    C5    1.280292 A    
Zn1   O10   1.932412 S    
O11   C4    1.270342 A    
O9    C6    1.282566 A    
O10   C3    1.272366 A    
Zn4   O2    1.945550 S    
C15   H3    1.087709 S    
Zn3   O8    1.909247 S    
Zn3   O1    1.927685 S    
C8    C9    1.335953 D    
Zn1   O3    1.940449 S    
Zn2   O4    1.931395 S    
C7    C11   1.204823 T    
Zn4   O1    1.938052 S    
C8    C11   1.439641 S    
Zn2   O6    1.901489 S    
