data_mof_unit_24020.cif
_audit_creation_date              2012-12-10T18:25:32-0500
_audit_creation_method            fapswitch 2.2
_symmetry_space_group_name_H-M    P1
_symmetry_Int_Tables_number       1
_space_group_crystal_system       triclinic
_cell_length_a                    15.012311
_cell_length_b                    13.985078
_cell_length_c                    19.189934
_cell_angle_alpha                 89.998206
_cell_angle_beta                  90.002997
_cell_angle_gamma                 90.006492
_cell_volume                      4028.89476033

loop_
_atom_site_label
_atom_site_type_symbol
_atom_type_description
_atom_site_fract_x
_atom_site_fract_y
_atom_site_fract_z
_atom_type_partial_charge
C1    C     C_R   0.326422 0.500023 0.500028 0.913443
C2    C     C_R   0.673578 0.500029 0.499946 0.912973
C3    C     C_R   0.815232 0.413087 0.500140 -0.192852
C4    C     C_R   0.184822 0.587274 0.500495 -0.206611
C5    C     C_R   0.907341 0.412415 0.499874 0.102272
C6    C     C_R   0.092683 0.587949 0.500268 0.109162
C7    C     C_R   0.953668 0.500185 0.499855 0.064839
C8    C     C_R   0.046333 0.500184 0.499913 0.064243
C9    C     C_R   0.907339 0.587953 0.499824 0.107429
C10   C     C_R   0.092641 0.412413 0.499593 0.103298
C11   C     C_R   0.953710 0.325576 0.499689 -0.158730
C12   C     C_R   0.046299 0.674779 0.500360 -0.163878
C13   C     C_R   0.046253 0.325575 0.499458 -0.155286
C14   C     C_R   0.953744 0.674781 0.500018 -0.160135
C15   C     C_R   0.554753 0.797667 0.455720 0.054402
C16   C     C_R   0.443760 0.202319 0.543144 0.060848
C17   C     C_R   0.445181 0.797645 0.544228 0.049845
C18   C     C_R   0.556178 0.202343 0.456807 0.058474
C19   C     C_R   0.445039 0.898743 0.547252 -0.121176
C20   C     C_R   0.559828 0.101216 0.456479 -0.116450
C21   C     C_R   0.554716 0.898754 0.452559 -0.113212
C22   C     C_R   0.439937 0.101204 0.543327 -0.109398
C23   C     C_R   0.499864 0.949447 0.499894 -0.009500
C24   C     C_R   0.499868 0.050528 0.499892 -0.016194
C25   C     C_R   0.390536 0.949746 0.595013 0.297513
C26   C     C_R   0.620055 0.050153 0.413113 0.314839
C27   C     C_R   0.609082 0.949771 0.404705 0.260305
C28   C     C_R   0.379588 0.050122 0.586583 0.275830
C29   C     C_R   0.500121 0.499945 0.365342 0.939874
C30   C     C_R   0.499880 0.499942 0.634665 0.945140
C31   C     C_R   0.486059 0.584439 0.252802 -0.199902
C32   C     C_R   0.487030 0.413208 0.746152 -0.221646
C33   C     C_R   0.512698 0.584647 0.747238 -0.209679
C34   C     C_R   0.513979 0.413425 0.253868 -0.226450
C35   C     C_R   0.485575 0.584357 0.180352 0.329049
C36   C     C_R   0.487396 0.411218 0.818525 0.413203
C37   C     C_R   0.513096 0.584559 0.819700 0.404369
C38   C     C_R   0.513428 0.411401 0.181499 0.426295
C39   C     C_R   0.499386 0.497372 0.144820 -0.209267
C40   C     C_R   0.500311 0.497373 0.855195 -0.211938
C41   C     C_R   0.500206 0.499415 0.289570 -0.189318
C42   C     C_R   0.499737 0.499406 0.710451 -0.194947
C43   C     C_R   0.500070 0.496402 0.930238 0.450839
C44   C     C_R   0.499582 0.496434 0.069765 0.438134
C45   C     C_R   0.815199 0.587283 0.499652 -0.205756
C46   C     C_R   0.184750 0.413084 0.499376 -0.192122
C47   C     C_R   0.769446 0.500143 0.499893 -0.092047
C48   C     C_R   0.230555 0.500134 0.499991 -0.090946
H1    H     H_    0.081489 0.257934 0.499260 0.191306
H2    H     H_    0.918505 0.742421 0.499996 0.175855
N1    N     N_R   0.577761 0.494542 0.034719 -0.087305
N2    N     N_R   0.421886 0.498052 0.965273 -0.062743
N3    N     N_R   0.578005 0.494530 0.965615 -0.066294
N4    N     N_R   0.421644 0.498067 0.034378 -0.057406
N5    N     N_R   0.500000 0.750030 0.500000 -0.144797
N6    N     N_R   0.500000 0.249970 0.500000 -0.147637
O1    O     O_R   0.367850 0.580280 0.500020 -0.631330
O2    O     O_R   0.632150 0.419720 0.499980 -0.621226
O3    O     O_R   0.632150 0.580280 0.499980 -0.630493
O4    O     O_R   0.367850 0.419720 0.500020 -0.622205
O5    O     O_R   0.499990 0.580300 0.398140 -0.616987
O6    O     O_R   0.500010 0.419700 0.601860 -0.625511
O7    O     O_R   0.500010 0.580300 0.601860 -0.615681
O8    O     O_R   0.499990 0.419700 0.398140 -0.626589
Zn1   Zn    Zn3+2 0.500000 0.607200 0.500000 0.984615
Zn2   Zn    Zn3+2 0.500000 0.392800 0.500000 0.986562
H3    H     H_    0.474913 0.650705 0.280618 0.227242
H4    H     H_    0.476628 0.347424 0.717535 0.216262
H5    H     H_    0.522987 0.651069 0.719420 0.228375
H6    H     H_    0.525338 0.347819 0.282484 0.215572
S1    S     S_3+6 0.468319 0.693688 0.135369 0.090729
O9    O     O_2   0.380960 0.689043 0.097319 -0.208578
O10   O     O_2   0.466217 0.776789 0.185009 -0.222654
O11   O     O_3   0.550274 0.710677 0.076955 -0.485589
H7    H     H_    0.606019 0.708133 0.104511 0.378692
S2    S     S_3+6 0.472524 0.300352 0.861907 0.082650
O12   O     O_2   0.386100 0.302417 0.901396 -0.230322
O13   O     O_2   0.470717 0.219203 0.810521 -0.230343
O14   O     O_3   0.556812 0.283490 0.918302 -0.510120
H8    H     H_    0.544711 0.220654 0.940141 0.404904
S3    S     S_3+6 0.529173 0.693930 0.864824 0.096102
O15   O     O_2   0.614475 0.688671 0.905644 -0.240590
O16   O     O_2   0.534150 0.776438 0.814779 -0.217685
O17   O     O_3   0.443767 0.711319 0.920086 -0.486522
H9    H     H_    0.459918 0.769339 0.946857 0.429208
S4    S     S_3+6 0.529303 0.300632 0.138202 0.075967
O18   O     O_2   0.617305 0.302296 0.100898 -0.230129
O19   O     O_2   0.528583 0.219280 0.189439 -0.256045
O20   O     O_3   0.447250 0.284475 0.079709 -0.510254
H10   H     H_    0.459873 0.221625 0.058081 0.404862
H11   H     H_    0.779312 0.654604 0.499454 0.177327
H12   H     H_    0.220620 0.345846 0.498626 0.204868
H13   H     H_    0.779349 0.345840 0.500638 0.206309
H14   H     H_    0.220722 0.654593 0.500964 0.175065
H15   H     H_    0.918459 0.257935 0.499660 0.194436
H16   H     H_    0.081555 0.742418 0.500623 0.169367
H17   H     H_    0.599431 0.755419 0.424244 0.191293
H18   H     H_    0.403676 0.244585 0.578191 0.194193
H19   H     H_    0.400641 0.755359 0.575807 0.193053
H20   H     H_    0.596397 0.244652 0.421872 0.195691
S5    S     S_3+6 0.346175 0.889602 0.669553 0.086500
O21   O     O_2   0.261332 0.839694 0.649343 -0.301803
O22   O     O_2   0.411843 0.816585 0.695342 -0.281144
O23   O     O_3   0.325993 0.965974 0.735366 -0.397633
H21   H     H_    0.298173 0.926491 0.772282 0.410123
S6    S     S_3+6 0.714496 0.110333 0.377029 0.059908
O24   O     O_2   0.686600 0.161874 0.311840 -0.247967
O25   O     O_2   0.749630 0.181924 0.428593 -0.358896
O26   O     O_3   0.797761 0.034068 0.358484 -0.439215
H22   H     H_    0.843775 0.073639 0.335310 0.397526
S7    S     S_3+6 0.653165 0.889725 0.330008 0.100779
O27   O     O_2   0.738884 0.841247 0.349674 -0.225408
O28   O     O_2   0.588704 0.815137 0.304703 -0.305822
O29   O     O_3   0.672188 0.965606 0.263680 -0.396275
H23   H     H_    0.612509 0.989478 0.250156 0.385822
S8    S     S_3+6 0.284917 0.110168 0.622427 0.086037
O30   O     O_2   0.312065 0.160318 0.688350 -0.168679
O31   O     O_2   0.250471 0.183340 0.571757 -0.372769
O32   O     O_3   0.200972 0.034323 0.640020 -0.422607
H24   H     H_    0.181255 0.010434 0.593931 0.356877

loop_
_geom_bond_atom_site_label_1
_geom_bond_atom_site_label_2
_ccdc_geom_bond_type
O7    Zn1   S    
C9    C45   A    
S5    O21   D    
C19   C23   A    
S7    O27   D    
S2    O14   S    
C25   S5    S    
C26   S6    S    
S3    O15   D    
C7    C8    A    
C25   C28   A    
C31   H3    S    
C26   C27   A    
C20   C26   A    
C38   S4    S    
C33   C42   A    
C32   C36   A    
S2    O13   D    
C5    C11   A    
C37   C40   A    
C6    C12   A    
C38   C39   A    
S4    O19   D    
C43   N2    A    
C46   H12   S    
S6    O24   D    
S8    O30   D    
C28   S8    S    
S3    O16   D    
C43   N3    A    
C40   C43   S    
C20   C24   A    
N2    N4    A    
C10   C46   A    
C23   C24   A    
C36   S2    S    
C17   N5    A    
C18   C20   A    
C44   N4    A    
C18   N6    A    
C32   H4    S    
C21   C27   A    
C29   O8    A    
O4    Zn2   S    
S5    O22   D    
C22   C28   A    
C30   O7    A    
C37   S3    S    
C34   C41   A    
C18   H20   S    
C15   H17   S    
C19   C25   A    
O23   H21   S    
N5    Zn1   S    
O2    Zn2   S    
O29   H23   S    
C46   C48   A    
C45   C47   A    
C29   O5    A    
O11   H7    S    
O6    Zn2   S    
C36   C40   A    
S2    O12   D    
C4    C6    A    
C1    O4    A    
S1    O10   D    
S4    O18   D    
C34   C38   A    
C6    C8    A    
C3    H13   S    
C33   C37   A    
S4    O20   S    
N1    N3    A    
C15   N5    A    
C35   C39   A    
C9    C14   A    
C16   N6    A    
C1    O1    A    
S7    O28   D    
O17   H9    S    
C17   H19   S    
C4    H14   S    
C44   N1    A    
C12   C14   A    
S5    O23   S    
C30   O6    A    
C13   H1    S    
S3    O17   S    
C5    C7    A    
C4    C48   A    
C11   H15   S    
C7    C9    A    
C34   H6    S    
C16   C22   A    
C31   C41   A    
C29   C41   S    
C2    O3    A    
C30   C42   S    
O1    Zn1   S    
C3    C5    A    
C10   C13   A    
S1    O11   S    
O32   H24   S    
C2    O2    A    
C1    C48   S    
C39   C44   S    
C33   H5    S    
C2    C47   S    
S8    O32   S    
C21   C23   A    
S1    O9    D    
O26   H22   S    
O3    Zn1   S    
C11   C13   A    
C16   H18   S    
C14   H2    S    
S6    O25   D    
N6    Zn2   S    
C31   C35   A    
C3    C47   A    
C17   C19   A    
S8    O31   D    
S7    O29   S    
C22   C24   A    
C45   H11   S    
C35   S1    S    
O14   H8    S    
O5    Zn1   S    
C15   C21   A    
C8    C10   A    
C32   C42   A    
C12   H16   S    
O20   H10   S    
C27   S7    S    
O8    Zn2   S    
S6    O26   S    
