data_mof_unit_19656.cif
_audit_creation_date              2012-12-11T14:57:53-0500
_audit_creation_method            fapswitch 2.2
_symmetry_space_group_name_H-M    P1
_symmetry_Int_Tables_number       1
_space_group_crystal_system       triclinic
_cell_length_a                    6.945624
_cell_length_b                    16.838372
_cell_length_c                    16.896005
_cell_angle_alpha                 100.334802
_cell_angle_beta                  91.213294
_cell_angle_gamma                 89.885467
_cell_volume                      1943.5406316

loop_
_atom_site_label
_atom_site_type_symbol
_atom_type_description
_atom_site_fract_x
_atom_site_fract_y
_atom_site_fract_z
_atom_type_partial_charge
O1    O     O_R   0.506180 0.438940 0.579430 -0.539373
O2    O     O_R   0.170520 0.406230 0.413590 -0.552539
O3    O     O_R   0.005180 0.561060 0.420570 -0.536315
C1    C     C_R   0.337543 0.386397 0.381985 0.708935
O4    O     O_R   0.176140 0.429310 0.578370 -0.542646
O5    O     O_R   0.010830 0.584300 0.586530 -0.539539
C2    C     C_R   0.347233 0.413881 0.605193 0.681708
O6    O     O_R   0.500520 0.415700 0.413470 -0.508154
O7    O     O_3   0.340830 0.550820 0.502480 -0.367312
V1    V     V_3+5 0.064040 0.490570 0.499540 1.464199
O8    O     O_R   0.681400 0.593770 0.586410 -0.547286
C3    C     C_R   0.851411 0.616652 0.614692 0.670087
O9    O     O_R   0.675790 0.570690 0.421630 -0.521928
C4    C     C_R   0.842870 0.586534 0.394925 0.761868
V2    V     V_3+5 0.564650 0.509430 0.500460 1.503566
O10   O     O_3   0.837730 0.449180 0.497520 -0.366171
C5    C     C_R   0.920410 0.863290 0.168637 -0.056330
C6    C     C_R   0.846375 0.636193 0.330398 -0.073713
C7    C     C_R   0.755697 0.660700 0.196693 -0.187749
C8    C     C_R   0.762844 0.608651 0.253002 0.017648
C9    C     C_R   0.930869 0.713542 0.347254 -0.209275
C10   C     C_R   0.925329 0.766101 0.290200 0.133597
C11   C     C_R   0.835142 0.738471 0.214137 0.141608
C12   C     C_R   0.829443 0.787830 0.154975 -0.181576
C13   C     C_R   0.012858 0.890385 0.243053 -0.245530
C14   C     C_R   0.010757 0.844528 0.305115 -0.010086
H1    H     H_    0.759988 0.766366 0.096997 0.129962
H2    H     H_    0.081616 0.949253 0.253694 0.112585
H3    H     H_    0.691076 0.639639 0.137634 0.139576
H4    H     H_    0.001478 0.731141 0.405251 0.162997
C15   C     C_R   0.796369 0.911627 0.718275 -0.045612
C16   C     C_R   0.708567 0.918979 0.644246 -0.053680
C17   C     C_R   0.676423 0.852194 0.584865 -0.093952
C18   C     C_R   0.732003 0.776431 0.597393 -0.127924
C19   C     C_R   0.810562 0.764441 0.672287 0.069341
C20   C     C_R   0.837638 0.832478 0.735965 -0.014686
C21   C     C_R   0.865219 0.685725 0.683111 -0.156766
C22   C     C_R   0.936725 0.672943 0.758843 0.071491
C23   C     C_R   0.952992 0.738732 0.824222 0.050120
C24   C     C_R   0.903302 0.818135 0.813377 -0.168863
C25   C     C_R   0.987212 0.594532 0.771629 -0.192944
C26   C     C_R   0.053212 0.581436 0.846607 -0.141726
C27   C     C_R   0.067796 0.645516 0.910873 0.203732
C28   C     C_R   0.017077 0.723077 0.900277 -0.161822
H5    H     H_    0.672999 0.977698 0.630267 0.178272
H6    H     H_    0.614143 0.859591 0.527330 0.142483
H7    H     H_    0.711324 0.727430 0.547107 0.107894
H8    H     H_    0.974596 0.542182 0.724252 0.120867
H9    H     H_    0.091524 0.521039 0.854818 0.141929
H10   H     H_    0.028437 0.770352 0.952659 0.127597
H11   H     H_    0.262950 0.472372 0.109245 0.174626
C29   C     C_R   0.395106 0.224316 0.408449 -0.125993
C30   C     C_R   0.434028 0.147505 0.424560 -0.076848
C31   C     C_R   0.464553 0.083471 0.361813 -0.110455
C32   C     C_R   0.457010 0.095809 0.282465 -0.161335
C33   C     C_R   0.419540 0.173267 0.264253 0.066277
C34   C     C_R   0.387111 0.239049 0.328427 0.077427
C35   C     C_R   0.416622 0.185686 0.183677 -0.170061
C36   C     C_R   0.382381 0.263981 0.167012 0.079157
C37   C     C_R   0.336106 0.329825 0.230106 0.015463
C38   C     C_R   0.346304 0.317546 0.312249 -0.181453
C39   C     C_R   0.393649 0.277290 0.086942 -0.124831
C40   C     C_R   0.356940 0.352452 0.067731 -0.161412
C41   C     C_R   0.300602 0.415448 0.126822 -0.113361
C42   C     C_R   0.285282 0.405347 0.207054 0.006814
H12   H     H_    0.370494 0.271723 0.459535 0.093527
H13   H     H_    0.440402 0.137653 0.486137 0.150813
H14   H     H_    0.495043 0.023952 0.374671 0.122762
H15   H     H_    0.482987 0.044185 0.235689 0.102348
H16   H     H_    0.433102 0.229739 0.038054 0.089906
H17   H     H_    0.366926 0.361309 0.006024 0.131155
C43   C     C_R   0.399837 0.136255 0.831268 -0.043859
C44   C     C_R   0.367327 0.363545 0.668404 -0.068556
C45   C     C_R   0.521278 0.341283 0.793470 -0.151863
C46   C     C_R   0.486410 0.390245 0.736083 -0.155059
C47   C     C_R   0.284753 0.286192 0.658261 -0.202696
C48   C     C_R   0.323427 0.234919 0.714574 0.102502
C49   C     C_R   0.441995 0.263469 0.783326 0.125533
C50   C     C_R   0.479414 0.213999 0.841036 -0.197263
C51   C     C_R   0.289502 0.107258 0.761672 -0.131920
C52   C     C_R   0.249802 0.155469 0.703833 0.160665
H18   H     H_    0.566105 0.236631 0.894401 0.109702
H19   H     H_    0.235128 0.046174 0.751831 0.120878
H20   H     H_    0.612649 0.363947 0.845362 0.121638
H21   H     H_    0.553144 0.449365 0.744427 0.119463
H22   H     H_    0.196608 0.265844 0.604993 0.146081
O11   O     O_R   0.265840 0.084300 0.086750 -0.536079
O12   O     O_R   0.589750 0.070740 0.921690 -0.520048
O13   O     O_R   0.755020 0.915730 0.913400 -0.533153
C53   C     C_R   0.418798 0.086422 0.895074 0.713080
O14   O     O_R   0.595830 0.093740 0.086480 -0.540308
O15   O     O_R   0.761150 0.938890 0.079360 -0.539500
C54   C     C_R   0.428108 0.115547 0.116008 0.686688
O16   O     O_R   0.259710 0.061140 0.920790 -0.547730
O17   O     O_3   0.425260 0.949200 0.997610 -0.366620
V3    V     V_3+5 0.702060 0.009430 0.000450 1.462237
O18   O     O_R   0.090530 0.929220 0.078150 -0.536215
C55   C     C_R   0.923662 0.913488 0.104953 0.704789
O19   O     O_R   0.084440 0.906220 0.913360 -0.543948
C56   C     C_R   0.914419 0.884057 0.884486 0.664670
V4    V     V_3+5 0.201450 0.990520 0.999290 1.440878
O20   O     O_3   0.928380 0.050800 0.002390 -0.366685
C57   C     C_2   0.193857 0.472527 0.260957 0.354927
H23   H     H_    0.075424 0.460034 0.297073 0.094881
O21   O     O_2   0.242917 0.542315 0.261954 -0.525242
I1    I     I_    0.078051 0.102558 0.602370 -0.429995
C58   C     C_2   0.098178 0.882722 0.383638 0.368800
H24   H     H_    0.215107 0.925640 0.384998 0.056849
O22   O     O_2   0.033793 0.871401 0.447338 -0.529944
C59   C     C_2   0.690656 0.525043 0.225525 0.386848
H25   H     H_    0.629762 0.508302 0.165216 0.073366
O23   O     O_2   0.701380 0.473513 0.267790 -0.547863
I2    I     I_    0.165990 0.625547 0.024769 -0.496769
C60   C     C_2   0.859623 0.988703 0.769428 0.397697
H26   H     H_    0.985088 0.991236 0.808395 0.040566
O24   O     O_2   0.777502 0.052059 0.765297 -0.524519

loop_
_geom_bond_atom_site_label_1
_geom_bond_atom_site_label_2
_ccdc_geom_bond_type
C52   I1    S    
C32   C33   A    
O12   V3    S    
V4    O20   S    
V3    O20   S    
C6    C9    A    
C44   C46   A    
C16   H5    S    
C4    C6    S    
O2    C1    A    
C7    C8    A    
C12   H1    S    
C1    O6    A    
C60   H26   S    
O15   C55   A    
C2    C44   S    
C48   C49   A    
C13   H2    S    
C21   C22   A    
C19   C21   A    
C35   C54   S    
C43   C50   A    
C15   C20   A    
O5    C3    A    
C22   C23   A    
C31   H14   S    
V2    O10   S    
O18   C55   A    
O15   V3    S    
C33   C34   A    
C39   H16   S    
C18   C19   A    
C25   C26   A    
C3    C21   S    
C27   I2    S    
C59   H25   S    
O14   V3    S    
O11   V4    S    
O8    V2    S    
C46   H21   S    
O17   V3    S    
O16   V4    S    
C58   H24   S    
O1    V2    S    
C5    C55   S    
C15   C60   S    
C36   C37   A    
O9    C4    A    
C17   H6    S    
C58   O22   D    
C51   H19   S    
C53   O16   A    
C5    C12   A    
C45   C46   A    
O13   C56   A    
C20   C24   A    
C47   C48   A    
C22   C25   A    
C23   C24   A    
O4    C2    A    
C49   C50   A    
C13   C14   A    
C30   C31   A    
C1    C38   S    
C37   C38   A    
C19   C20   A    
C7    C11   A    
C27   C28   A    
O5    V1    S    
C39   C40   A    
O14   C54   A    
C43   C53   S    
O19   C56   A    
C48   C52   A    
C11   C12   A    
C17   C18   A    
C57   O21   D    
C32   H15   S    
O3    C4    A    
C8    C59   S    
O19   V4    S    
O12   C53   A    
C37   C42   A    
O6    V2    S    
O9    V2    S    
C45   C49   A    
C44   C47   A    
C26   C27   A    
C42   C57   S    
O2    V1    S    
C47   H22   S    
C29   H12   S    
C29   C30   A    
O7    V1    S    
C28   H10   S    
C31   C32   A    
C36   C39   A    
O1    C2    A    
C15   C16   A    
H11   C41   S    
C45   H20   S    
C51   C52   A    
C14   C58   S    
C24   C56   S    
C50   H18   S    
C60   O24   D    
O8    C3    A    
C34   C38   A    
C23   C28   A    
C9    H4    S    
C5    C13   A    
C16   C17   A    
O13   V3    S    
C35   C36   A    
O4    V1    S    
C43   C51   A    
O3    V1    S    
V1    O10   S    
C41   C42   A    
O11   C54   A    
C25   H8    S    
C33   C35   A    
C6    C8    A    
O7    V2    S    
C30   H13   S    
C59   O23   D    
C29   C34   A    
C26   H9    S    
C40   C41   A    
C10   C14   A    
C57   H23   S    
C10   C11   A    
C18   H7    S    
C9    C10   A    
C40   H17   S    
O18   V4    S    
O17   V4    S    
C7    H3    S    
