data_mof_unit_38274.cif
_audit_creation_date              2012-12-10T17:49:35-0500
_audit_creation_method            fapswitch 2.2
_symmetry_space_group_name_H-M    P1
_symmetry_Int_Tables_number       1
_space_group_crystal_system       triclinic
_cell_length_a                    14.693725
_cell_length_b                    14.827224
_cell_length_c                    15.854988
_cell_angle_alpha                 76.06195
_cell_angle_beta                  101.71867
_cell_angle_gamma                 115.108384
_cell_volume                      3015.70721842

loop_
_atom_site_label
_atom_site_type_symbol
_atom_type_description
_atom_site_fract_x
_atom_site_fract_y
_atom_site_fract_z
_atom_type_partial_charge
C1    C     C_R   0.880274 0.312491 0.513632 0.777244
C2    C     C_3   0.113671 0.525660 0.062760 0.017951
C3    C     C_3   0.004300 0.498088 0.083974 0.274619
C4    C     C_3   0.965364 0.577901 0.025909 -0.416386
C5    C     C_3   0.962849 0.578160 0.927811 -0.387927
C6    C     C_1   0.003149 0.498620 0.176002 -0.124143
C7    C     C_1   0.998514 0.499590 0.824640 -0.110618
C8    C     C_1   0.997942 0.499872 0.748881 -0.181644
C9    C     C_R   0.812697 0.205416 0.515424 -0.045824
C10   C     C_R   0.188223 0.795007 0.470586 -0.050936
C11   C     C_R   0.784822 0.030026 0.527510 -0.203214
C12   C     C_R   0.999191 0.499863 0.659465 0.825695
C13   C     C_R   0.850827 0.130248 0.530258 -0.202216
C14   C     C_R   0.708239 0.179270 0.497880 -0.255906
C15   C     C_R   0.640480 0.079608 0.490941 0.088971
C16   C     C_R   0.680139 0.004082 0.508497 0.163917
C17   C     C_R   0.534395 0.052746 0.469555 0.067473
C18   C     C_R   0.468332 0.948804 0.476755 0.064601
C19   C     C_R   0.511019 0.875848 0.492688 -0.226401
C20   C     C_R   0.615012 0.903463 0.507185 -0.233198
C21   C     C_R   0.492450 0.126433 0.439461 -0.231840
C22   C     C_R   0.388624 0.099334 0.424480 -0.242216
C23   C     C_R   0.119837 0.687541 0.484583 0.793047
C24   C     C_R   0.322805 0.998049 0.439185 0.167581
C25   C     C_R   0.361817 0.921682 0.466081 0.088756
C26   C     C_R   0.218009 0.972275 0.426915 -0.206633
C27   C     C_R   0.151041 0.871281 0.441880 -0.200689
C28   C     C_R   0.292770 0.820787 0.483672 -0.258974
C29   C     C_R   0.726998 0.678225 0.353860 -0.331822
C30   C     C_R   0.803795 0.641648 0.378089 0.046307
C31   C     C_R   0.708121 0.510299 0.484390 0.270257
C32   C     C_R   0.621279 0.533819 0.449136 -0.025870
C33   C     C_R   0.635842 0.625510 0.390909 0.134096
C34   C     C_R   0.000746 0.499944 0.340547 0.835068
C35   C     C_R   0.522631 0.473424 0.474357 0.090051
C36   C     C_R   0.449732 0.515960 0.464989 0.100104
C37   C     C_R   0.470749 0.612858 0.413119 -0.240812
C38   C     C_R   0.560181 0.664110 0.372820 -0.197226
C39   C     C_R   0.491850 0.369141 0.501596 -0.261009
C40   C     C_R   0.407686 0.314747 0.545644 -0.198643
C41   C     C_R   0.348200 0.362256 0.559159 0.111589
C42   C     C_R   0.360468 0.459076 0.509364 -0.062593
C43   C     C_R   0.277337 0.314818 0.620968 0.050028
C44   C     C_R   0.204618 0.355627 0.618674 0.298431
C45   C     C_3   0.110085 0.525457 0.963638 -0.372759
C46   C     C_R   0.283000 0.493080 0.506638 -0.041114
C47   C     C_3   0.932086 0.393286 0.962331 -0.385217
C48   C     C_3   0.932219 0.393227 0.060043 -0.376824
C49   C     C_1   0.002150 0.499209 0.251288 -0.182189
C50   C     C_3   0.000721 0.499191 0.917306 0.294622
Cu1   Cu    Cu3+1 0.081750 0.475690 0.522550 0.922297
Cu2   Cu    Cu3+1 0.918250 0.524310 0.477450 0.922524
H1    H     H_    0.160932 0.601318 0.932237 0.145285
H2    H     H_    0.160712 0.604141 0.075150 0.145729
H3    H     H_    0.887997 0.561212 0.039885 0.177705
H4    H     H_    0.318749 0.760702 0.509563 0.151795
H5    H     H_    0.359713 0.158308 0.401935 0.149584
H6    H     H_    0.815627 0.972717 0.540094 0.131480
H7    H     H_    0.931430 0.148811 0.543866 0.149186
H8    H     H_    0.681147 0.237834 0.491740 0.144763
H9    H     H_    0.138253 0.470043 0.954372 0.171579
H10   H     H_    0.466237 0.796659 0.491847 0.141409
H11   H     H_    0.187866 0.030361 0.405591 0.131329
H12   H     H_    0.572127 0.736425 0.330360 0.144242
H13   H     H_    0.281526 0.560038 0.461978 0.140609
H14   H     H_    0.392484 0.235981 0.571199 0.156783
H15   H     H_    0.738783 0.747083 0.306262 0.141963
H16   H     H_    0.872956 0.681558 0.347512 0.135321
H17   H     H_    0.853315 0.371589 0.929055 0.164627
H18   H     H_    0.418313 0.649243 0.400979 0.130608
H19   H     H_    0.536619 0.330329 0.493526 0.133343
H20   H     H_    0.959333 0.335587 0.956953 0.159178
H21   H     H_    0.955063 0.332675 0.101759 0.156855
H22   H     H_    0.853962 0.375067 0.072652 0.169540
H23   H     H_    0.011198 0.654937 0.895872 0.163601
H24   H     H_    0.884218 0.560671 0.894990 0.169188
N1    N     N_R   0.795410 0.560790 0.443550 -0.182645
N2    N     N_R   0.204590 0.439170 0.556520 -0.201766
O1    O     O_R   0.977910 0.338120 0.529720 -0.607152
O2    O     O_R   0.839850 0.379180 0.491640 -0.598503
O3    O     O_R   0.069060 0.479460 0.639610 -0.579771
O4    O     O_R   0.931000 0.520530 0.601530 -0.577360
O5    O     O_R   0.160150 0.620820 0.508360 -0.588898
O6    O     O_R   0.022090 0.661880 0.470280 -0.591309
O7    O     O_R   0.069000 0.479470 0.398470 -0.575651
O8    O     O_R   0.930940 0.520540 0.360390 -0.576055
C51   C     C_3   0.165002 0.456090 0.121608 -0.402435
C52   C     C_3   0.278976 0.500498 0.116412 -0.859875
H25   H     H_    0.295056 0.509665 0.048721 0.251032
H26   H     H_    0.315576 0.575148 0.137987 0.250847
H27   H     H_    0.312429 0.448878 0.160131 0.249901
H28   H     H_    0.154329 0.445585 0.191178 0.217968
H29   H     H_    0.130676 0.380082 0.102602 0.208244
H30   H     H_    0.644532 0.845233 0.518867 0.149460
H31   H     H_    0.070442 0.853012 0.431150 0.150803
H32   H     H_    0.538183 0.205989 0.423742 0.141112
C53   C     C_3   0.127751 0.306114 0.684841 -0.351567
C54   C     C_3   0.172538 0.340629 0.773110 -0.854957
H33   H     H_    0.202233 0.424364 0.764635 0.267669
H34   H     H_    0.112809 0.307701 0.817830 0.232003
H35   H     H_    0.234654 0.315894 0.804225 0.251609
H36   H     H_    0.059824 0.321108 0.664263 0.253487
H37   H     H_    0.095113 0.222607 0.692025 0.142774
C55   C     C_3   0.715396 0.457768 0.579368 -0.376068
C56   C     C_3   0.751716 0.534681 0.640802 -0.798636
H38   H     H_    0.819928 0.601834 0.620176 0.269070
H39   H     H_    0.691125 0.560800 0.640745 0.234296
H40   H     H_    0.769836 0.498914 0.708502 0.230870
H41   H     H_    0.644121 0.399098 0.601390 0.175417
H42   H     H_    0.763467 0.415094 0.590851 0.236316
C57   C     C_3   0.283861 0.224536 0.690269 -0.416576
C58   C     C_3   0.382602 0.255175 0.752061 -0.825848
H43   H     H_    0.449358 0.276552 0.717773 0.253723
H44   H     H_    0.392464 0.320063 0.781369 0.250665
H45   H     H_    0.380399 0.190553 0.805633 0.234085
H46   H     H_    0.222590 0.188825 0.732604 0.210595
H47   H     H_    0.276033 0.162250 0.658527 0.188388
H48   H     H_    0.015175 0.654533 0.041111 0.158653

loop_
_geom_bond_atom_site_label_1
_geom_bond_atom_site_label_2
_ccdc_geom_bond_type
C10   C27   A    
C51   C52   S    
C41   C42   A    
C27   H31   S    
C19   C20   A    
C43   C44   A    
C3    C6    S    
Cu1   O7    S    
C22   H5    S    
C58   H44   S    
C53   C54   S    
C28   H4    S    
C7    C8    T    
C25   C28   A    
C56   H39   S    
C26   C27   A    
C29   C30   A    
C23   O5    A    
C21   C22   A    
C36   C37   A    
C24   C26   A    
C42   C46   A    
C55   H41   S    
C19   H10   S    
C15   C16   A    
C29   C33   A    
C3    C48   S    
C18   C19   A    
C34   O8    A    
C45   H9    S    
Cu2   O6    S    
C9    C13   A    
C47   H17   S    
C29   H15   S    
C30   N1    A    
C36   C42   A    
C47   C48   S    
C57   H46   S    
C11   H6    S    
Cu1   O3    S    
C53   H36   S    
C16   C20   A    
C45   H1    S    
C40   H14   S    
C37   H18   S    
C41   C43   A    
C4    H48   S    
C18   C25   A    
C43   C57   S    
C55   C56   S    
C31   N1    A    
C47   C50   S    
C38   H12   S    
C2    C45   S    
C56   H40   S    
C23   O6    A    
Cu1   Cu2   S    
C32   C35   A    
C48   H22   S    
C1    C9    S    
C24   C25   A    
C46   H13   S    
C2    H2    S    
C39   C40   A    
C46   N2    A    
C9    C14   A    
C17   C21   A    
C35   C36   A    
C5    H23   S    
C35   C39   A    
C26   H11   S    
C37   C38   A    
C44   C53   S    
C31   C32   A    
C52   H27   S    
C8    C12   S    
C17   C18   A    
C12   O4    A    
C2    C51   S    
Cu2   O4    S    
C53   H37   S    
C40   C41   A    
C52   H26   S    
C54   H34   S    
C4    H3    S    
C1    O1    A    
C22   C24   A    
C5    C50   S    
Cu2   N1    S    
Cu1   O5    S    
C10   C28   A    
C15   C17   A    
C20   H30   S    
C34   C49   S    
C57   C58   S    
C48   H21   S    
C7    C50   S    
C4    C5    S    
C13   H7    S    
C21   H32   S    
C10   C23   S    
C54   H35   S    
C14   H8    S    
C56   H38   S    
C33   C38   A    
C57   H47   S    
C32   C33   A    
C5    H24   S    
C44   N2    A    
C2    C3    S    
Cu1   N2    S    
Cu2   O2    S    
C31   C55   S    
C55   H42   S    
C11   C13   A    
C45   C50   S    
C51   H29   S    
Cu2   O8    S    
C12   O3    A    
C58   H43   S    
C6    C49   T    
Cu1   O1    S    
C47   H20   S    
C11   C16   A    
C52   H25   S    
C54   H33   S    
C1    O2    A    
C39   H19   S    
C14   C15   A    
C51   H28   S    
C34   O7    A    
C58   H45   S    
C30   H16   S    
C3    C4    S    
