data_mof_unit_28845.cif
_audit_creation_date              2012-12-10T19:34:40-0500
_audit_creation_method            fapswitch 2.2
_symmetry_space_group_name_H-M    P1
_symmetry_Int_Tables_number       1
_space_group_crystal_system       triclinic
_cell_length_a                    10.832585
_cell_length_b                    15.852147
_cell_length_c                    17.021693
_cell_angle_alpha                 96.896628
_cell_angle_beta                  93.7854
_cell_angle_gamma                 91.302921
_cell_volume                      2894.09262514

loop_
_atom_site_label
_atom_site_type_symbol
_atom_type_description
_atom_site_fract_x
_atom_site_fract_y
_atom_site_fract_z
_atom_type_partial_charge
C1    C     C_R   0.511411 0.488803 0.349452 0.855488
C2    C     C_R   0.525550 0.461613 0.097257 0.345565
C3    C     C_R   0.462351 0.401977 0.134557 -0.158158
C4    C     C_R   0.261990 0.500201 0.492942 0.878428
C5    C     C_R   0.461601 0.410712 0.216638 -0.158910
C6    C     C_R   0.456472 0.449824 0.855978 -0.189954
C7    C     C_R   0.432965 0.448989 0.774285 0.085830
C8    C     C_R   0.516929 0.519922 0.902626 0.277514
C9    C     C_R   0.470936 0.520266 0.737958 -0.166321
C10   C     C_R   0.500119 0.598183 0.787721 0.108381
C11   C     C_R   0.540713 0.594643 0.868170 0.119450
C12   C     C_R   0.049301 0.479111 0.418572 -0.032731
C13   C     C_R   0.436435 0.752798 0.460548 0.460581
C14   C     C_R   0.440355 0.841652 0.462416 -0.387620
C15   C     C_R   0.524433 0.892021 0.515373 0.209444
C16   C     C_R   0.488109 0.511555 0.651099 0.804676
C17   C     C_R   0.603220 0.850361 0.565963 0.241749
C18   C     C_R   0.596999 0.760602 0.562627 0.409588
C19   C     C_R   0.559815 0.156251 0.530643 -0.315798
C20   C     C_R   0.567780 0.245010 0.534150 0.513008
C21   C     C_R   0.466938 0.108630 0.481532 0.281329
C22   C     C_R   0.394397 0.243547 0.441946 -0.040504
C23   C     C_R   0.127365 0.501751 0.489293 -0.071846
C24   C     C_R   0.383015 0.153824 0.436065 0.026861
C25   C     C_R   0.737752 0.499270 0.503495 0.788906
C26   C     C_R   0.092365 0.465259 0.340750 0.290422
C27   C     C_R   0.012173 0.432054 0.275489 0.415388
C28   C     C_R   0.888027 0.417479 0.285268 -0.251875
C29   C     C_R   0.841826 0.438450 0.358710 -0.268400
C30   C     C_R   0.920150 0.470803 0.425903 0.026118
C31   C     C_3   0.461607 0.684130 0.763215 -0.343416
C32   C     C_3   0.344450 0.713612 0.802628 -0.852715
C33   C     C_3   0.609684 0.670417 0.917069 -0.400934
C34   C     C_R   0.077045 0.518487 0.562574 -0.214472
C35   C     C_3   0.739700 0.681255 0.889471 -0.792402
C36   C     C_3   0.682264 0.605345 0.272977 -0.406476
C37   C     C_3   0.627937 0.693126 0.271484 -0.712428
C38   C     C_3   0.280480 0.108656 0.381221 -0.388581
C39   C     C_3   0.308688 0.108774 0.294560 -0.782639
C40   C     C_3   0.902132 0.536636 0.651191 -0.370338
C41   C     C_3   0.953302 0.621541 0.694890 -0.711081
C42   C     C_3   0.352562 0.376155 0.730696 -0.388842
C43   C     C_3   0.419298 0.292135 0.725564 -0.709537
C44   C     C_R   0.949753 0.518550 0.568989 0.152539
C45   C     C_R   0.871103 0.495977 0.499822 -0.059566
C46   C     C_R   0.524174 0.479728 0.263378 -0.044086
C47   C     C_R   0.597396 0.536938 0.226706 0.087799
C48   C     C_R   0.596253 0.527614 0.143697 -0.153249
Cl1   Cl    Cl    0.688524 0.298239 0.596034 -0.614010
Cl2   Cl    Cl    0.709406 0.911493 0.634334 -0.512838
Cl3   Cl    Cl    0.694469 0.712546 0.629486 -0.601236
Cl4   Cl    Cl    0.236721 0.502356 0.318396 -0.549180
Cl5   Cl    Cl    0.324013 0.697516 0.394035 -0.517706
Cl6   Cl    Cl    0.063658 0.410524 0.179222 -0.560069
Cu1   Cu    Cu3+1 0.493970 0.415220 0.496180 0.997495
Cu2   Cu    Cu3+1 0.506030 0.584780 0.503820 1.048199
H1    H     H_    0.138755 0.531345 0.615742 0.127041
H2    H     H_    0.409084 0.350332 0.099599 0.166674
H3    H     H_    0.266371 0.667859 0.782284 0.249431
H4    H     H_    0.356929 0.718793 0.868213 0.256776
H5    H     H_    0.319671 0.776909 0.785657 0.262471
H6    H     H_    0.537289 0.732787 0.778302 0.242027
H7    H     H_    0.437242 0.683948 0.699545 0.247765
H8    H     H_    0.792322 0.622608 0.894615 0.257323
H9    H     H_    0.735593 0.694881 0.826951 0.271516
H10   H     H_    0.789527 0.735154 0.927024 0.253445
H11   H     H_    0.559415 0.730042 0.913635 0.214089
H12   H     H_    0.407664 0.364882 0.243521 0.187265
H13   H     H_    0.619479 0.663251 0.981170 0.221185
H14   H     H_    0.535305 0.694528 0.295601 0.293828
H15   H     H_    0.689602 0.741429 0.308389 0.237721
H16   H     H_    0.619292 0.709809 0.209866 0.237703
H17   H     H_    0.702188 0.593389 0.335303 0.212655
H18   H     H_    0.773512 0.604811 0.246614 0.218614
H19   H     H_    0.315525 0.174856 0.279339 0.246961
H20   H     H_    0.397105 0.076797 0.283344 0.260894
H21   H     H_    0.233260 0.073932 0.255614 0.252745
H22   H     H_    0.266337 0.041791 0.392802 0.232833
H23   H     H_    0.650534 0.572179 0.115547 0.158711
H24   H     H_    0.191912 0.140861 0.391659 0.209685
H25   H     H_    0.051603 0.616420 0.716019 0.213277
H26   H     H_    0.946503 0.672474 0.655548 0.303145
H27   H     H_    0.900233 0.639517 0.747552 0.251348
H28   H     H_    0.799628 0.537227 0.649271 0.227554
H29   H     H_    0.930827 0.484945 0.686524 0.209499
H30   H     H_    0.512240 0.300039 0.703825 0.296490
H31   H     H_    0.429723 0.269407 0.784785 0.238142
H32   H     H_    0.365135 0.243315 0.684204 0.235690
H33   H     H_    0.267688 0.369332 0.763019 0.201390
H34   H     H_    0.627139 0.125071 0.566189 0.226000
H35   H     H_    0.318458 0.388974 0.670568 0.213330
H36   H     H_    0.330137 0.278147 0.407411 0.165467
H37   H     H_    0.376935 0.870755 0.422575 0.219141
H38   H     H_    0.825696 0.392536 0.235043 0.190698
H39   H     H_    0.743874 0.427987 0.361837 0.159563
H40   H     H_    0.426559 0.395087 0.883010 0.180315
N1    N     N_2   0.509933 0.455383 0.013364 -0.235132
N2    N     N_2   0.542013 0.521285 0.985882 -0.246793
N3    N     N_R   0.515100 0.712130 0.509560 -0.260074
N4    N     N_2   0.532741 0.983343 0.520262 -0.144664
N5    N     N_2   0.456918 0.017108 0.475655 -0.220578
N6    N     N_R   0.484890 0.287850 0.490450 -0.213318
O1    O     O_R   0.494360 0.420530 0.382500 -0.599483
O2    O     O_R   0.504550 0.563720 0.388950 -0.512510
O3    O     O_R   0.314550 0.428390 0.496780 -0.608178
O4    O     O_R   0.324740 0.571580 0.503230 -0.518753
O5    O     O_R   0.495450 0.436280 0.611050 -0.539104
O6    O     O_R   0.505640 0.579470 0.617500 -0.564370
O7    O     O_R   0.675260 0.428420 0.496770 -0.537697
O8    O     O_R   0.685450 0.571610 0.503220 -0.546594

loop_
_geom_bond_atom_site_label_1
_geom_bond_atom_site_label_2
_ccdc_geom_bond_type
Cu1   Cu2   S    
C40   H28   S    
C30   C45   A    
C19   C20   A    
C15   N4    S    
N1    N2    D    
C27   Cl6   S    
Cu1   N6    S    
C26   C27   A    
C20   Cl1   S    
Cu1   O3    S    
C43   H32   S    
C39   H21   S    
C48   H23   S    
C36   C37   S    
C19   C21   A    
C9    C16   S    
C32   H5    S    
C38   C39   S    
C1    C46   S    
C20   N6    A    
C35   H9    S    
C41   H27   S    
Cu1   O1    S    
C36   C47   S    
C28   H38   S    
C42   H35   S    
C7    C42   S    
C8    N2    S    
Cu2   O6    S    
C16   O5    A    
C10   C31   S    
C31   C32   S    
C2    N1    S    
C34   H1    S    
C24   C38   S    
C35   H8    S    
C39   H19   S    
C9    C10   A    
C1    O1    A    
C14   H37   S    
C25   O7    A    
C21   N5    S    
C37   H14   S    
Cu1   O7    S    
C31   H6    S    
C5    H12   S    
Cu2   O8    S    
C18   Cl3   S    
C13   Cl5   S    
C31   H7    S    
C11   C33   S    
C34   C44   A    
Cu2   O2    S    
C36   H17   S    
C29   H39   S    
C4    C23   S    
C6    C8    A    
C38   H22   S    
C35   H10   S    
C2    C48   A    
C4    O4    A    
C12   C26   A    
C40   H29   S    
C13   N3    A    
C29   C30   A    
C26   Cl4   S    
C47   C48   A    
C12   C23   A    
C23   C34   A    
C41   H25   S    
C17   C18   A    
C39   H20   S    
C1    O2    A    
Cu2   O4    S    
C36   H18   S    
C25   O8    A    
C40   C41   S    
C6    H40   S    
C37   H15   S    
C22   C24   A    
C37   H16   S    
C18   N3    A    
C32   H4    S    
C25   C45   S    
C44   C45   A    
C33   H11   S    
C4    O3    A    
C15   C17   A    
C46   C47   A    
C28   C29   A    
C12   C30   A    
C43   H30   S    
C3    C5    A    
C17   Cl2   S    
C6    C7    A    
C33   H13   S    
C5    C46   A    
C22   N6    A    
C42   H33   S    
C43   H31   S    
C2    C3    A    
C19   H34   S    
C38   H24   S    
C8    C11   A    
C41   H26   S    
C32   H3    S    
N4    N5    D    
C33   C35   S    
C10   C11   A    
C16   O6    A    
C3    H2    S    
C7    C9    A    
C40   C44   S    
C42   C43   S    
C21   C24   A    
Cu1   O5    S    
C27   C28   A    
C22   H36   S    
C14   C15   A    
Cu2   N3    S    
C13   C14   A    
