data_mof_unit_65104.cif
_audit_creation_date              2012-12-10T18:05:51-0500
_audit_creation_method            fapswitch 2.2
_symmetry_space_group_name_H-M    P1
_symmetry_Int_Tables_number       1
_space_group_crystal_system       triclinic
_cell_length_a                    18.713481
_cell_length_b                    18.950596
_cell_length_c                    18.783465
_cell_angle_alpha                 109.708341
_cell_angle_beta                  109.270161
_cell_angle_gamma                 109.430349
_cell_volume                      5128.04911235

loop_
_atom_site_label
_atom_site_type_symbol
_atom_type_description
_atom_site_fract_x
_atom_site_fract_y
_atom_site_fract_z
_atom_type_partial_charge
C1    C     C_R   0.119311 0.000550 0.618941 0.786610
C2    C     C_R   0.967521 0.970318 0.165383 -0.114296
C3    C     C_R   0.244401 0.244101 0.421414 -0.234517
C4    C     C_R   0.313829 0.316033 0.501406 -0.071589
C5    C     C_R   0.318066 0.323242 0.580056 -0.006291
C6    C     C_R   0.252531 0.257853 0.577078 -0.245356
C7    C     C_R   0.183444 0.185363 0.497126 -0.071726
C8    C     C_R   0.178954 0.178250 0.418282 0.002159
C9    C     C_R   0.462132 0.395079 0.711920 -0.123842
C10   C     C_R   0.529667 0.464352 0.794013 -0.139433
C11   C     C_R   0.524183 0.538074 0.831768 -0.163091
C12   C     C_R   0.117613 0.118577 0.498478 0.790484
C13   C     C_R   0.451164 0.542948 0.787714 -0.133827
C14   C     C_R   0.382186 0.473881 0.704137 0.115879
C15   C     C_R   0.388740 0.399286 0.666290 0.070039
C16   C     C_R   0.247277 0.075128 0.765251 0.132869
C17   C     C_R   0.183598 0.998930 0.686378 -0.075582
C18   C     C_R   0.179357 0.920353 0.675883 -0.218276
C19   C     C_R   0.243078 0.920201 0.740985 -0.221255
C20   C     C_R   0.312993 0.998847 0.815173 -0.074688
C21   C     C_R   0.311797 0.075281 0.828173 0.093387
C22   C     C_3   0.380850 0.159409 0.849508 -0.459493
C23   C     C_R   0.880898 0.999647 0.381022 0.799467
C24   C     C_3   0.309824 0.159526 0.780690 -0.484768
C25   C     C_R   0.748932 0.744051 0.430028 0.098628
C26   C     C_R   0.819945 0.816727 0.506995 -0.120615
C27   C     C_R   0.824568 0.823948 0.586962 0.073972
C28   C     C_R   0.757342 0.757650 0.583664 -0.241946
C29   C     C_R   0.686007 0.686418 0.503288 -0.112813
C30   C     C_R   0.684402 0.683056 0.428202 0.122942
C31   C     C_3   0.635422 0.628560 0.331513 -0.478321
C32   C     C_3   0.708534 0.698776 0.333277 -0.462004
C33   C     C_R   0.753451 0.925283 0.234245 0.132667
C34   C     C_R   0.883711 0.881821 0.502831 0.799710
C35   C     C_R   0.816743 0.001318 0.313472 -0.088373
C36   C     C_R   0.821148 0.079917 0.323882 -0.230022
C37   C     C_R   0.757342 0.080029 0.258786 -0.213648
C38   C     C_R   0.687398 0.001349 0.184571 -0.073585
C39   C     C_R   0.689223 0.925164 0.171098 0.085284
C40   C     C_3   0.620189 0.840161 0.147898 -0.455678
C41   C     C_3   0.690642 0.840433 0.217695 -0.489567
C42   C     C_R   0.500519 0.619456 0.619277 0.802094
C43   C     C_R   0.380997 0.382259 0.500995 0.791786
C44   C     C_R   0.499613 0.380913 0.381273 0.800925
C45   C     C_R   0.051563 0.981550 0.192636 -0.139852
C46   C     C_R   0.618814 0.618431 0.500165 0.813627
C47   C     C_R   0.499526 0.118298 0.118353 0.800200
C48   C     C_R   0.380996 0.999459 0.880962 0.795246
C49   C     C_R   0.499993 0.881767 0.881147 0.798449
C50   C     C_R   0.619060 0.000625 0.119047 0.792574
C51   C     C_R   0.464345 0.735840 0.666278 0.133194
C52   C     C_R   0.505542 0.690495 0.687167 -0.104420
C53   C     C_R   0.555651 0.717876 0.775922 -0.214031
C54   C     C_R   0.553613 0.780634 0.840005 -0.247031
C55   C     C_R   0.502670 0.817245 0.815822 -0.062651
C56   C     C_R   0.120527 0.049118 0.275387 -0.135086
C57   C     C_R   0.463617 0.798776 0.729765 0.112987
C58   C     C_3   0.372047 0.772672 0.670394 -0.523508
C59   C     C_3   0.372979 0.703680 0.600336 -0.439510
C60   C     C_R   0.480412 0.306349 0.234616 0.130882
C61   C     C_R   0.498618 0.313108 0.315199 -0.100467
C62   C     C_R   0.517240 0.251536 0.330615 -0.208394
C63   C     C_R   0.516398 0.186137 0.265358 -0.218526
C64   C     C_R   0.499536 0.183486 0.185354 -0.079402
C65   C     C_R   0.482483 0.245522 0.173374 0.125551
C66   C     C_3   0.459509 0.275560 0.109893 -0.504179
C67   C     C_R   0.105450 0.105225 0.331855 0.119755
C68   C     C_3   0.458000 0.345718 0.180156 -0.458693
C69   C     C_R   0.020868 0.093619 0.304102 -0.128118
C70   C     C_R   0.952310 0.026581 0.220863 -0.116578
Cu1   Cu    Cu3+1 0.000020 0.938200 0.438220 0.949375
Cu2   Cu    Cu3+1 0.999980 0.061800 0.561780 0.930652
Cu3   Cu    Cu3+1 0.438190 0.500040 0.438260 0.933813
Cu4   Cu    Cu3+1 0.561780 0.500000 0.561820 0.944576
Cu5   Cu    Cu3+1 0.561810 0.061820 0.000020 0.941968
Cu6   Cu    Cu3+1 0.438190 0.938280 0.000080 0.935054
H1    H     H_    0.914295 0.918345 0.101101 0.121207
H2    H     H_    0.576666 0.591724 0.895591 0.126756
H3    H     H_    0.449859 0.601313 0.819920 0.132756
H4    H     H_    0.127714 0.859659 0.617275 0.154438
H5    H     H_    0.240186 0.859464 0.731540 0.149127
H6    H     H_    0.407842 0.211767 0.916698 0.191468
H7    H     H_    0.430508 0.152901 0.832038 0.211609
H8    H     H_    0.295581 0.211600 0.808369 0.200749
H9    H     H_    0.063371 0.938201 0.149449 0.126911
H10   H     H_    0.760617 0.761433 0.643649 0.151457
H11   H     H_    0.634568 0.565859 0.309337 0.186993
H12   H     H_    0.570932 0.624337 0.301797 0.205071
H13   H     H_    0.686253 0.735397 0.305117 0.189738
H14   H     H_    0.872738 0.140595 0.382550 0.156526
H15   H     H_    0.760118 0.140741 0.268325 0.152728
H16   H     H_    0.569176 0.845189 0.163683 0.212854
H17   H     H_    0.595051 0.788758 0.080750 0.186563
H18   H     H_    0.185532 0.057636 0.295586 0.124387
H19   H     H_    0.592804 0.688039 0.795564 0.174496
H20   H     H_    0.325787 0.745780 0.691530 0.203985
H21   H     H_    0.368429 0.824019 0.655914 0.203421
H22   H     H_    0.327145 0.636530 0.580243 0.203886
H23   H     H_    0.370248 0.715537 0.545688 0.199981
H24   H     H_    0.530107 0.138945 0.277757 0.148687
H25   H     H_    0.513441 0.301651 0.096872 0.203808
H26   H     H_    0.008416 0.137091 0.346414 0.106181
H27   H     H_    0.394109 0.227069 0.051194 0.193982
H28   H     H_    0.511387 0.412272 0.208035 0.188729
H29   H     H_    0.391899 0.338122 0.161585 0.205201
H30   H     H_    0.887474 0.018502 0.199035 0.137882
H31   H     H_    0.241277 0.239234 0.361112 0.149520
H32   H     H_    0.255834 0.263260 0.637596 0.150945
H33   H     H_    0.467015 0.337938 0.683535 0.129361
O1    O     O_R   0.090190 0.947810 0.538000 -0.588666
O2    O     O_R   0.552160 0.590170 0.642390 -0.586298
O3    O     O_R   0.357620 0.409850 0.447860 -0.591216
O4    O     O_R   0.461990 0.409820 0.552210 -0.579302
O5    O     O_R   0.447810 0.409860 0.357690 -0.587550
O6    O     O_R   0.552180 0.409830 0.462050 -0.588821
O7    O     O_R   0.537970 0.590210 0.447870 -0.586036
O8    O     O_R   0.642350 0.590180 0.552220 -0.588618
O9    O     O_R   0.552210 0.142430 0.090170 -0.586500
O10   O     O_R   0.447820 0.038100 0.090220 -0.585018
O11   O     O_R   0.462030 0.052220 0.909860 -0.587942
O12   O     O_R   0.090150 0.052180 0.642350 -0.586943
O13   O     O_R   0.357640 0.947890 0.909900 -0.587905
O14   O     O_R   0.552180 0.962000 0.909880 -0.580867
O15   O     O_R   0.447790 0.857670 0.909930 -0.591709
O16   O     O_R   0.642360 0.052210 0.090200 -0.586651
O17   O     O_R   0.537970 0.947880 0.090240 -0.588939
O18   O     O_R   0.090200 0.037990 0.447830 -0.572545
O19   O     O_R   0.090160 0.142360 0.552180 -0.592715
O20   O     O_R   0.909850 0.947820 0.357650 -0.576904
O21   O     O_R   0.909810 0.052190 0.462000 -0.586551
O22   O     O_R   0.909840 0.857640 0.447820 -0.588609
O23   O     O_R   0.909800 0.962010 0.552170 -0.592532
O24   O     O_R   0.447790 0.590200 0.538040 -0.589711
C71   C     C_3   0.301541 0.476959 0.654221 -0.425386
C72   C     C_3   0.297483 0.557776 0.702718 -0.365448
C73   C     C_3   0.211846 0.551520 0.648777 -0.845376
H34   H     H_    0.204060 0.543323 0.584810 0.250951
H35   H     H_    0.155604 0.495753 0.637638 0.255543
H36   H     H_    0.211752 0.611645 0.684309 0.240409
H37   H     H_    0.302051 0.564603 0.765448 0.222660
H38   H     H_    0.352590 0.616297 0.716256 0.235135
H39   H     H_    0.298177 0.472260 0.592454 0.197874
H40   H     H_    0.242879 0.419258 0.637168 0.213155
H41   H     H_    0.318391 0.153480 0.723455 0.191852
C74   C     C_3   0.900476 0.897320 0.675966 -0.393530
C75   C     C_3   0.981447 0.886910 0.696948 -0.333646
C76   C     C_3   0.057715 0.960348 0.786931 -0.830988
H42   H     H_    0.077108 0.023341 0.788751 0.259648
H43   H     H_    0.039361 0.962489 0.837835 0.246650
H44   H     H_    0.114535 0.949797 0.801699 0.253102
H45   H     H_    0.965895 0.824351 0.695618 0.219381
H46   H     H_    0.001165 0.886206 0.647249 0.207586
H47   H     H_    0.915155 0.960890 0.680634 0.222326
H48   H     H_    0.882752 0.898070 0.727123 0.186838
H49   H     H_    0.748999 0.676160 0.311040 0.205320
H50   H     H_    0.680721 0.846462 0.274190 0.189079
H51   H     H_    0.705725 0.788787 0.190964 0.197739
H52   H     H_    0.589402 0.798564 0.907652 0.136711
H53   H     H_    0.531332 0.253287 0.392134 0.160654
H54   H     H_    0.586254 0.460753 0.828559 0.127153

loop_
_geom_bond_atom_site_label_1
_geom_bond_atom_site_label_2
_ccdc_geom_bond_type
C66   C68   S    
C13   H3    S    
C16   C21   A    
Cu2   O12   S    
C53   H19   S    
C59   H23   S    
Cu3   Cu4   S    
C35   C36   A    
C40   H17   S    
Cu5   Cu6   S    
C74   C75   S    
C12   O19   A    
C7    C8    A    
C48   O11   A    
C12   O18   A    
C53   C54   A    
C56   H18   S    
Cu5   O9    S    
C26   C27   A    
C33   C39   A    
Cu3   O7    S    
Cu2   O19   S    
C42   O24   A    
Cu5   O14   S    
C22   H6    S    
C36   C37   A    
C76   H43   S    
C37   C38   A    
C48   O13   A    
C5    C6    A    
Cu1   O20   S    
C49   O14   A    
Cu1   O1    S    
C11   C13   A    
Cu6   O17   S    
C23   O20   A    
C18   C19   A    
C58   H20   S    
C71   H40   S    
C71   H39   S    
C26   C34   S    
C47   O9    A    
C76   H42   S    
C44   O6    A    
C16   C17   A    
C50   O17   A    
C9    C10   A    
C61   C62   A    
C41   H50   S    
C74   H47   S    
C25   C32   S    
C47   O10   A    
C44   O5    A    
C16   C24   S    
C21   C22   S    
C66   H25   S    
Cu1   O18   S    
C7    C12   S    
C58   H21   S    
C73   H36   S    
Cu2   O23   S    
C2    C45   A    
C9    H33   S    
C72   H37   S    
Cu6   O10   S    
C31   H11   S    
C37   H15   S    
C51   C52   A    
Cu6   O15   S    
C72   C73   S    
C76   H44   S    
C38   C39   A    
C45   C56   A    
C73   H35   S    
C3    C8    A    
C70   H30   S    
C19   H5    S    
C47   C64   S    
C73   H34   S    
C14   C71   S    
C63   H24   S    
C3    H31   S    
C25   C26   A    
C69   H26   S    
C49   O15   A    
Cu1   O22   S    
Cu3   O5    S    
C75   H45   S    
C23   O21   A    
C60   C61   A    
Cu5   O16   S    
C45   H9    S    
C42   O2    A    
C29   C30   A    
C11   H2    S    
C1    O1    A    
C54   H52   S    
C32   H49   S    
C32   H13   S    
C14   C15   A    
C27   C74   S    
C62   C63   A    
C17   C18   A    
C50   O16   A    
C40   H16   S    
C60   C68   S    
C20   C48   S    
C75   H46   S    
C74   H48   S    
C40   C41   S    
Cu3   O24   S    
C60   C65   A    
C23   C35   S    
C55   C57   A    
C28   H10   S    
C41   H51   S    
C51   C59   S    
C68   H29   S    
C3    C4    A    
C10   H54   S    
Cu4   O2    S    
C52   C53   A    
Cu3   O3    S    
C75   C76   S    
C36   H14   S    
C25   C30   A    
Cu4   O8    S    
C54   C55   A    
C28   C29   A    
C31   H12   S    
C9    C15   A    
C66   H27   S    
C31   C32   S    
Cu5   O11   S    
C68   H28   S    
C4    C5    A    
C34   O22   A    
Cu2   O21   S    
C6    C7    A    
C38   C50   S    
C4    C43   S    
C44   C61   S    
C56   C67   A    
C71   C72   S    
C1    C17   S    
C46   O7    A    
C29   C46   S    
Cu6   O13   S    
C64   C65   A    
C19   C20   A    
C58   C59   S    
C33   C41   S    
Cu1   Cu2   S    
C2    H1    S    
C49   C55   S    
C43   O4    A    
C22   H7    S    
Cu4   O4    S    
C57   C58   S    
C30   C31   S    
C2    C70   A    
C24   H41   S    
Cu4   O6    S    
C33   C35   A    
C22   C24   S    
C24   H8    S    
C69   C70   A    
C1    O12   A    
C5    C15   S    
C10   C11   A    
C34   O23   A    
C63   C64   A    
C39   C40   S    
C51   C57   A    
C72   H38   S    
C20   C21   A    
C46   O8    A    
C8    C67   S    
C18   H4    S    
C65   C66   S    
C43   O3    A    
C27   C28   A    
C59   H22   S    
C6    H32   S    
C62   H53   S    
C67   C69   A    
C13   C14   A    
C42   C52   S    
