data_mof_unit_26333.cif
_audit_creation_date              2012-12-10T18:31:59-0500
_audit_creation_method            fapswitch 2.2
_symmetry_space_group_name_H-M    P1
_symmetry_Int_Tables_number       1
_space_group_crystal_system       triclinic
_cell_length_a                    10.663826
_cell_length_b                    14.95917
_cell_length_c                    15.375782
_cell_angle_alpha                 82.083645
_cell_angle_beta                  90.037864
_cell_angle_gamma                 104.846152
_cell_volume                      2346.76436087

loop_
_atom_site_label
_atom_site_type_symbol
_atom_type_description
_atom_site_fract_x
_atom_site_fract_y
_atom_site_fract_z
_atom_type_partial_charge
C1    C     C_R   0.474593 0.441556 0.662311 0.882091
C2    C     C_R   0.385131 0.442573 0.897621 0.091391
C3    C     C_R   0.353532 0.346035 0.930481 0.173000
C4    C     C_R   0.742943 0.501899 0.497735 0.882528
C5    C     C_R   0.387117 0.508990 0.955029 0.070745
C6    C     C_R   0.384321 0.479763 0.046487 0.074105
C7    C     C_R   0.345210 0.382839 0.077926 -0.215976
C8    C     C_R   0.327077 0.317026 0.020188 -0.231479
C9    C     C_R   0.396862 0.604093 0.924044 -0.229042
C10   C     C_R   0.423687 0.670602 0.980702 -0.225095
C11   C     C_R   0.445464 0.644413 0.068741 0.159750
C12   C     C_3   0.122451 0.499734 0.495161 0.098815
C13   C     C_R   0.425494 0.548815 0.102448 0.090400
C14   C     C_R   0.492373 0.713207 0.122237 -0.246416
C15   C     C_R   0.524570 0.689346 0.209210 -0.003859
C16   C     C_R   0.516661 0.558647 0.337032 0.869638
C17   C     C_R   0.457746 0.525466 0.189028 -0.258451
C18   C     C_R   0.706132 0.846037 0.629636 -0.303703
C19   C     C_R   0.670415 0.755818 0.609075 0.049813
C20   C     C_R   0.506547 0.791706 0.516532 -0.033100
C21   C     C_R   0.535933 0.883912 0.536249 -0.001712
C22   C     C_R   0.640258 0.910841 0.592480 0.171327
C23   C     C_3   0.106779 0.588782 0.435802 -0.410296
C24   C     C_R   0.468766 0.950347 0.500106 0.072969
C25   C     C_R   0.513303 0.044888 0.516073 0.080608
C26   C     C_R   0.618816 0.068675 0.571670 -0.241714
C27   C     C_R   0.679470 0.002384 0.610070 -0.214975
C28   C     C_R   0.258447 0.500070 0.497021 0.851432
C29   C     C_R   0.358968 0.925368 0.448387 -0.229764
C30   C     C_R   0.300373 0.991949 0.407921 -0.208568
C31   C     C_R   0.346187 0.085111 0.419638 0.171468
C32   C     C_R   0.451157 0.112540 0.475339 -0.006796
C33   C     C_R   0.286018 0.151123 0.377330 -0.314238
C34   C     C_3   0.074669 0.497665 0.590712 -0.420005
C35   C     C_R   0.328047 0.243258 0.392128 0.019260
C36   C     C_R   0.488139 0.207130 0.488149 -0.041840
C37   C     C_3   0.900006 0.417834 0.452716 -0.022613
C38   C     C_3   0.041327 0.413400 0.457436 -0.433161
C39   C     C_3   0.965077 0.594956 0.440789 -0.012497
C40   C     C_3   0.930635 0.498675 0.592671 -0.181723
C41   C     C_3   0.880686 0.503118 0.496468 0.018779
C42   C     C_R   0.585887 0.767193 0.258146 0.140147
C43   C     C_R   0.524657 0.838910 0.264948 -0.191428
C44   C     C_R   0.588668 0.917974 0.301667 -0.144271
C45   C     C_R   0.432757 0.406077 0.753990 -0.061313
C46   C     C_R   0.713307 0.925676 0.333025 -0.110687
C47   C     C_R   0.775025 0.854945 0.326422 -0.115075
C48   C     C_R   0.712078 0.776055 0.288890 -0.083904
C49   C     C_R   0.849582 0.421978 0.661765 0.126615
C50   C     C_R   0.783342 0.447552 0.729767 -0.167490
C51   C     C_R   0.717750 0.380431 0.798130 -0.120990
C52   C     C_R   0.713696 0.286467 0.798510 -0.099363
C53   C     C_R   0.778378 0.259735 0.731758 -0.157218
C54   C     C_R   0.847390 0.326887 0.664584 -0.144738
C55   C     C_R   0.504675 0.593451 0.243602 -0.117863
C56   C     C_R   0.353636 0.280329 0.873490 -0.218497
C57   C     C_R   0.392500 0.310246 0.785308 -0.191565
C58   C     C_R   0.426959 0.470862 0.809893 -0.285915
H1    H     H_    0.133020 0.559773 0.618284 0.190080
H2    H     H_    0.326387 0.356108 0.146834 0.144926
H3    H     H_    0.383279 0.628556 0.856143 0.150084
H4    H     H_    0.509386 0.786314 0.094859 0.140015
H5    H     H_    0.759664 0.023521 0.652575 0.139797
H6    H     H_    0.563014 0.234419 0.531489 0.130826
H7    H     H_    0.280443 0.294726 0.361641 0.127981
H8    H     H_    0.218006 0.970152 0.367324 0.155704
H9    H     H_    0.785270 0.865238 0.673349 0.150659
H10   H     H_    0.720767 0.704930 0.636915 0.145930
H11   H     H_    0.433822 0.765926 0.471166 0.130181
H12   H     H_    0.173261 0.652354 0.455690 0.204987
H13   H     H_    0.047660 0.347952 0.499279 0.168554
H14   H     H_    0.657794 0.138207 0.587065 0.137914
H15   H     H_    0.315689 0.854623 0.437476 0.156517
H16   H     H_    0.205981 0.131357 0.334423 0.144507
H17   H     H_    0.081051 0.411187 0.391115 0.203295
H18   H     H_    0.928568 0.602260 0.373191 0.162358
H19   H     H_    0.134990 0.586745 0.366521 0.163699
H20   H     H_    0.928616 0.565863 0.614919 0.180508
H21   H     H_    0.091334 0.435375 0.632929 0.166738
H22   H     H_    0.428377 0.834356 0.240297 0.133284
H23   H     H_    0.299402 0.243355 0.046356 0.145896
H24   H     H_    0.542134 0.973771 0.305072 0.154904
H25   H     H_    0.762526 0.986880 0.361638 0.141811
H26   H     H_    0.872791 0.862376 0.348743 0.162047
H27   H     H_    0.762505 0.722916 0.282148 0.128632
H28   H     H_    0.783902 0.519877 0.730931 0.124122
H29   H     H_    0.669293 0.401317 0.850721 0.150331
H30   H     H_    0.661551 0.234530 0.851035 0.129859
H31   H     H_    0.777417 0.187032 0.733047 0.125927
H32   H     H_    0.902446 0.304055 0.617403 0.115200
H33   H     H_    0.450620 0.453509 0.214332 0.174768
H34   H     H_    0.434315 0.743338 0.954488 0.145950
H35   H     H_    0.327384 0.206184 0.897651 0.136956
H36   H     H_    0.394063 0.258832 0.742430 0.162118
H37   H     H_    0.462390 0.544109 0.785152 0.164750
H38   H     H_    0.838173 0.350972 0.486910 0.157410
I1    I     I_    0.838820 0.418043 0.317799 -0.434904
I2    I     I_    0.964452 0.726570 0.485674 -0.507175
N1    N     N_R   0.573860 0.731700 0.552730 -0.099760
N2    N     N_R   0.426060 0.268290 0.447230 -0.095375
O1    O     O_R   0.462770 0.383110 0.605620 -0.614353
O2    O     O_R   0.510160 0.531900 0.639510 -0.628699
O3    O     O_R   0.661510 0.425600 0.483070 -0.606044
O4    O     O_R   0.708900 0.574390 0.516960 -0.595113
O5    O     O_R   0.489840 0.468100 0.360490 -0.603508
O6    O     O_R   0.537230 0.616890 0.394380 -0.602727
O7    O     O_R   0.291100 0.425610 0.483040 -0.632989
O8    O     O_R   0.338490 0.574400 0.516930 -0.632667
Zn1   Zn    Zn3+2 0.468350 0.400660 0.477370 0.953653
Zn2   Zn    Zn3+2 0.531650 0.599340 0.522630 0.952893

loop_
_geom_bond_atom_site_label_1
_geom_bond_atom_site_label_2
_ccdc_geom_bond_type
C26   H14   S    
C17   H33   S    
C43   C44   A    
C37   I1    S    
C7    C8    A    
C39   C41   S    
C53   C54   A    
C12   C23   S    
C45   C57   A    
C26   C27   A    
C37   C38   S    
C12   C28   S    
C9    H3    S    
C32   C36   A    
C54   H32   S    
C44   H24   S    
C30   C31   A    
C11   C14   A    
C29   H15   S    
C4    C41   S    
C35   H7    S    
C28   O7    A    
O1    Zn1   S    
C49   C54   A    
C14   H4    S    
C4    O3    A    
C56   C57   A    
C18   C19   A    
C24   C29   A    
C46   C47   A    
C31   C32   A    
C31   C33   A    
C9    C10   A    
C17   C55   A    
C16   O6    A    
C25   C32   A    
O3    Zn1   S    
C10   H34   S    
N2    Zn1   S    
C21   C22   A    
C12   C38   S    
O7    Zn1   S    
C23   H12   S    
C44   C46   A    
C38   H17   S    
C56   H35   S    
C45   C58   A    
C8    H23   S    
C52   H30   S    
C24   C25   A    
C18   H9    S    
C3    C8    A    
C51   H29   S    
C19   N1    A    
C39   I2    S    
C25   C26   A    
C47   H26   S    
N1    Zn2   S    
C51   C52   A    
C37   H38   S    
C15   C55   A    
C58   H37   S    
C5    C9    A    
C29   C30   A    
C34   H21   S    
C3    C56   A    
C47   C48   A    
C14   C15   A    
C50   C51   A    
C19   H10   S    
C36   N2    A    
C42   C48   A    
C39   H18   S    
C23   H19   S    
C30   H8    S    
C27   H5    S    
C16   O5    A    
C40   C41   S    
C57   H36   S    
C53   H31   S    
C34   H1    S    
C40   H20   S    
C20   H11   S    
O2    Zn2   S    
C2    C5    A    
C42   C43   A    
C12   C34   S    
C35   N2    A    
C1    O1    A    
C7    H2    S    
C52   C53   A    
O6    Zn2   S    
O5    Zn1   S    
C38   H13   S    
C18   C22   A    
C15   C42   S    
C2    C58   A    
C6    C7    A    
C13   C17   A    
C22   C27   A    
C2    C3    A    
C43   H22   S    
C16   C55   S    
C6    C13   A    
O4    Zn2   S    
C11   C13   A    
C1    C45   S    
C5    C6    A    
C20   N1    A    
C28   O8    A    
C23   C39   S    
C4    O4    A    
C33   C35   A    
O8    Zn2   S    
C37   C41   S    
C10   C11   A    
C50   H28   S    
C46   H25   S    
C33   H16   S    
C20   C21   A    
C49   C50   A    
C21   C24   A    
C48   H27   S    
C34   C40   S    
C36   H6    S    
C1    O2    A    
C40   C49   S    
