data_mof_unit_38766.cif
_audit_creation_date              2012-12-11T15:36:05-0500
_audit_creation_method            fapswitch 2.2
_symmetry_space_group_name_H-M    P1
_symmetry_Int_Tables_number       1
_space_group_crystal_system       triclinic
_cell_length_a                    6.997328
_cell_length_b                    11.927281
_cell_length_c                    35.726686
_cell_angle_alpha                 89.989893
_cell_angle_beta                  90.929501
_cell_angle_gamma                 89.457505
_cell_volume                      2981.19080831

loop_
_atom_site_label
_atom_site_type_symbol
_atom_type_description
_atom_site_fract_x
_atom_site_fract_y
_atom_site_fract_z
_atom_type_partial_charge
O1    O     O_R   0.379730 0.148600 0.662710 -0.538082
O2    O     O_R   0.620270 0.851400 0.337290 -0.539728
O3    O     O_R   0.120270 0.648600 0.337290 -0.538077
O4    O     O_R   0.879730 0.351400 0.662710 -0.537738
O5    O     O_R   0.722480 0.134490 0.741330 -0.532653
O6    O     O_R   0.277520 0.865510 0.258670 -0.531848
O7    O     O_R   0.777520 0.634490 0.258670 -0.539536
O8    O     O_R   0.222480 0.365510 0.741330 -0.544216
O9    O     O_R   0.892880 0.345890 0.741600 -0.539136
O10   O     O_R   0.107120 0.654110 0.258400 -0.534288
O11   O     O_R   0.607120 0.845890 0.258400 -0.541743
O12   O     O_R   0.392880 0.154110 0.741600 -0.544597
C1    C     C_R   0.555266 0.119135 0.756026 0.715461
C2    C     C_R   0.445791 0.886460 0.245361 0.704372
C3    C     C_R   0.946386 0.616230 0.244513 0.715488
C4    C     C_R   0.053693 0.383735 0.755398 0.717352
O13   O     O_R   0.709490 0.135560 0.662990 -0.535583
O14   O     O_R   0.290510 0.864440 0.337010 -0.535135
O15   O     O_R   0.790510 0.635560 0.337010 -0.535470
O16   O     O_R   0.209490 0.364440 0.662990 -0.535511
C5    C     C_R   0.540471 0.106430 0.651363 0.745694
C6    C     C_R   0.459405 0.893328 0.348790 0.735649
C7    C     C_R   0.960507 0.606601 0.348704 0.743135
C8    C     C_R   0.039429 0.393261 0.651279 0.745394
O17   O     O_3   0.552800 0.316610 0.702160 -0.367214
O18   O     O_3   0.447200 0.683390 0.297840 -0.363914
O19   O     O_3   0.947200 0.816610 0.297840 -0.366138
O20   O     O_3   0.052800 0.183390 0.702160 -0.366371
V1    V     V_3+5 0.827630 0.234380 0.702160 1.487819
V2    V     V_3+5 0.172370 0.765620 0.297840 1.496783
V3    V     V_3+5 0.672370 0.734380 0.297840 1.481417
V4    V     V_3+5 0.327630 0.265620 0.702160 1.472166
C9    C     C_R   0.030113 0.631537 0.922515 0.559356
C10   C     C_R   0.005017 0.350288 0.080096 0.539750
C11   C     C_R   0.531746 0.189339 0.091935 0.528219
C12   C     C_R   0.533855 0.895319 0.927910 0.562853
O21   O     O_2   0.035368 0.521065 0.930512 -0.553097
O22   O     O_2   0.982880 0.459329 0.070945 -0.556475
O23   O     O_2   0.577752 0.082023 0.084118 -0.555395
O24   O     O_2   0.524571 0.006315 0.934799 -0.551830
N1    N     N_R   0.026822 0.666557 0.885855 -0.541386
N2    N     N_R   0.004983 0.317486 0.117102 -0.546012
N3    N     N_R   0.492976 0.222111 0.128237 -0.543768
N4    N     N_R   0.542085 0.857125 0.891575 -0.542827
C13   C     C_R   0.019051 0.779021 0.877777 0.581185
C14   C     C_R   0.018416 0.204504 0.125473 0.558235
C15   C     C_R   0.472644 0.335727 0.135324 0.544146
C16   C     C_R   0.554718 0.743903 0.884956 0.547341
C17   C     C_R   0.177898 0.602547 0.827452 -0.120213
C18   C     C_R   0.872074 0.372627 0.178605 -0.065517
C19   C     C_R   0.523822 0.160495 0.196381 -0.060091
C20   C     C_R   0.410691 0.909162 0.828842 -0.092697
C21   C     C_R   0.182048 0.537147 0.795266 -0.152957
C22   C     C_R   0.856266 0.443164 0.209567 -0.147775
C23   C     C_R   0.520737 0.077644 0.223875 -0.151133
C24   C     C_R   0.416321 0.969534 0.795480 -0.152291
C25   C     C_R   0.909594 0.434814 0.817223 -0.217142
C26   C     C_R   0.064063 0.574591 0.179706 -0.202544
C27   C     C_R   0.395942 0.946370 0.178901 -0.224752
C28   C     C_R   0.665881 0.084219 0.822155 -0.210147
C29   C     C_R   0.909920 0.499334 0.850128 -0.048332
C30   C     C_R   0.071894 0.504876 0.147935 -0.056688
C31   C     C_R   0.407748 0.027889 0.150776 -0.062847
C32   C     C_R   0.653784 0.025751 0.856210 -0.078004
C33   C     C_R   0.039869 0.587368 0.854976 0.374426
C34   C     C_R   0.982468 0.399315 0.147532 0.357917
C35   C     C_R   0.475575 0.137515 0.158352 0.365551
C36   C     C_R   0.532896 0.932948 0.859420 0.365151
C37   C     C_R   0.037170 0.826208 0.943820 -0.048895
C38   C     C_R   0.022791 0.154956 0.059522 -0.025781
C39   C     C_R   0.517446 0.382578 0.069744 -0.019185
C40   C     C_R   0.529880 0.702530 0.951244 -0.039920
C41   C     C_R   0.029598 0.710884 0.952074 -0.041425
C42   C     C_R   0.022638 0.270154 0.051028 -0.041041
C43   C     C_R   0.529631 0.267388 0.062154 -0.048687
C44   C     C_R   0.533047 0.818556 0.958371 -0.034512
C45   C     C_R   0.025617 0.677563 0.989550 -0.118376
C46   C     C_R   0.033598 0.302944 0.013576 -0.109030
C47   C     C_R   0.545589 0.232121 0.024993 -0.111275
C48   C     C_R   0.531218 0.854963 0.995612 -0.118190
C49   C     C_R   0.040746 0.859530 0.906211 -0.054873
C50   C     C_R   0.013496 0.122527 0.097106 -0.008091
C51   C     C_R   0.502133 0.416720 0.107042 -0.019636
C52   C     C_R   0.531899 0.665911 0.913975 -0.053748
C53   C     C_R   0.045216 0.454242 0.789318 -0.046625
C54   C     C_R   0.957147 0.543420 0.211006 -0.045532
C55   C     C_R   0.455764 0.970609 0.215474 -0.025825
C56   C     C_R   0.548685 0.055101 0.791332 -0.038743
H1    H     H_    0.806051 0.368499 0.813915 0.112409
H2    H     H_    0.139380 0.653526 0.179630 0.103879
H3    H     H_    0.341800 0.863995 0.171976 0.097877
H4    H     H_    0.764086 0.153499 0.820088 0.105389
H5    H     H_    0.808794 0.480818 0.871489 0.134106
H6    H     H_    0.151930 0.532914 0.124362 0.153126
H7    H     H_    0.358608 0.004032 0.123282 0.154363
H8    H     H_    0.739938 0.052463 0.879675 0.144768
H9    H     H_    0.022115 0.589657 0.996927 0.167914
H10   H     H_    0.033191 0.390750 0.005985 0.170572
H11   H     H_    0.558749 0.143996 0.018161 0.167355
H12   H     H_    0.532233 0.943558 0.002156 0.161482
C57   C     C_R   0.021087 0.956225 0.039815 0.043222
C58   C     C_R   0.051496 0.024194 0.963782 0.064743
C59   C     C_R   0.520890 0.506248 0.972880 0.044038
C60   C     C_R   0.523303 0.580050 0.048649 0.061668
C61   C     C_R   0.043692 0.106780 0.992671 0.013395
C62   C     C_R   0.027852 0.873593 0.010866 0.019734
C63   C     C_R   0.526701 0.660617 0.018877 0.017803
C64   C     C_R   0.527622 0.426184 0.002487 0.007567
C65   C     C_R   0.029774 0.072301 0.030547 0.069435
C66   C     C_R   0.039143 0.908298 0.972975 0.068451
C67   C     C_R   0.525749 0.622912 0.981163 0.068812
C68   C     C_R   0.522683 0.463343 0.040177 0.097783
C69   C     C_R   0.001344 0.927278 0.077947 -0.164514
C70   C     C_R   0.072648 0.053133 0.925685 -0.112874
C71   C     C_R   0.504538 0.473725 0.934929 -0.103568
C72   C     C_R   0.523197 0.611309 0.086888 -0.162705
C73   C     C_R   0.997586 0.008637 0.105833 -0.112453
C74   C     C_R   0.066871 0.972388 0.897631 -0.161564
C75   C     C_R   0.509500 0.552131 0.906229 -0.141276
C76   C     C_R   0.513043 0.531347 0.115330 -0.158283
O25   O     O_2   0.040741 0.170065 0.161262 -0.528473
O26   O     O_2   0.983800 0.813280 0.842309 -0.510237
O27   O     O_2   0.597049 0.706269 0.850438 -0.518499
O28   O     O_2   0.418736 0.372354 0.169216 -0.537334
C77   C     C_R   0.024332 0.756713 0.018308 -0.153010
C78   C     C_R   0.044795 0.223518 0.985060 -0.165858
C79   C     C_R   0.543127 0.309397 0.995782 -0.161285
C80   C     C_R   0.528682 0.778128 0.025202 -0.162300
H13   H     H_    0.769288 0.417700 0.232812 0.162300
H14   H     H_    0.290736 0.552901 0.774708 0.166960
H15   H     H_    0.320676 0.947295 0.772566 0.159070
H16   H     H_    0.566082 0.098128 0.252138 0.157208
H17   H     H_    0.799570 0.294980 0.178628 0.142245
H18   H     H_    0.281986 0.666280 0.830656 0.158130
H19   H     H_    0.312537 0.841947 0.830513 0.154247
H20   H     H_    0.563496 0.241473 0.206572 0.157891
H21   H     H_    0.982876 0.981436 0.134575 0.154942
H22   H     H_    0.080183 0.999482 0.868853 0.150841
H23   H     H_    0.493627 0.523000 0.877652 0.140598
H24   H     H_    0.509801 0.560194 0.144075 0.153300
H25   H     H_    0.987252 0.842166 0.087429 0.110834
H26   H     H_    0.093390 0.137822 0.916317 0.112707
H27   H     H_    0.483829 0.388085 0.926345 0.113578
H28   H     H_    0.528384 0.697310 0.095952 0.110330
H29   H     H_    0.021775 0.722751 0.046199 0.140645
H30   H     H_    0.050291 0.257219 0.957165 0.142097
H31   H     H_    0.559321 0.274579 0.968190 0.142247
H32   H     H_    0.527825 0.814133 0.052826 0.138042
C81   C     C_R   0.968878 0.525940 0.379396 -0.088394
C82   C     C_R   0.030455 0.473524 0.620519 -0.089897
C83   C     C_R   0.533696 0.026213 0.620624 -0.091267
C84   C     C_R   0.465419 0.973733 0.379594 -0.087740
C85   C     C_R   0.904843 0.342618 0.404676 -0.180941
C86   C     C_R   0.085095 0.658101 0.595414 -0.183583
C87   C     C_R   0.588222 0.840905 0.595624 -0.183209
C88   C     C_R   0.397869 0.157137 0.405067 -0.178496
C89   C     C_R   0.915581 0.414021 0.373966 0.160305
C90   C     C_R   0.074538 0.586672 0.626145 0.154871
C91   C     C_R   0.576897 0.912512 0.626336 0.153194
C92   C     C_R   0.407963 0.085690 0.374369 0.153304
C93   C     C_R   0.008508 0.565992 0.415376 -0.259006
C94   C     C_R   0.997156 0.432499 0.584458 -0.258314
C95   C     C_R   0.501425 0.067565 0.584546 -0.257639
C96   C     C_R   0.508503 0.933597 0.415508 -0.257019
C97   C     C_R   0.988788 0.496737 0.447137 0.085656
C98   C     C_R   0.012179 0.502470 0.552775 0.086187
C99   C     C_R   0.515797 0.997262 0.552917 0.086645
C100  C     C_R   0.488350 0.002851 0.447323 0.085066
C101  C     C_R   0.938499 0.383073 0.441030 0.083584
C102  C     C_R   0.056984 0.616895 0.558960 0.084909
C103  C     C_R   0.560523 0.882354 0.559136 0.085136
C104  C     C_R   0.435362 0.116709 0.441304 0.084807
C105  C     C_R   0.012341 0.537215 0.484597 0.060665
C106  C     C_R   0.988428 0.462065 0.515322 0.060360
C107  C     C_R   0.490697 0.037746 0.515486 0.060780
C108  C     C_R   0.514018 0.962292 0.484762 0.060401
C109  C     C_R   0.941480 0.349141 0.507572 -0.194594
C110  C     C_R   0.055885 0.650593 0.492379 -0.194385
C111  C     C_R   0.558215 0.848509 0.492543 -0.194382
C112  C     C_R   0.442126 0.150985 0.507776 -0.194815
C113  C     C_R   0.917334 0.310909 0.471211 -0.185442
C114  C     C_R   0.076851 0.689245 0.528779 -0.184731
C115  C     C_R   0.579984 0.809713 0.528959 -0.184581
C116  C     C_R   0.415137 0.189170 0.471468 -0.185681
H33   H     H_    0.879209 0.223940 0.466713 0.142315
H34   H     H_    0.110824 0.776789 0.533315 0.141905
H35   H     H_    0.613885 0.721788 0.533510 0.142128
H36   H     H_    0.375335 0.276337 0.467006 0.142470
H37   H     H_    0.967680 0.344311 0.582284 0.107259
H38   H     H_    0.046722 0.653015 0.417459 0.108313
H39   H     H_    0.550214 0.846653 0.417530 0.108676
H40   H     H_    0.472632 0.156143 0.582342 0.106993
H41   H     H_    0.864453 0.256053 0.400193 0.154328
H42   H     H_    0.119640 0.745495 0.599997 0.152872
H43   H     H_    0.622273 0.753085 0.600257 0.152887
H44   H     H_    0.354788 0.243777 0.400681 0.154138
H45   H     H_    0.919482 0.287322 0.528950 0.129126
H46   H     H_    0.074534 0.712841 0.471003 0.128763
H47   H     H_    0.575963 0.786021 0.471148 0.128793
H48   H     H_    0.420309 0.213066 0.529144 0.129185
I1    I     I_    0.129272 0.652982 0.680321 -0.340942
I2    I     I_    0.845431 0.349193 0.320250 -0.368957
I3    I     I_    0.330283 0.151273 0.321138 -0.363167
I4    I     I_    0.627856 0.845627 0.680641 -0.327282

loop_
_geom_bond_atom_site_label_1
_geom_bond_atom_site_label_2
_ccdc_geom_bond_type
C25   H1    S    
C26   C30   A    
C17   H18   S    
C84   C92   A    
O1    C5    A    
O13   V1    S    
O3    C7    A    
C10   N2    A    
C40   C44   A    
O15   V3    S    
C92   I3    S    
C28   C56   A    
C105  C106  A    
C102  C114  A    
C16   C52   A    
C62   C77   A    
C11   C43   A    
C18   C22   A    
C17   C33   A    
C61   C78   A    
C87   C103  A    
C112  H48   S    
C32   C36   A    
C47   H11   S    
O20   V1    S    
C88   H44   S    
O9    C4    A    
C63   C80   A    
C86   C90   A    
O10   C3    A    
N4    C36   S    
C60   C72   A    
O4    C8    A    
O11   C2    A    
C109  C113  A    
C24   C56   A    
C57   C65   A    
C31   H7    S    
C57   C69   A    
C86   C102  A    
C58   C61   A    
C59   C67   A    
C19   H20   S    
C15   O28   S    
O10   V2    S    
C47   C79   A    
C12   C44   A    
C72   H28   S    
C81   C93   A    
C48   H12   S    
C108  C111  A    
C82   C90   A    
O16   C8    A    
C25   C53   A    
C23   C55   A    
C46   H10   S    
C112  C116  A    
C14   O25   S    
C45   H9    S    
C95   H40   S    
C76   H24   S    
C15   C51   A    
C96   H39   S    
C11   N3    A    
O5    C1    A    
O4    V1    S    
C20   C36   A    
O9    V1    S    
O17   V4    S    
O7    C3    A    
C110  H46   S    
C40   C67   A    
O11   V3    S    
O18   V3    S    
O8    C4    A    
C14   C50   A    
O12   V4    S    
O19   V2    S    
C116  H36   S    
C21   C53   A    
C16   O27   S    
C73   H21   S    
C26   C54   A    
O20   V4    S    
O16   V4    S    
C111  C115  A    
C28   H4    S    
C97   C101  A    
C82   C94   A    
C6    C84   S    
C98   C106  A    
O7    V3    S    
C30   C34   A    
C87   C91   A    
O8    V4    S    
C12   O24   S    
C37   C49   A    
C32   H8    S    
C22   C54   A    
C113  H33   S    
O15   C7    A    
C7    C81   S    
N1    C33   S    
C48   C80   A    
C19   C23   A    
O19   V3    S    
C49   C74   A    
C88   C104  A    
O1    V4    S    
O13   C5    A    
C72   C76   A    
C71   C75   A    
O2    V3    S    
C83   C91   A    
C51   C76   A    
O3    V2    S    
C11   O23   S    
C31   C35   A    
C38   C42   A    
C59   C71   A    
C58   C70   A    
C38   C65   A    
C115  H35   S    
O6    C2    A    
C18   C34   A    
C37   C66   A    
C104  C116  A    
C107  C108  A    
C88   C92   A    
C95   C99   A    
C39   C68   A    
C58   C66   A    
C70   C74   A    
C60   C63   A    
C37   C41   A    
C26   H2    S    
C106  C109  A    
C101  C113  A    
C40   C52   A    
C8    C82   S    
C10   C42   A    
C3    C54   S    
O14   V2    S    
C96   C100  A    
C9    C41   A    
O6    V2    S    
C98   C102  A    
N3    C15   A    
C83   C95   A    
C30   H6    S    
N2    C14   A    
C4    C53   S    
C69   C73   A    
C27   H3    S    
C12   N4    A    
C43   C47   A    
C20   H19   S    
C46   C78   A    
O5    V1    S    
C70   H26   S    
C45   C77   A    
C60   C68   A    
C62   C66   A    
C103  C115  A    
C57   C62   A    
C100  C108  A    
C22   H13   S    
C61   C65   A    
N1    C13   A    
C109  H45   S    
C10   O22   S    
C63   C67   A    
C80   H32   S    
C44   C48   A    
C93   H38   S    
C84   C96   A    
C18   H17   S    
C2    C55   S    
C29   C33   A    
C25   C29   A    
C107  C112  A    
C21   H14   S    
C13   O26   S    
C110  C114  A    
C27   C31   A    
C78   H30   S    
C99   C103  A    
C28   C32   A    
C9    N1    A    
O14   C6    A    
C75   H23   S    
C77   H29   S    
O2    C6    A    
C111  H47   S    
C39   C43   A    
O17   V1    S    
C91   I4    S    
C19   C35   A    
C20   C24   A    
C105  C110  A    
C52   C75   A    
C17   C21   A    
C1    C56   S    
C114  H34   S    
C71   H27   S    
C69   H25   S    
C9    O21   S    
C94   C98   A    
C99   C107  A    
C13   C49   A    
C5    C83   S    
C64   C79   A    
C85   C89   A    
C38   C50   A    
C27   C55   A    
C24   H15   S    
C87   H43   S    
C86   H42   S    
C64   C68   A    
C100  C104  A    
C85   H41   S    
O12   C1    A    
N3    C35   S    
C23   H16   S    
C42   C46   A    
C85   C101  A    
N2    C34   S    
C90   I1    S    
C41   C45   A    
C59   C64   A    
C39   C51   A    
C89   I2    S    
C50   C73   A    
C81   C89   A    
C74   H22   S    
C29   H5    S    
C97   C105  A    
C94   H37   S    
C93   C97   A    
N4    C16   A    
C79   H31   S    
O18   V2    S    
