data_mof_unit_65805.cif
_audit_creation_date              2012-12-10T16:58:32-0500
_audit_creation_method            fapswitch 2.2
_symmetry_space_group_name_H-M    P1
_symmetry_Int_Tables_number       1
_space_group_crystal_system       triclinic
_cell_length_a                    30.488788
_cell_length_b                    31.037308
_cell_length_c                    24.310028
_cell_angle_alpha                 90.00053
_cell_angle_beta                  127.178272
_cell_angle_gamma                 90.00006
_cell_volume                      18328.9134149

loop_
_atom_site_label
_atom_site_type_symbol
_atom_type_description
_atom_site_fract_x
_atom_site_fract_y
_atom_site_fract_z
_atom_type_partial_charge
C1    C     C_R   0.807139 0.809010 0.494644 0.944180
C2    C     C_R   0.535849 0.749300 0.069537 0.269324
C3    C     C_R   0.932801 0.278299 0.818489 -0.190007
C4    C     C_R   0.574315 0.748009 0.144810 0.067325
C5    C     C_R   0.425675 0.748031 0.855193 0.067355
C6    C     C_R   0.074307 0.247987 0.144817 0.067297
C7    C     C_R   0.925668 0.248039 0.855198 0.067391
C8    C     C_R   0.616586 0.716664 0.180694 0.122456
C9    C     C_R   0.383191 0.716852 0.819325 0.122440
C10   C     C_R   0.116337 0.216459 0.180717 0.122469
C11   C     C_R   0.882924 0.217064 0.819343 0.122429
C12   C     C_R   0.652230 0.717985 0.253016 -0.218829
C13   C     C_R   0.964156 0.249313 0.930466 0.269336
C14   C     C_R   0.347561 0.718158 0.747002 -0.218828
C15   C     C_R   0.151998 0.217794 0.253038 -0.218821
C16   C     C_R   0.847308 0.218363 0.747020 -0.218838
C17   C     C_1   0.860251 0.803721 0.852986 0.174256
C18   C     C_1   0.139737 0.803732 0.147014 0.174246
C19   C     C_1   0.360311 0.303796 0.852981 0.174261
C20   C     C_1   0.639850 0.303600 0.147014 0.174248
C21   C     C_3   0.623504 0.680694 0.144219 -0.434505
C22   C     C_3   0.576883 0.647454 0.113322 -0.333822
C23   C     C_3   0.583524 0.611805 0.075664 -0.860351
C24   C     C_R   0.035852 0.249284 0.069541 0.269321
C25   C     C_3   0.376016 0.681072 0.855827 -0.434571
C26   C     C_3   0.422379 0.647599 0.886711 -0.333777
C27   C     C_3   0.415528 0.612176 0.924481 -0.860441
C28   C     C_3   0.122970 0.180284 0.144267 -0.434468
C29   C     C_3   0.076080 0.147294 0.113380 -0.333862
C30   C     C_3   0.082446 0.111429 0.075768 -0.860264
C31   C     C_3   0.875447 0.181500 0.855861 -0.434628
C32   C     C_3   0.921512 0.147761 0.886738 -0.333741
C33   C     C_3   0.914339 0.112539 0.924478 -0.860497
C34   C     C_1   0.921492 0.901802 0.573997 0.215810
C35   C     C_2   0.850725 0.907717 0.448777 -0.258766
C36   C     C_1   0.078518 0.901814 0.426002 0.215798
C37   C     C_1   0.421489 0.401806 0.573997 0.215798
C38   C     C_1   0.578496 0.401788 0.426001 0.215803
C39   C     C_1   0.757289 0.889286 0.414794 0.218985
C40   C     C_1   0.242712 0.889284 0.585215 0.219005
C41   C     C_1   0.257287 0.389282 0.414783 0.218937
C42   C     C_1   0.742705 0.389302 0.585174 0.219068
C43   C     C_2   0.149275 0.907716 0.551226 -0.258779
C44   C     C_2   0.350725 0.407716 0.448775 -0.258759
C45   C     C_2   0.649275 0.407721 0.551216 -0.258790
C46   C     C_2   0.902407 0.915345 0.505408 -0.180131
C47   C     C_2   0.097595 0.915348 0.494592 -0.180128
C48   C     C_2   0.402406 0.415346 0.505408 -0.180133
C49   C     C_R   0.192860 0.809010 0.505354 0.944184
C50   C     C_2   0.597589 0.415342 0.494589 -0.180114
C51   C     C_2   0.814538 0.877872 0.450664 0.024539
C52   C     C_2   0.185461 0.877871 0.549338 0.024514
C53   C     C_2   0.314538 0.377871 0.450661 0.024568
C54   C     C_2   0.685461 0.377878 0.549328 0.024484
C55   C     C_2   0.835815 0.840008 0.482916 -0.371885
C56   C     C_2   0.164182 0.840009 0.517079 -0.371892
C57   C     C_2   0.335817 0.340008 0.482918 -0.371865
C58   C     C_2   0.664188 0.340009 0.517091 -0.371924
C59   C     C_R   0.840253 0.775466 0.746488 -0.223766
C60   C     C_R   0.307139 0.309010 0.494644 0.944172
C61   C     C_R   0.159742 0.775471 0.253512 -0.223770
C62   C     C_R   0.340281 0.275501 0.746487 -0.223760
C63   C     C_R   0.659794 0.275407 0.253513 -0.223789
C64   C     C_R   0.875455 0.776835 0.818433 0.019273
C65   C     C_R   0.124538 0.776841 0.181567 0.019271
C66   C     C_R   0.375486 0.276873 0.818432 0.019268
C67   C     C_R   0.624594 0.276774 0.181568 0.019276
C68   C     C_R   0.925391 0.753538 0.854876 0.040319
C69   C     C_R   0.074606 0.753539 0.145124 0.040319
C70   C     C_R   0.425398 0.253544 0.854877 0.040317
C71   C     C_R   0.692862 0.309010 0.505358 0.944192
C72   C     C_R   0.574615 0.253535 0.145126 0.040305
C73   C     C_R   0.939084 0.729499 0.818360 -0.170157
C74   C     C_R   0.060916 0.729495 0.181639 -0.170160
C75   C     C_R   0.439064 0.229470 0.818362 -0.170164
C76   C     C_R   0.560878 0.229553 0.181644 -0.170144
C77   C     C_R   0.682871 0.749762 0.365077 0.872051
C78   C     C_R   0.317129 0.749763 0.634924 0.872078
C79   C     C_R   0.182871 0.249761 0.365078 0.872029
C80   C     C_R   0.817130 0.249763 0.634926 0.872095
C81   C     C_R   0.903626 0.728111 0.746720 -0.186807
C82   C     C_R   0.645661 0.749097 0.289389 -0.064144
C83   C     C_R   0.096375 0.728106 0.253279 -0.186810
C84   C     C_R   0.403605 0.228081 0.746722 -0.186826
C85   C     C_R   0.596335 0.228164 0.253284 -0.186792
C86   C     C_R   0.854071 0.751134 0.710342 -0.052189
C87   C     C_R   0.145927 0.751134 0.289657 -0.052193
C88   C     C_R   0.354073 0.251136 0.710343 -0.052192
C89   C     C_R   0.645931 0.251131 0.289659 -0.052177
C90   C     C_R   0.035917 0.753824 0.069618 0.281163
C91   C     C_R   0.964079 0.753824 0.930383 0.281166
C92   C     C_R   0.535927 0.253822 0.069620 0.281170
C93   C     C_R   0.354338 0.749103 0.710615 -0.064177
C94   C     C_R   0.464087 0.253828 0.930384 0.281171
C95   C     C_2   0.648841 0.590303 0.545418 -0.151250
C96   C     C_2   0.351159 0.590302 0.454585 -0.151254
C97   C     C_2   0.148841 0.090303 0.545417 -0.151243
C98   C     C_2   0.851159 0.090302 0.454584 -0.151260
C99   C     C_2   0.594621 0.588095 0.495482 -0.332237
C100  C     C_2   0.405380 0.588096 0.504520 -0.332224
C101  C     C_2   0.094621 0.088095 0.495482 -0.332245
C102  C     C_2   0.905380 0.088095 0.504519 -0.332215
C103  C     C_2   0.681952 0.621177 0.539539 -0.151028
C104  C     C_R   0.145660 0.249091 0.289393 -0.064107
C105  C     C_2   0.318049 0.621175 0.460463 -0.151018
C106  C     C_2   0.181952 0.121177 0.539539 -0.151045
C107  C     C_2   0.818049 0.121176 0.460462 -0.150999
C108  C     C_2   0.660435 0.659356 0.509683 -0.337541
C109  C     C_2   0.339565 0.659356 0.490318 -0.337536
C110  C     C_2   0.160435 0.159356 0.509682 -0.337545
C111  C     C_2   0.839565 0.159356 0.490317 -0.337533
C112  C     C_R   0.439770 0.558434 0.500907 0.930953
C113  C     C_R   0.560230 0.558434 0.499093 0.930958
C114  C     C_R   0.939770 0.058434 0.500907 0.930953
C115  C     C_R   0.854337 0.249106 0.710619 -0.064205
C116  C     C_R   0.060230 0.058434 0.499093 0.930955
C117  C     C_R   0.939147 0.942147 0.501065 0.895897
C118  C     C_R   0.060853 0.942147 0.498935 0.895890
C119  C     C_R   0.439147 0.442147 0.501065 0.895893
C120  C     C_R   0.560851 0.442146 0.498935 0.895889
C121  C     C_R   0.691283 0.690775 0.502457 0.938061
C122  C     C_R   0.308717 0.690775 0.497543 0.938080
C123  C     C_R   0.191283 0.190775 0.502457 0.938044
C124  C     C_R   0.808717 0.190775 0.497543 0.938096
C125  C     C_R   0.817043 0.750235 0.634833 0.880282
C126  C     C_R   0.464152 0.749313 0.930462 0.269342
C127  C     C_R   0.182956 0.750235 0.365167 0.880280
C128  C     C_R   0.317044 0.250235 0.634833 0.880285
C129  C     C_R   0.682957 0.250234 0.365168 0.880283
C130  C     C_R   0.603016 0.779279 0.253126 -0.186391
C131  C     C_R   0.397181 0.779127 0.746867 -0.186339
C132  C     C_R   0.103241 0.279451 0.253119 -0.186441
C133  C     C_R   0.897427 0.278928 0.746863 -0.186310
C134  C     C_R   0.567642 0.778646 0.181500 -0.189970
C135  C     C_R   0.432555 0.778498 0.818494 -0.189988
C136  C     C_R   0.067866 0.278814 0.181493 -0.189948
H1    H     H_    0.597059 0.803554 0.280058 0.169044
H2    H     H_    0.084800 0.709212 0.280133 0.161565
H3    H     H_    0.415163 0.209164 0.719869 0.161565
H4    H     H_    0.584722 0.209319 0.280140 0.161559
H5    H     H_    0.669181 0.568471 0.589250 0.167944
H6    H     H_    0.330819 0.568468 0.410753 0.167939
H7    H     H_    0.169181 0.068471 0.589250 0.167945
H8    H     H_    0.830819 0.068468 0.410753 0.167940
H9    H     H_    0.575312 0.606446 0.448010 0.159343
H10   H     H_    0.424690 0.606448 0.551991 0.159351
H11   H     H_    0.075311 0.106446 0.448010 0.159331
H12   H     H_    0.403304 0.803270 0.719928 0.169020
H13   H     H_    0.924690 0.106448 0.551991 0.159362
H14   H     H_    0.724390 0.613222 0.561906 0.168846
H15   H     H_    0.275610 0.613220 0.438097 0.168843
H16   H     H_    0.224390 0.113222 0.561906 0.168843
H17   H     H_    0.775610 0.113220 0.438097 0.168848
H18   H     H_    0.620261 0.669195 0.494408 0.158976
H19   H     H_    0.379738 0.669195 0.505591 0.158970
H20   H     H_    0.120261 0.169195 0.494408 0.158982
H21   H     H_    0.879738 0.169195 0.505590 0.158963
H22   H     H_    0.535165 0.802515 0.154455 0.155442
H23   H     H_    0.097472 0.303874 0.280042 0.169067
H24   H     H_    0.465196 0.802237 0.845531 0.155396
H25   H     H_    0.035573 0.302825 0.154438 0.155471
H26   H     H_    0.965642 0.301877 0.845518 0.155378
H27   H     H_    0.684624 0.694146 0.281104 0.156133
H28   H     H_    0.315006 0.694442 0.718929 0.156170
H29   H     H_    0.184207 0.193818 0.281142 0.156092
H30   H     H_    0.814552 0.194805 0.718959 0.156214
H31   H     H_    0.834891 0.923084 0.399847 0.175335
H32   H     H_    0.165104 0.923076 0.600159 0.175344
H33   H     H_    0.334893 0.423080 0.399844 0.175336
H34   H     H_    0.903757 0.302907 0.719918 0.168985
H35   H     H_    0.665113 0.423096 0.600143 0.175335
H36   H     H_    0.876702 0.830587 0.500115 0.159255
H37   H     H_    0.123293 0.830589 0.499873 0.159254
H38   H     H_    0.376705 0.330588 0.500122 0.159254
H39   H     H_    0.623307 0.330583 0.499908 0.159260
H40   H     H_    0.802093 0.793578 0.718711 0.162726
H41   H     H_    0.197899 0.793587 0.281290 0.162726
H42   H     H_    0.302140 0.293639 0.718709 0.162735
H43   H     H_    0.697988 0.293474 0.281290 0.162708
H44   H     H_    0.581304 0.625480 0.031806 0.265131
H45   H     H_    0.977133 0.711336 0.845395 0.154347
H46   H     H_    0.623599 0.595120 0.111547 0.263806
H47   H     H_    0.549940 0.587856 0.055133 0.250203
H48   H     H_    0.577246 0.632862 0.155365 0.226643
H49   H     H_    0.536223 0.662982 0.076131 0.232888
H50   H     H_    0.625909 0.694098 0.103842 0.223031
H51   H     H_    0.663245 0.663703 0.181163 0.198094
H52   H     H_    0.417939 0.626029 0.968379 0.265106
H53   H     H_    0.375307 0.595666 0.888685 0.263814
H54   H     H_    0.448905 0.588038 0.944969 0.250213
H55   H     H_    0.421847 0.632820 0.844648 0.226650
H56   H     H_    0.022870 0.711328 0.154604 0.154349
H57   H     H_    0.463165 0.662966 0.923826 0.232897
H58   H     H_    0.373738 0.694648 0.896218 0.223048
H59   H     H_    0.336142 0.664243 0.818904 0.198072
H60   H     H_    0.080362 0.124932 0.031916 0.265135
H61   H     H_    0.122378 0.094563 0.111681 0.263816
H62   H     H_    0.048661 0.087673 0.055232 0.250196
H63   H     H_    0.076310 0.132880 0.155424 0.226630
H64   H     H_    0.035549 0.162995 0.076162 0.232876
H65   H     H_    0.125493 0.193501 0.103891 0.223032
H66   H     H_    0.162571 0.163124 0.181227 0.198103
H67   H     H_    0.477093 0.211281 0.845397 0.154351
H68   H     H_    0.916831 0.126539 0.968354 0.265101
H69   H     H_    0.873986 0.096212 0.888652 0.263791
H70   H     H_    0.947522 0.088216 0.944998 0.250225
H71   H     H_    0.920860 0.132829 0.844675 0.226681
H72   H     H_    0.962430 0.162934 0.923871 0.232891
H73   H     H_    0.873301 0.195263 0.896261 0.223031
H74   H     H_    0.835422 0.164860 0.818950 0.198094
H75   H     H_    0.522796 0.211433 0.154610 0.154361
H76   H     H_    0.915204 0.709220 0.719866 0.161562
N1    N     N_R   0.554418 0.749778 0.031056 -0.175915
N2    N     N_R   0.980927 0.753434 0.037466 -0.165768
N3    N     N_R   0.519076 0.253376 0.962535 -0.165790
N4    N     N_R   0.480936 0.253497 0.037469 -0.165764
N5    N     N_R   0.054393 0.753484 0.031011 -0.157456
N6    N     N_R   0.945603 0.753481 0.968990 -0.157454
N7    N     N_R   0.554401 0.253420 0.031011 -0.157462
N8    N     N_R   0.445612 0.253546 0.968993 -0.157446
N9    N     N_1   0.848014 0.825295 0.880568 -0.181639
N10   N     N_1   0.151970 0.825311 0.119432 -0.181630
N11   N     N_1   0.348097 0.325400 0.880561 -0.181634
N12   N     N_R   0.519116 0.749824 0.962552 -0.177108
N13   N     N_1   0.652128 0.325125 0.119431 -0.181638
N14   N     N_1   0.936711 0.891109 0.628536 -0.196476
N15   N     N_1   0.063306 0.891128 0.371462 -0.196498
N16   N     N_1   0.436705 0.391116 0.628536 -0.196490
N17   N     N_1   0.563271 0.391087 0.371462 -0.196489
N18   N     N_1   0.711483 0.898412 0.386039 -0.209892
N19   N     N_1   0.288519 0.898409 0.613975 -0.209800
N20   N     N_1   0.211479 0.398404 0.386022 -0.210012
N21   N     N_1   0.788506 0.398435 0.613909 -0.209669
N22   N     N_R   0.054424 0.249420 0.031060 -0.175926
N23   N     N_R   0.019123 0.249473 0.962556 -0.177106
N24   N     N_R   0.445588 0.750140 0.968940 -0.175888
N25   N     N_R   0.480890 0.750172 0.037444 -0.177106
N26   N     N_R   0.945600 0.250483 0.968943 -0.175886
N27   N     N_R   0.980902 0.250508 0.037447 -0.177103
N28   N     N_R   0.019069 0.753436 0.962535 -0.165770
O1    O     O_R   0.820760 0.769680 0.499980 -0.622362
O2    O     O_R   0.073990 0.954760 0.557490 -0.623219
O3    O     O_R   0.426010 0.454760 0.442510 -0.623219
O4    O     O_R   0.573990 0.454760 0.557490 -0.623218
O5    O     O_R   0.983520 0.954760 0.557520 -0.613641
O6    O     O_R   0.016480 0.954760 0.442480 -0.613650
O7    O     O_R   0.483520 0.454760 0.557520 -0.613646
O8    O     O_R   0.516480 0.454760 0.442480 -0.613646
O9    O     O_R   0.769670 0.820760 0.499990 -0.602132
O10   O     O_R   0.230330 0.820760 0.500010 -0.602123
O11   O     O_R   0.269670 0.320760 0.499990 -0.602151
O12   O     O_R   0.179240 0.769680 0.500020 -0.622380
O13   O     O_R   0.730330 0.320760 0.500010 -0.602100
O14   O     O_R   0.724610 0.724460 0.398130 -0.627444
O15   O     O_R   0.275390 0.724460 0.601870 -0.627465
O16   O     O_R   0.224610 0.224460 0.398130 -0.627420
O17   O     O_R   0.775390 0.224460 0.601870 -0.627493
O18   O     O_R   0.673520 0.775530 0.398150 -0.622728
O19   O     O_R   0.326480 0.775530 0.601850 -0.622746
O20   O     O_R   0.173520 0.275530 0.398150 -0.622705
O21   O     O_R   0.826480 0.275530 0.601850 -0.622769
O22   O     O_R   0.730310 0.679220 0.500010 -0.615772
O23   O     O_R   0.320760 0.269680 0.499980 -0.622337
O24   O     O_R   0.269690 0.679220 0.499990 -0.615745
O25   O     O_R   0.230310 0.179220 0.500010 -0.615806
O26   O     O_R   0.769690 0.179220 0.499990 -0.615705
O27   O     O_R   0.679220 0.730290 0.500020 -0.622115
O28   O     O_R   0.320780 0.730290 0.499980 -0.622135
O29   O     O_R   0.179220 0.230290 0.500020 -0.622089
O30   O     O_R   0.820780 0.230290 0.499980 -0.622169
O31   O     O_R   0.826460 0.724450 0.601850 -0.626918
O32   O     O_R   0.173540 0.724450 0.398150 -0.626917
O33   O     O_R   0.326460 0.224450 0.601850 -0.626922
O34   O     O_R   0.679240 0.269680 0.500020 -0.622412
O35   O     O_R   0.673540 0.224450 0.398150 -0.626911
O36   O     O_R   0.775370 0.775520 0.601870 -0.622462
O37   O     O_R   0.224630 0.775520 0.398130 -0.622465
O38   O     O_R   0.275370 0.275520 0.601870 -0.622471
O39   O     O_R   0.724630 0.275520 0.398130 -0.622453
O40   O     O_R   0.425990 0.545230 0.442510 -0.618210
O41   O     O_R   0.574010 0.545230 0.557490 -0.618205
O42   O     O_R   0.925990 0.045230 0.442510 -0.618213
O43   O     O_R   0.074010 0.045230 0.557490 -0.618201
O44   O     O_R   0.483490 0.545220 0.557520 -0.621226
O45   O     O_R   0.516510 0.545220 0.442480 -0.621235
O46   O     O_R   0.983490 0.045220 0.557520 -0.621216
O47   O     O_R   0.016510 0.045220 0.442480 -0.621245
O48   O     O_R   0.926010 0.954760 0.442510 -0.623219
Zn1   Zn    Zn3+2 0.784100 0.715890 0.499990 0.956984
Zn2   Zn    Zn3+2 0.538410 0.499990 0.576790 0.969743
Zn3   Zn    Zn3+2 0.961590 0.999990 0.423210 0.969707
Zn4   Zn    Zn3+2 0.038410 0.999990 0.576790 0.969764
Zn5   Zn    Zn3+2 0.215900 0.715890 0.500010 0.956973
Zn6   Zn    Zn3+2 0.284100 0.215890 0.499990 0.956991
Zn7   Zn    Zn3+2 0.715900 0.215890 0.500010 0.956964
Zn8   Zn    Zn3+2 0.715880 0.784090 0.500010 0.975944
Zn9   Zn    Zn3+2 0.284120 0.784090 0.499990 0.975919
Zn10  Zn    Zn3+2 0.215880 0.284090 0.500010 0.975955
Zn11  Zn    Zn3+2 0.784120 0.284090 0.499990 0.975908
Zn12  Zn    Zn3+2 0.461590 0.499990 0.423210 0.969727

loop_
_geom_bond_atom_site_label_1
_geom_bond_atom_site_label_2
_ccdc_geom_bond_type
C39   C51   S    
C96   C105  S    
C61   H41   S    
C121  O22   A    
C117  O48   A    
C20   C67   S    
C83   C87   A    
C58   H39   S    
C68   C73   A    
C74   C83   A    
C4    C8    A    
C118  O2    A    
C68   C91   S    
C87   C127  S    
C9    C25   S    
C21   H50   S    
O38   Zn10  S    
C43   H32   S    
C65   C69   A    
C18   C65   S    
C7    C11   A    
C116  O47   A    
C80   O17   A    
C33   H69   S    
C94   N3    A    
O28   Zn9   S    
O13   Zn11  S    
O20   Zn10  S    
C125  O31   A    
C50   C120  S    
C79   O20   A    
C64   C68   A    
C28   C29   S    
C34   N14   T    
C85   C89   A    
C3    C7    A    
C10   C15   A    
C17   C64   S    
C112  O44   A    
C72   C92   S    
C42   N21   T    
C126  N12   A    
C43   C52   S    
C101  C116  S    
C78   C93   S    
C88   C128  S    
C71   O34   A    
C89   C129  S    
N24   N25   A    
C19   C66   S    
C67   C72   A    
C120  O4    A    
C73   C81   A    
C33   H70   S    
C119  O7    A    
C44   H33   S    
C71   O13   A    
C90   N5    A    
C6    C136  A    
C61   C87   A    
C103  H14   S    
C113  O45   A    
C49   O12   A    
C44   C53   S    
C114  O42   A    
C37   N16   T    
C97   H7    S    
C84   H3    S    
C100  H10   S    
O3    Zn12  S    
C29   H63   S    
C77   C82   S    
C5    C126  S    
C60   O11   A    
C22   H48   S    
C78   O19   A    
C41   N20   T    
O8    Zn12  S    
C92   N4    A    
C103  C108  D    
C34   C46   S    
C27   H54   S    
C15   C104  A    
C82   C130  A    
O14   Zn1   S    
C126  N24   A    
C123  O29   A    
C108  C121  S    
C14   C93   A    
C81   C86   A    
C3    H26   S    
O15   Zn5   S    
O32   Zn5   S    
C13   N23   A    
C29   H64   S    
O21   Zn11  S    
C13   N26   A    
O44   Zn2   S    
C21   C22   S    
C86   C125  S    
C14   H28   S    
C60   O23   A    
C121  O27   A    
C130  C134  A    
C109  H19   S    
C45   H35   S    
C128  O38   A    
O29   Zn10  S    
C96   H6    S    
C95   C103  S    
C21   H51   S    
C38   N17   T    
C136  H25   S    
C47   C118  S    
O5    Zn4   S    
C105  H15   S    
C63   C67   A    
O6    Zn3   S    
O11   Zn10  S    
C106  H16   S    
C62   C66   A    
C20   N13   T    
C122  O28   A    
O12   Zn5   S    
C132  H23   S    
O48   Zn3   S    
N4    N8    A    
C69   C74   A    
C24   N22   A    
C39   N18   T    
C59   H40   S    
N2    N6    A    
C1    O9    A    
C16   H30   S    
C27   H53   S    
C9    C14   A    
C53   C57   D    
C114  O46   A    
C57   C60   S    
C115  C133  A    
C36   C47   S    
C25   C26   S    
C40   C52   S    
C62   C88   A    
C98   C107  S    
C46   C117  S    
O26   Zn7   S    
C40   N19   T    
C75   C84   A    
C91   N28   A    
C92   N7    A    
C2    C4    S    
O34   Zn7   S    
C112  O40   A    
C62   H42   S    
C29   C30   S    
C102  C114  S    
N3    N7    A    
C110  C123  S    
N22   N23   A    
C73   H45   S    
C11   C16   A    
C123  O25   A    
O2    Zn4   S    
C31   C32   S    
C31   H73   S    
C80   C115  S    
C7    C13   S    
C132  C136  A    
O10   Zn9   S    
C124  O30   A    
C63   C89   A    
C94   N8    A    
C8    C21   S    
C26   C27   S    
C19   N11   T    
C131  H12   S    
C11   C31   S    
C30   H61   S    
C127  O37   A    
C32   H71   S    
C44   C48   D    
N5    N28   A    
C41   C53   S    
C23   H47   S    
C107  H17   S    
C24   N27   A    
O35   Zn7   S    
C23   H46   S    
C27   H52   S    
O37   Zn9   S    
C97   C106  S    
C1    O1    A    
C76   H75   S    
O4    Zn2   S    
C30   H62   S    
C45   C54   S    
C100  C112  S    
C36   N15   T    
C77   O18   A    
C133  H34   S    
C35   C51   S    
C49   O10   A    
O40   Zn12  S    
C74   H56   S    
C79   C104  S    
C129  O35   A    
C32   H72   S    
O24   Zn5   S    
C28   H65   S    
C69   C90   S    
C16   C115  A    
C55   H36   S    
C90   N2    A    
C4    C134  A    
C109  C122  S    
C30   H60   S    
C10   C28   S    
C5    C135  A    
O9    Zn8   S    
C105  C109  D    
N26   N27   A    
C101  H11   S    
C75   H67   S    
C135  H24   S    
O16   Zn6   S    
O25   Zn6   S    
C98   H8    S    
C111  C124  S    
C22   C23   S    
C107  C111  D    
O19   Zn9   S    
C95   C99   D    
C80   O21   A    
C84   C88   A    
C5    C9    A    
C43   C47   D    
C59   C64   A    
C25   H59   S    
C99   C113  S    
C26   H55   S    
C118  O6    A    
C2    N25   A    
C95   H5    S    
C6    C24   S    
C38   C50   S    
O47   Zn3   S    
C117  O5    A    
O43   Zn4   S    
C70   C94   S    
C49   C56   S    
C23   H44   S    
O41   Zn2   S    
C33   H68   S    
C131  C135  A    
O22   Zn1   S    
O46   Zn4   S    
C56   H37   S    
C127  O32   A    
C28   H66   S    
C32   C33   S    
C91   N6    A    
O39   Zn11  S    
C1    C55   S    
C59   C86   A    
C77   O14   A    
O45   Zn12  S    
C78   O15   A    
C98   C102  D    
C42   C54   S    
C12   H27   S    
C37   C48   S    
C79   O16   A    
C26   H57   S    
C122  O24   A    
C66   C70   A    
C31   H74   S    
C52   C56   D    
C45   C50   D    
C22   H49   S    
C72   C76   A    
O36   Zn8   S    
C96   C100  D    
O7    Zn2   S    
C124  O26   A    
C85   H4    S    
N1    N12   A    
O23   Zn6   S    
C129  O39   A    
C51   C55   D    
O33   Zn6   S    
C134  H22   S    
C61   C65   A    
C99   H9    S    
O27   Zn8   S    
C18   N10   T    
C128  O33   A    
C110  H20   S    
C6    C10   A    
O17   Zn7   S    
C102  H13   S    
O1    Zn1   S    
C57   H38   S    
C17   N9    T    
O18   Zn8   S    
O42   Zn3   S    
C12   C82   A    
C81   H76   S    
C108  H18   S    
C2    N1    A    
C106  C110  D    
C35   H31   S    
C104  C132  A    
C63   H43   S    
C54   C58   D    
C70   C75   A    
C111  H21   S    
C48   C119  S    
C15   H29   S    
C116  O43   A    
C58   C71   S    
C120  O8    A    
C3    C133  A    
C130  H1    S    
C93   C131  A    
C35   C46   D    
C119  O3    A    
C76   C85   A    
O31   Zn1   S    
C83   H2    S    
C97   C101  D    
C25   H58   S    
C8    C12   A    
C113  O41   A    
O30   Zn11  S    
C125  O36   A    
