data_mof_unit_66448.cif
_audit_creation_date              2012-12-10T19:38:19-0500
_audit_creation_method            fapswitch 2.2
_symmetry_space_group_name_H-M    P1
_symmetry_Int_Tables_number       1
_space_group_crystal_system       triclinic
_cell_length_a                    15.865227
_cell_length_b                    15.887045
_cell_length_c                    17.09663
_cell_angle_alpha                 91.062672
_cell_angle_beta                  96.455578
_cell_angle_gamma                 92.121512
_cell_volume                      4277.85505203

loop_
_atom_site_label
_atom_site_type_symbol
_atom_type_description
_atom_site_fract_x
_atom_site_fract_y
_atom_site_fract_z
_atom_type_partial_charge
C1    C     C_R   0.510533 0.499879 0.651454 0.829055
C2    C     C_3   0.582422 0.053248 0.548658 -0.390471
C3    C     C_3   0.500984 0.082909 0.500250 0.151347
C4    C     C_3   0.498900 0.047425 0.415064 -0.396667
C5    C     C_3   0.494511 0.949793 0.414453 0.013879
C6    C     C_1   0.501190 0.175043 0.500096 -0.032809
C7    C     C_1   0.499145 0.824768 0.500384 0.060818
C8    C     C_1   0.498994 0.749289 0.500206 -0.042075
C9    C     C_R   0.516533 0.497874 0.737641 -0.040794
C10   C     C_R   0.442401 0.494376 0.775216 -0.198894
C11   C     C_R   0.447526 0.492445 0.856784 -0.118534
C12   C     C_R   0.499680 0.659799 0.500036 0.862068
C13   C     C_R   0.527399 0.493926 0.902507 0.372759
C14   C     C_R   0.601190 0.495835 0.864887 -0.165588
C15   C     C_R   0.596055 0.498239 0.783053 -0.174175
C16   C     C_R   0.543386 0.470158 0.143045 -0.179787
C17   C     C_R   0.546690 0.469198 0.224410 -0.253981
C18   C     C_R   0.476014 0.508141 0.097931 0.277720
C19   C     C_R   0.483068 0.505716 0.262633 -0.145056
C20   C     C_R   0.415468 0.545072 0.218073 0.201249
C21   C     C_R   0.411900 0.544956 0.135570 0.232187
C22   C     C_R   0.242732 0.540166 0.535674 0.324429
C23   C     C_R   0.489327 0.502152 0.348717 0.845060
C24   C     C_R   0.153762 0.533024 0.529141 -0.320862
C25   C     C_R   0.108350 0.474404 0.475927 0.309260
C26   C     C_R   0.156030 0.424008 0.429974 0.065509
C27   C     C_R   0.245283 0.432903 0.438255 0.005800
C28   C     C_R   0.834344 0.453088 0.456740 0.184431
C29   C     C_R   0.746094 0.455990 0.459759 -0.040733
C30   C     C_R   0.890040 0.507937 0.507013 0.277869
C31   C     C_R   0.764669 0.563365 0.558338 0.436909
C32   C     C_R   0.853019 0.562663 0.557449 -0.335417
C33   C     C_R   0.500311 0.340152 0.499887 0.810763
C34   C     C_3   0.580297 0.955812 0.552595 0.153272
C35   C     C_3   0.420106 0.949311 0.535557 0.027675
C36   C     C_3   0.422340 0.047291 0.537057 -0.395988
C37   C     C_1   0.501024 0.250553 0.499985 -0.145891
C38   C     C_3   0.500194 0.916986 0.500607 0.074347
Cu1   Cu    Cu3+1 0.584780 0.504030 0.503820 1.011130
Cu2   Cu    Cu3+1 0.415220 0.495970 0.496180 1.012201
H1    H     H_    0.587908 0.080854 0.609439 0.175913
H2    H     H_    0.639124 0.076499 0.521451 0.220813
H3    H     H_    0.442822 0.070541 0.377700 0.173265
H4    H     H_    0.598815 0.438741 0.257623 0.189725
H5    H     H_    0.593154 0.440282 0.115575 0.190868
H6    H     H_    0.662887 0.496302 0.899240 0.165080
H7    H     H_    0.654272 0.500222 0.755478 0.191591
H8    H     H_    0.388953 0.489409 0.883759 0.183664
H9    H     H_    0.576106 0.938747 0.614812 0.183506
H10   H     H_    0.380236 0.492938 0.741709 0.186271
H11   H     H_    0.703893 0.414264 0.421404 0.176117
H12   H     H_    0.280880 0.393780 0.402452 0.165487
H13   H     H_    0.120731 0.573720 0.565887 0.198742
H14   H     H_    0.893439 0.605354 0.596607 0.204486
H15   H     H_    0.362083 0.926025 0.497439 0.160834
H16   H     H_    0.424116 0.072209 0.598483 0.222028
H17   H     H_    0.363219 0.069348 0.503706 0.179180
H18   H     H_    0.431646 0.928474 0.383419 0.138196
H19   H     H_    0.556404 0.070839 0.389249 0.216240
N1    N     N_2   0.535971 0.492795 0.985922 -0.239488
N2    N     N_2   0.469539 0.509461 0.014601 -0.193807
N3    N     N_R   0.287860 0.489910 0.490440 -0.202631
N4    N     N_2   0.016880 0.465039 0.467517 -0.115213
N5    N     N_2   0.981368 0.513048 0.511430 -0.206185
N6    N     N_R   0.712150 0.510100 0.509550 -0.217560
O1    O     O_R   0.579470 0.503770 0.617500 -0.560153
O2    O     O_R   0.436280 0.496960 0.611050 -0.577602
O3    O     O_R   0.571630 0.623970 0.503220 -0.532376
O4    O     O_R   0.428430 0.617160 0.496770 -0.550236
O5    O     O_R   0.563720 0.503040 0.388950 -0.591190
O6    O     O_R   0.420530 0.496230 0.382500 -0.553725
O7    O     O_R   0.571570 0.382840 0.503230 -0.584633
O8    O     O_R   0.428370 0.376030 0.496780 -0.586772
Br1   Br    Br    0.688522 0.911076 0.530955 -0.383067
Br2   Br    Br    0.330942 0.604364 0.268011 -0.377822
Br3   Br    Br    0.320329 0.596646 0.072515 -0.344200
Br4   Br    Br    0.869554 0.373094 0.382688 -0.403915
I1    I     I_    0.097330 0.333526 0.347094 -0.167304
Br5   Br    Br    0.721665 0.640675 0.629801 -0.413888
I2    I     I_    0.299497 0.632639 0.618166 -0.227971
Br6   Br    Br    0.406231 0.905949 0.639981 -0.447686
I3    I     I_    0.581041 0.898152 0.338999 -0.206597

loop_
_geom_bond_atom_site_label_1
_geom_bond_atom_site_label_2
_ccdc_geom_bond_type
C12   O4    A    
Cu2   O6    S    
C30   N5    S    
C18   C21   A    
Cu1   O3    S    
C19   C20   A    
C15   H7    S    
C3    C6    S    
C35   Br6   S    
C7    C8    T    
C14   H6    S    
C13   N1    S    
C12   O3    A    
C21   Br3   S    
C26   C27   A    
C26   I1    S    
C5    H18   S    
C28   C29   A    
C2    H1    S    
Cu2   N3    S    
Cu2   O8    S    
C25   N4    S    
C33   O7    A    
C17   C19   A    
C7    C38   S    
C35   C36   S    
C16   C17   A    
Cu2   O2    S    
Cu1   O7    S    
C9    C10   A    
C2    C34   S    
C13   C14   A    
Cu1   N6    S    
C23   O5    A    
C11   H8    S    
C32   H14   S    
Cu2   O4    S    
C35   H15   S    
C23   O6    A    
C35   C38   S    
C1    C9    S    
C24   C25   A    
C36   H17   S    
Cu1   Cu2   S    
C24   H13   S    
C33   C37   S    
C20   Br2   S    
N1    N2    D    
C19   C23   S    
C36   H16   S    
C27   N3    A    
C22   N3    A    
C31   C32   A    
C8    C12   S    
C1    O1    A    
C6    C37   T    
C28   Br4   S    
C34   Br1   S    
C29   N6    A    
C33   O8    A    
Cu1   O1    S    
C22   C24   A    
C3    C4    S    
C10   H10   S    
C27   H12   S    
C29   H11   S    
C31   N6    A    
C34   H9    S    
C34   C38   S    
C4    C5    S    
C16   H5    S    
C18   N2    S    
C31   Br5   S    
C4    H3    S    
C28   C30   A    
C2    C3    S    
C25   C26   A    
C17   H4    S    
C22   I2    S    
C30   C32   A    
C5    I3    S    
C11   C13   A    
C3    C36   S    
C2    H2    S    
C4    H19   S    
C1    O2    A    
Cu1   O5    S    
C9    C15   A    
C10   C11   A    
N4    N5    D    
C20   C21   A    
C16   C18   A    
C14   C15   A    
C5    C38   S    
