data_mof_unit_61307.cif
_audit_creation_date              2012-12-10T19:27:26-0500
_audit_creation_method            fapswitch 2.2
_symmetry_space_group_name_H-M    P1
_symmetry_Int_Tables_number       1
_space_group_crystal_system       triclinic
_cell_length_a                    18.729868
_cell_length_b                    18.680807
_cell_length_c                    18.955828
_cell_angle_alpha                 109.802846
_cell_angle_beta                  109.561711
_cell_angle_gamma                 109.346319
_cell_volume                      5086.77773969

loop_
_atom_site_label
_atom_site_type_symbol
_atom_type_description
_atom_site_fract_x
_atom_site_fract_y
_atom_site_fract_z
_atom_type_partial_charge
C1    C     C_R   0.380433 0.379523 0.500482 0.863919
C2    C     C_R   0.774912 0.568606 0.731622 -0.128906
C3    C     C_R   0.810378 0.501327 0.816102 -0.057797
C4    C     C_R   0.726949 0.422645 0.754678 0.016205
C5    C     C_R   0.662113 0.426909 0.694867 0.083332
C6    C     C_R   0.687698 0.499176 0.682397 -0.044673
C7    C     C_R   0.705139 0.339734 0.749584 -0.179132
C8    C     C_R   0.618859 0.269774 0.698089 0.478447
C9    C     C_R   0.553139 0.279220 0.647901 -0.164142
C10   C     C_R   0.574412 0.356334 0.644861 -0.215432
C11   C     C_R   0.251355 0.233359 0.424615 0.004031
C12   C     C_R   0.622666 0.502436 0.619171 0.910236
C13   C     C_R   0.313317 0.314085 0.500260 -0.155674
C14   C     C_R   0.305203 0.334661 0.574689 -0.205155
C15   C     C_R   0.241569 0.270946 0.575868 0.370213
C16   C     C_R   0.185209 0.187045 0.501413 -0.237426
C17   C     C_R   0.187066 0.170823 0.424991 0.066006
C18   C     C_3   0.192366 0.097788 0.366150 0.775340
C19   C     C_3   0.263458 0.167337 0.365726 -0.512491
C20   C     C_R   0.325988 0.520613 0.258265 -0.146826
C21   C     C_R   0.311474 0.497972 0.316350 -0.199244
C22   C     C_R   0.230488 0.479693 0.314067 0.402242
C23   C     C_R   0.620605 0.621060 0.500788 0.974046
C24   C     C_R   0.167914 0.485268 0.252749 0.414738
C25   C     C_R   0.185126 0.506241 0.192612 -0.215020
C26   C     C_R   0.266230 0.526217 0.200228 -0.198722
C27   C     C_3   0.323042 0.554072 0.163865 0.787943
C28   C     C_3   0.392877 0.549653 0.232668 0.605916
C29   C     C_R   0.721384 0.663762 0.449187 -0.059213
C30   C     C_R   0.692868 0.688397 0.507704 -0.159415
C31   C     C_R   0.740349 0.777681 0.575006 0.457751
C32   C     C_R   0.802534 0.839753 0.570774 -0.135315
C33   C     C_R   0.815909 0.814119 0.500284 -0.116345
C34   C     C_R   0.380083 0.500177 0.380501 0.889894
C35   C     C_R   0.781814 0.725509 0.445206 0.030003
C36   C     C_3   0.741169 0.669602 0.349243 0.576374
C37   C     C_3   0.673661 0.600071 0.353692 0.228655
C38   C     C_R   0.998729 0.379450 0.878751 0.867900
C39   C     C_R   0.878930 0.500494 0.880543 0.895652
C40   C     C_R   0.001256 0.620301 0.120892 0.987815
C41   C     C_R   0.120050 0.502888 0.122839 0.957038
C42   C     C_R   0.999204 0.119202 0.619672 0.900050
C43   C     C_R   0.120007 0.119640 0.499983 0.961830
C44   C     C_R   0.001345 0.881063 0.379938 0.926809
C45   C     C_R   0.810081 0.627971 0.705802 0.244218
C46   C     C_R   0.880153 0.878363 0.498056 0.931259
C47   C     C_R   0.971401 0.229320 0.802245 -0.039220
C48   C     C_R   0.000065 0.313529 0.813518 -0.068321
C49   C     C_R   0.037258 0.335691 0.765355 -0.128363
C50   C     C_R   0.036459 0.271180 0.700593 -0.127197
C51   C     C_R   0.000115 0.185322 0.685394 0.015047
C52   C     C_R   0.972740 0.166295 0.739781 -0.083888
C53   C     C_3   0.890415 0.093485 0.719819 0.087191
C54   C     C_3   0.888445 0.163832 0.789002 0.653783
C55   C     C_R   0.935926 0.706007 0.165615 0.024695
C56   C     C_R   0.886696 0.709237 0.767426 0.316914
C57   C     C_R   0.003742 0.687618 0.187360 -0.164857
C58   C     C_R   0.079341 0.743617 0.270142 0.377255
C59   C     C_R   0.079939 0.809554 0.333660 -0.151454
C60   C     C_R   0.006478 0.820562 0.313456 -0.116772
C61   C     C_R   0.938461 0.773356 0.227525 0.031157
C62   C     C_3   0.841898 0.725216 0.191573 -0.435179
C63   C     C_3   0.838856 0.649007 0.124771 0.662289
C64   C     C_R   0.928694 0.730086 0.853847 0.284377
C65   C     C_R   0.900842 0.665152 0.875699 0.313778
C66   C     C_R   0.829291 0.578825 0.809948 -0.098255
H1    H     H_    0.485958 0.225615 0.608566 0.175514
H2    H     H_    0.329453 0.175079 0.397838 0.198965
H3    H     H_    0.243259 0.163804 0.301853 0.232035
H4    H     H_    0.838780 0.907938 0.621101 0.181134
H5    H     H_    0.605699 0.586450 0.319167 0.186127
H6    H     H_    0.063542 0.401564 0.775175 0.185869
H7    H     H_    0.062211 0.287605 0.661429 0.182607
H8    H     H_    0.903241 0.046803 0.738422 0.155639
H9    H     H_    0.135907 0.849513 0.398916 0.213572
H10   H     H_    0.825276 0.712150 0.238287 0.245710
H11   H     H_    0.809810 0.757419 0.164140 0.249716
H12   H     H_    0.753223 0.325727 0.782254 0.215323
H13   H     H_    0.521772 0.359210 0.601733 0.144343
H14   H     H_    0.350340 0.398720 0.632881 0.213003
O1    O     O_R   0.408400 0.356680 0.448290 -0.624828
O2    O     O_R   0.051700 0.460090 0.908430 -0.622898
O3    O     O_R   0.856640 0.448300 0.908430 -0.618776
O4    O     O_R   0.960090 0.551710 0.908400 -0.600163
O5    O     O_R   0.948250 0.539920 0.091630 -0.566285
O6    O     O_R   0.051690 0.643330 0.091610 -0.560954
O7    O     O_R   0.039870 0.448310 0.091660 -0.580541
O8    O     O_R   0.143310 0.551720 0.091640 -0.569485
O9    O     O_R   0.051740 0.091620 0.643380 -0.600260
O10   O     O_R   0.948300 0.091670 0.539990 -0.591918
O11   O     O_R   0.143340 0.091640 0.551750 -0.586593
O12   O     O_R   0.408370 0.460100 0.551700 -0.620282
O13   O     O_R   0.039900 0.091690 0.448360 -0.605287
O14   O     O_R   0.051700 0.908430 0.460110 -0.620721
O15   O     O_R   0.948260 0.908480 0.356720 -0.601131
O16   O     O_R   0.960100 0.908410 0.551740 -0.609232
O17   O     O_R   0.856660 0.908460 0.448350 -0.558815
O18   O     O_R   0.591630 0.448290 0.539910 -0.590012
O19   O     O_R   0.591590 0.551710 0.643320 -0.603761
O20   O     O_R   0.591630 0.539900 0.448300 -0.580919
O21   O     O_R   0.591600 0.643320 0.551710 -0.563995
O22   O     O_R   0.408410 0.448290 0.356680 -0.627776
O23   O     O_R   0.408370 0.551710 0.460090 -0.586324
O24   O     O_R   0.948260 0.356680 0.908450 -0.582424
Zn1   Zn    Zn3+2 0.500020 0.430950 0.430950 1.082303
Zn2   Zn    Zn3+2 0.499980 0.569050 0.569050 1.132658
Zn3   Zn    Zn3+2 0.930910 0.430960 0.000050 1.192576
Zn4   Zn    Zn3+2 0.069050 0.569060 0.000020 1.157709
Zn5   Zn    Zn3+2 0.069070 0.000020 0.569080 1.113862
Zn6   Zn    Zn3+2 0.930930 0.000080 0.431020 1.140039
Cl1   Cl    Cl    0.235682 0.297486 0.671491 -0.561709
O25   O     O_3   0.220264 0.051698 0.403819 -0.752895
H15   H     H_    0.274647 0.095223 0.460912 0.324195
O26   O     O_3   0.114794 0.041366 0.285556 -0.691613
H16   H     H_    0.127288 0.001198 0.248286 0.378321
O27   O     O_3   0.209623 0.455867 0.369155 -0.669456
H17   H     H_    0.250401 0.438528 0.397106 0.331610
Cl2   Cl    Cl    0.070855 0.469163 0.256144 -0.402330
O28   O     O_3   0.289806 0.491598 0.077115 -0.681436
H18   H     H_    0.262505 0.431716 0.068914 0.346859
Cl3   Cl    Cl    0.349255 0.661042 0.178193 -0.365722
O29   O     O_3   0.410626 0.483451 0.195990 -0.710077
H19   H     H_    0.447100 0.479348 0.244596 0.360429
Cl4   Cl    Cl    0.774751 0.591293 0.595264 -0.540190
Cl5   Cl    Cl    0.489401 0.652358 0.318887 -0.516580
Cl6   Cl    Cl    0.725694 0.816893 0.664835 -0.435437
Cl7   Cl    Cl    0.695414 0.713558 0.287937 -0.504667
O30   O     O_3   0.797743 0.645347 0.328420 -0.732721
H20   H     H_    0.760847 0.596362 0.267354 0.403698
O31   O     O_3   0.678173 0.522373 0.333932 -0.667508
H21   H     H_    0.736862 0.537184 0.376358 0.400838
Cl8   Cl    Cl    0.802988 0.041006 0.610434 -0.457141
Cl9   Cl    Cl    0.928845 0.785442 0.736556 -0.416420
Cl10  Cl    Cl    0.798208 0.181827 0.751057 -0.423863
Cl11  Cl    Cl    0.905933 0.153061 0.882476 -0.459044
Cl12  Cl    Cl    0.170337 0.727842 0.298205 -0.491330
Cl13  Cl    Cl    0.807623 0.554046 0.136235 -0.482478
Cl14  Cl    Cl    0.777104 0.623467 0.016120 -0.464545
Cl15  Cl    Cl    0.018782 0.836541 0.934011 -0.371388
Cl16  Cl    Cl    0.944881 0.699884 0.986978 -0.484861
Cl17  Cl    Cl    0.592779 0.169812 0.696670 -0.417767

loop_
_geom_bond_atom_site_label_1
_geom_bond_atom_site_label_2
_ccdc_geom_bond_type
C62   H11   S    
C35   C36   S    
O30   H20   S    
C18   O26   S    
O26   H16   S    
C27   Cl3   S    
C7    C8    A    
C2    C6    A    
C53   C54   S    
O27   H17   S    
C11   C19   S    
O20   Zn1   S    
C62   C63   S    
O18   Zn1   S    
C36   C37   S    
C18   O25   S    
C39   O4    A    
C6    C12   S    
C5    C6    A    
O8    Zn4   S    
C28   O29   S    
C23   O21   A    
C1    O1    A    
C15   C16   A    
C54   Cl10  S    
O9    Zn5   S    
C37   O31   S    
O22   Zn1   S    
C17   C18   S    
C18   C19   S    
C40   O6    A    
C41   O8    A    
C12   O19   A    
C38   O24   A    
C33   C35   A    
C65   Cl16  S    
C31   C32   A    
C45   C56   A    
C8    C9    A    
C49   H6    S    
C55   C63   S    
C56   C64   A    
C8    Cl17  S    
O2    Zn4   S    
C9    C10   A    
C12   O18   A    
C42   C51   S    
C22   O27   S    
C23   O20   A    
C3    C39   S    
C59   C60   A    
C2    C45   A    
C21   C22   A    
C38   O2    A    
C33   C46   S    
C63   Cl13  S    
C62   H10   S    
C36   O30   S    
C4    C7    A    
O25   H15   S    
C56   Cl9   S    
C45   Cl4   S    
C41   O7    A    
O1    Zn1   S    
C51   C52   A    
C23   C30   S    
C15   Cl1   S    
C24   C25   A    
C50   H7    S    
C25   C41   S    
C16   C17   A    
C32   H4    S    
C21   C34   S    
C20   C28   S    
C58   Cl12  S    
C58   C59   A    
C43   O11   A    
C60   C61   A    
C42   O10   A    
C40   O5    A    
C9    H1    S    
C29   C30   A    
C47   C48   A    
C10   H13   S    
O13   Zn6   S    
C50   C51   A    
C26   C27   S    
C46   O16   A    
C19   H2    S    
C53   Cl8   S    
C34   O22   A    
C52   C53   S    
C16   C43   S    
C47   C54   S    
O12   Zn2   S    
C48   C49   A    
C46   O17   A    
C49   C50   A    
C1    O12   A    
C14   H14   S    
C37   H5    S    
C63   Cl14  S    
C22   C24   A    
C19   H3    S    
C36   Cl7   S    
C1    C13   S    
O10   Zn6   S    
C3    C4    A    
C59   H9    S    
C28   Cl5   S    
O21   Zn2   S    
O19   Zn2   S    
C11   C17   A    
C40   C57   S    
C38   C48   S    
O6    Zn4   S    
C4    C5    A    
C2    C66   A    
O15   Zn6   S    
O28   H18   S    
C47   C52   A    
C27   O28   S    
C53   H8    S    
O16   Zn5   S    
C29   C35   A    
O14   Zn5   S    
C24   Cl2   S    
C34   O23   A    
C43   O13   A    
C42   O9    A    
C64   C65   A    
O11   Zn5   S    
C55   C57   A    
O31   H21   S    
C25   C26   A    
C39   O3    A    
C5    C10   A    
C44   O15   A    
O5    Zn3   S    
C32   C33   A    
O17   Zn6   S    
C11   C13   A    
C57   C58   A    
C30   C31   A    
C20   C26   A    
C44   C60   S    
C54   Cl11  S    
C55   C61   A    
O4    Zn4   S    
O3    Zn3   S    
O23   Zn2   S    
C61   C62   S    
C44   O14   A    
C7    H12   S    
C3    C66   A    
O7    Zn3   S    
C20   C21   A    
C65   C66   A    
C29   C37   S    
C27   C28   S    
C14   C15   A    
C31   Cl6   S    
O29   H19   S    
C13   C14   A    
O24   Zn3   S    
C64   Cl15  S    
