data_mof_unit_54122.cif
_audit_creation_date              2012-12-11T15:49:05-0500
_audit_creation_method            fapswitch 2.2
_symmetry_space_group_name_H-M    P1
_symmetry_Int_Tables_number       1
_space_group_crystal_system       triclinic
_cell_length_a                    21.609692
_cell_length_b                    7.178099
_cell_length_c                    14.82195
_cell_angle_alpha                 90.00126
_cell_angle_beta                  106.646654
_cell_angle_gamma                 90.000404
_cell_volume                      2202.77178141

loop_
_atom_site_label
_atom_site_type_symbol
_atom_type_description
_atom_site_fract_x
_atom_site_fract_y
_atom_site_fract_z
_atom_type_partial_charge
O1    O     O_R   0.335860 0.638190 0.002110 -0.544482
O2    O     O_R   0.664140 0.361810 0.997890 -0.543419
O3    O     O_R   0.164140 0.138190 0.997890 -0.544475
O4    O     O_R   0.835860 0.861810 0.002110 -0.543419
O5    O     O_R   0.217530 0.305920 0.861960 -0.534765
O6    O     O_R   0.782470 0.694080 0.138040 -0.538235
O7    O     O_R   0.282470 0.805920 0.138040 -0.534791
O8    O     O_R   0.717530 0.194080 0.861960 -0.538256
C1    C     C_R   0.205649 0.476558 0.825552 0.764873
C2    C     C_R   0.794345 0.523032 0.174436 0.764894
C3    C     C_R   0.294351 0.976563 0.174448 0.764875
C4    C     C_R   0.705656 0.023026 0.825563 0.764895
O9    O     O_R   0.338690 0.308320 0.993240 -0.542371
O10   O     O_R   0.661310 0.691680 0.006760 -0.543591
O11   O     O_R   0.161310 0.808320 0.006760 -0.542381
O12   O     O_R   0.838690 0.191680 0.993240 -0.543601
O13   O     O_R   0.286170 0.140430 0.130100 -0.540033
O14   O     O_R   0.713830 0.859570 0.869900 -0.536881
O15   O     O_R   0.213830 0.640430 0.869900 -0.540048
O16   O     O_R   0.786170 0.359570 0.130100 -0.536898
C5    C     C_R   0.365003 0.477239 0.997905 0.693386
C6    C     C_R   0.635027 0.522768 0.002255 0.692809
C7    C     C_R   0.134996 0.977238 0.002093 0.693419
C8    C     C_R   0.864973 0.022768 0.997745 0.692805
O17   O     O_3   0.232630 0.472410 0.044750 -0.377983
O18   O     O_3   0.767370 0.527590 0.955250 -0.377912
O19   O     O_3   0.267370 0.972410 0.955250 -0.377981
O20   O     O_3   0.732630 0.027590 0.044750 -0.377913
V1    V     V_3+5 0.253220 0.196620 0.991700 1.451868
V2    V     V_3+5 0.746780 0.803380 0.008300 1.449872
V3    V     V_3+5 0.246780 0.696620 0.008300 1.451806
V4    V     V_3+5 0.753220 0.303380 0.991700 1.449820
C9    C     C_R   0.029873 0.826302 0.003426 -0.145320
C10   C     C_R   0.970039 0.173812 0.996140 -0.149473
C11   C     C_R   0.470136 0.326299 0.996625 -0.145174
C12   C     C_R   0.529950 0.673816 0.003795 -0.149413
H1    H     H_    0.051712 0.689883 0.006108 0.125715
H2    H     H_    0.948229 0.310233 0.993655 0.128637
H3    H     H_    0.448305 0.189876 0.993991 0.125693
H4    H     H_    0.551752 0.810240 0.006233 0.128619
C13   C     C_R   0.964818 0.837658 0.001404 -0.140538
C14   C     C_R   0.034991 0.162421 0.997547 -0.147567
C15   C     C_R   0.535191 0.337654 0.998648 -0.140656
C16   C     C_R   0.464997 0.662426 0.002387 -0.147482
H5    H     H_    0.938878 0.709232 0.003022 0.126377
H6    H     H_    0.060888 0.290819 0.995672 0.130007
H7    H     H_    0.561139 0.209225 0.997079 0.126395
H8    H     H_    0.439092 0.790828 0.004213 0.129994
C17   C     C_R   0.933960 0.011601 0.998041 -0.046446
C18   C     C_R   0.065940 0.988481 0.001432 -0.049170
C19   C     C_R   0.566039 0.511600 0.001956 -0.046557
C20   C     C_R   0.434059 0.488482 0.998562 -0.049119
C21   C     C_R   0.677889 0.011011 0.723478 -0.168026
C22   C     C_R   0.322113 0.980485 0.276701 -0.169458
C23   C     C_R   0.822115 0.511048 0.276521 -0.168055
C24   C     C_R   0.177891 0.480456 0.723299 -0.169472
C25   C     C_R   0.690235 0.963504 0.568387 -0.210955
C26   C     C_R   0.310659 0.934196 0.432391 -0.210153
C27   C     C_R   0.809769 0.463920 0.431635 -0.210965
C28   C     C_R   0.189338 0.433848 0.567625 -0.210148
C29   C     C_R   0.717677 0.991976 0.664559 0.606275
C30   C     C_R   0.282781 0.954274 0.335803 0.607957
C31   C     C_R   0.782327 0.492278 0.335456 0.606290
C32   C     C_R   0.217218 0.454008 0.664208 0.607954
C33   C     C_R   0.610810 0.000707 0.686144 -0.297674
C34   C     C_R   0.389270 0.985368 0.314389 -0.298679
C35   C     C_R   0.889191 0.500623 0.313848 -0.297660
C36   C     C_R   0.110736 0.485477 0.685604 -0.298625
C37   C     C_R   0.581956 0.957777 0.590135 0.093615
C38   C     C_R   0.418892 0.947317 0.410781 0.092225
C39   C     C_R   0.918043 0.457825 0.409872 0.093689
C40   C     C_R   0.081107 0.447319 0.589224 0.092187
C41   C     C_R   0.622948 0.946729 0.530816 -0.020286
C42   C     C_R   0.378142 0.930009 0.470193 -0.019765
C43   C     C_R   0.877053 0.447015 0.469203 -0.020268
C44   C     C_R   0.121854 0.429790 0.529821 -0.019797
C45   C     C_R   0.513850 0.931703 0.550662 -0.091451
C46   C     C_R   0.487351 0.930092 0.450372 -0.091490
C47   C     C_R   0.986145 0.431678 0.449350 -0.091466
C48   C     C_R   0.012646 0.430181 0.549639 -0.091485
C49   C     C_R   0.530436 0.900902 0.394400 0.406606
C50   C     C_R   0.471268 0.897726 0.606889 0.406255
C51   C     C_R   0.969558 0.401173 0.605623 0.406622
C52   C     C_R   0.028720 0.397525 0.393133 0.406198
C53   C     C_R   0.596874 0.914535 0.434824 -0.214725
C54   C     C_R   0.404703 0.902544 0.566449 -0.211345
C55   C     C_R   0.903123 0.414930 0.565203 -0.214787
C56   C     C_R   0.095287 0.402226 0.433572 -0.211238
H9    H     H_    0.628443 0.897550 0.390188 0.162949
H10   H     H_    0.373452 0.881260 0.611219 0.159566
H11   H     H_    0.871553 0.398110 0.609849 0.162875
H12   H     H_    0.126534 0.380782 0.388810 0.159592
H13   H     H_    0.416945 0.019679 0.266675 0.182104
H14   H     H_    0.582561 0.030482 0.733624 0.181327
H15   H     H_    0.083064 0.519951 0.733303 0.182087
H16   H     H_    0.917440 0.530239 0.266350 0.181346
H17   H     H_    0.721714 0.951523 0.523372 0.149152
H18   H     H_    0.279437 0.916934 0.477473 0.149801
H19   H     H_    0.778290 0.452141 0.476660 0.149135
H20   H     H_    0.220557 0.416404 0.522551 0.149809
F1    F     F_    0.217536 0.947245 0.299872 -0.713655
F2    F     F_    0.782920 0.000160 0.700217 -0.717836
F3    F     F_    0.282461 0.446825 0.700146 -0.713640
F4    F     F_    0.717086 0.500620 0.299807 -0.717822
O21   O     O_3   0.509633 0.851686 0.300191 -0.580884
C57   C     C_3   0.490069 0.662459 0.290664 0.040314
H21   H     H_    0.448695 0.650655 0.225941 0.141989
H22   H     H_    0.472420 0.609805 0.349784 0.117736
C58   C     C_3   0.545056 0.539066 0.278972 -0.275211
H23   H     H_    0.560036 0.586903 0.217048 0.230458
H24   H     H_    0.587229 0.550324 0.342611 0.220652
C59   C     C_3   0.524246 0.335435 0.265108 -0.762175
H25   H     H_    0.510913 0.284058 0.327703 0.226514
H26   H     H_    0.564704 0.249504 0.255795 0.260745
H27   H     H_    0.482170 0.319623 0.201715 0.217166
O22   O     O_3   0.492905 0.850141 0.701238 -0.581217
C60   C     C_3   0.513636 0.661961 0.711079 0.045849
H28   H     H_    0.556037 0.652791 0.774564 0.140350
H29   H     H_    0.530212 0.609098 0.650985 0.117436
C61   C     C_3   0.460084 0.536647 0.726057 -0.282243
H30   H     H_    0.447242 0.582550 0.790023 0.225385
H31   H     H_    0.416413 0.548067 0.664634 0.220199
C62   C     C_3   0.481421 0.333344 0.737549 -0.759832
H32   H     H_    0.491676 0.283365 0.672402 0.226762
H33   H     H_    0.442373 0.246384 0.750634 0.263356
H34   H     H_    0.525535 0.317484 0.797878 0.214051
O23   O     O_3   0.990354 0.352019 0.699841 -0.580889
C63   C     C_3   0.009887 0.162766 0.709396 0.040228
H35   H     H_    0.051214 0.150921 0.774176 0.141998
H36   H     H_    0.027592 0.110089 0.650333 0.117757
C64   C     C_3   0.954850 0.039433 0.720966 -0.275195
H37   H     H_    0.939811 0.087296 0.782837 0.230468
H38   H     H_    0.912722 0.050725 0.657268 0.220571
C65   C     C_3   0.975626 0.835779 0.734857 -0.761927
H39   H     H_    0.989026 0.784380 0.672318 0.226441
H40   H     H_    0.935129 0.749891 0.744068 0.260797
H41   H     H_    0.017652 0.819923 0.798316 0.217205
O24   O     O_3   0.007072 0.349846 0.298798 -0.581212
C66   C     C_3   0.986344 0.161660 0.289009 0.045873
H42   H     H_    0.943840 0.152510 0.225666 0.140349
H43   H     H_    0.969928 0.108697 0.349229 0.117391
C67   C     C_3   0.039821 0.036436 0.273728 -0.282225
H44   H     H_    0.052502 0.082433 0.209654 0.225325
H45   H     H_    0.083589 0.047844 0.335002 0.220415
C68   C     C_3   0.018492 0.833123 0.262269 -0.759957
H46   H     H_    0.008459 0.783004 0.327546 0.226888
H47   H     H_    0.057453 0.746250 0.248865 0.263251
H48   H     H_    0.974249 0.817322 0.202147 0.213946

loop_
_geom_bond_atom_site_label_1
_geom_bond_atom_site_label_2
_ccdc_geom_bond_type
O17   V3    S    
C32   F3    S    
C51   C55   A    
C26   C30   A    
C55   H11   S    
O19   V1    S    
O13   V1    S    
C37   C45   A    
O3    C7    A    
C10   C14   A    
C40   C44   A    
C64   C65   S    
O15   V3    S    
C63   H35   S    
C65   H41   S    
C59   H26   S    
C68   H46   S    
C62   H32   S    
C45   C46   A    
O1    C5    A    
O9    V1    S    
C60   H29   S    
C47   C52   A    
O4    C8    A    
C66   C67   S    
C62   H33   S    
C38   C46   A    
C57   H21   S    
O1    V3    S    
C27   H19   S    
O22   C60   S    
O2    V4    S    
C14   H6    S    
C25   C41   A    
O3    V1    S    
C38   C42   A    
C21   C29   A    
C1    O15   A    
C56   H12   S    
C2    O16   A    
C23   C31   A    
O2    C6    A    
C24   C32   A    
C37   C41   A    
O14   V2    S    
C21   C33   A    
C44   C56   A    
C4    C21   S    
C61   C62   S    
C36   C40   A    
C30   F1    S    
C16   C20   A    
O11   C7    A    
C52   O24   S    
O12   C8    A    
C67   C68   S    
C7    C18   S    
O10   V2    S    
C48   C51   A    
C13   C17   A    
C59   H25   S    
C68   H47   S    
C61   H31   S    
O7    C3    A    
O5    V1    S    
C49   O21   S    
C36   H15   S    
O7    V3    S    
O8    V4    S    
C12   H4    S    
C54   H10   S    
C58   C59   S    
C53   H9    S    
O18   V4    S    
C62   H34   S    
C65   H40   S    
C22   C30   A    
C64   H38   S    
C9    C18   A    
C50   C54   A    
C28   C44   A    
C9    H1    S    
C39   C47   A    
C11   H3    S    
O5    C1    A    
O8    C4    A    
C25   H17   S    
O9    C5    A    
C1    C24   S    
C42   C54   A    
C25   C29   A    
C2    C23   S    
C3    C22   S    
C41   C53   A    
C12   C19   A    
C14   C18   A    
C34   H13   S    
C43   C55   A    
C33   H14   S    
O6    V2    S    
C35   H16   S    
C67   H45   S    
C60   C61   S    
O23   C63   S    
C63   C64   S    
C27   C43   A    
C68   H48   S    
C11   C15   A    
C61   H30   S    
C26   C42   A    
O16   V4    S    
C8    C17   S    
C3    O13   A    
C10   C17   A    
C10   H2    S    
C52   C56   A    
C51   O23   S    
C31   F4    S    
C28   H20   S    
C63   H36   S    
O6    C2    A    
C23   C35   A    
C66   H42   S    
O11   V3    S    
C65   H39   S    
C22   C34   A    
C26   H18   S    
O12   V4    S    
O21   C57   S    
C27   C31   A    
C28   C32   A    
C9    C13   A    
O10   C6    A    
C58   H24   S    
C29   F2    S    
C50   O22   S    
C40   C48   A    
C24   C36   A    
C60   H28   S    
C39   C43   A    
C66   H43   S    
C46   C49   A    
C15   C19   A    
C34   C38   A    
C57   H22   S    
C45   C50   A    
C33   C37   A    
O20   V2    S    
C35   C39   A    
C59   H27   S    
O4    V2    S    
C12   C16   A    
O24   C66   S    
C47   C48   A    
C16   H8    S    
C4    O14   A    
C11   C20   A    
C13   H5    S    
C67   H44   S    
C58   H23   S    
C15   H7    S    
C5    C20   S    
C49   C53   A    
C64   H37   S    
C6    C19   S    
C57   C58   S    
