data_mof_unit_23749.cif
_audit_creation_date              2012-12-11T15:19:41-0500
_audit_creation_method            fapswitch 2.2
_symmetry_space_group_name_H-M    P1
_symmetry_Int_Tables_number       1
_space_group_crystal_system       triclinic
_cell_length_a                    20.027394
_cell_length_b                    6.862248
_cell_length_c                    18.265401
_cell_angle_alpha                 90.000179
_cell_angle_beta                  104.372506
_cell_angle_gamma                 89.998081
_cell_volume                      2431.70244552

loop_
_atom_site_label
_atom_site_type_symbol
_atom_type_description
_atom_site_fract_x
_atom_site_fract_y
_atom_site_fract_z
_atom_type_partial_charge
O1    O     O_R   0.312200 0.620210 0.189560 -0.539495
O2    O     O_R   0.687800 0.379790 0.810440 -0.539503
O3    O     O_R   0.187800 0.120210 0.310440 -0.539496
O4    O     O_R   0.812200 0.879790 0.689560 -0.539497
O5    O     O_R   0.171590 0.286140 0.165000 -0.532381
O6    O     O_R   0.828410 0.713860 0.835000 -0.532380
O7    O     O_R   0.328410 0.786140 0.335000 -0.532384
O8    O     O_R   0.671590 0.213860 0.665000 -0.532386
C1    C     C_R   0.145639 0.459568 0.143761 0.712321
C2    C     C_R   0.854361 0.540431 0.856239 0.712325
C3    C     C_R   0.354361 0.959565 0.356239 0.712312
C4    C     C_R   0.645639 0.040435 0.643761 0.712307
O9    O     O_R   0.310670 0.290220 0.180540 -0.543009
O10   O     O_R   0.689330 0.709780 0.819460 -0.543007
O11   O     O_R   0.189330 0.790220 0.319460 -0.543007
O12   O     O_R   0.810670 0.209780 0.680540 -0.543008
O13   O     O_R   0.327870 0.124170 0.326080 -0.532825
O14   O     O_R   0.672130 0.875830 0.673920 -0.532825
O15   O     O_R   0.172130 0.624170 0.173920 -0.532827
O16   O     O_R   0.827870 0.375830 0.826080 -0.532826
C5    C     C_R   0.330875 0.461448 0.163416 0.719110
C6    C     C_R   0.669126 0.538552 0.836585 0.719110
C7    C     C_R   0.169121 0.961449 0.336579 0.719107
C8    C     C_R   0.830879 0.038551 0.663421 0.719108
O17   O     O_3   0.255480 0.455050 0.297740 -0.365245
O18   O     O_3   0.744520 0.544950 0.702260 -0.365245
O19   O     O_3   0.244520 0.955050 0.202260 -0.365243
O20   O     O_3   0.755480 0.044950 0.797740 -0.365243
V1    V     V_3+5 0.248980 0.178550 0.241140 1.415809
V2    V     V_3+5 0.751020 0.821450 0.758860 1.415812
V3    V     V_3+5 0.251020 0.678550 0.258860 1.415806
V4    V     V_3+5 0.748980 0.321450 0.741140 1.415801
C9    C     C_R   0.926105 0.172065 0.613474 -0.243828
C10   C     C_R   0.073893 0.827935 0.386525 -0.243820
C11   C     C_R   0.573919 0.672067 0.886555 -0.243804
C12   C     C_R   0.426079 0.327925 0.113444 -0.243825
C13   C     C_R   0.878787 0.021370 0.612260 -0.073888
C14   C     C_R   0.121212 0.978632 0.387739 -0.073887
C15   C     C_R   0.621220 0.521369 0.887748 -0.073891
C16   C     C_R   0.378780 0.478629 0.112253 -0.073901
C17   C     C_R   0.881740 0.852911 0.566641 0.073669
C18   C     C_R   0.118258 0.147096 0.433356 0.073667
C19   C     C_R   0.618250 0.352884 0.933346 0.073679
C20   C     C_R   0.381752 0.647113 0.066655 0.073689
C21   C     C_R   0.923596 0.857184 0.513444 0.017142
C22   C     C_R   0.076401 0.142824 0.486553 0.017146
C23   C     C_R   0.576386 0.357133 0.986536 0.017219
C24   C     C_R   0.423612 0.642852 0.013461 0.017221
C25   C     C_R   0.974869 0.003986 0.521372 0.053825
C26   C     C_R   0.025129 0.996018 0.478626 0.053833
C27   C     C_R   0.525132 0.503975 0.978629 0.053942
C28   C     C_R   0.474866 0.496010 0.021369 0.053931
C29   C     C_R   0.976094 0.159218 0.572076 0.075657
C30   C     C_R   0.023904 0.840785 0.427922 0.075669
C31   C     C_R   0.523929 0.659235 0.927950 0.075837
C32   C     C_R   0.476069 0.340751 0.072047 0.075807
C33   C     C_R   0.917789 0.718704 0.453804 -0.026267
C34   C     C_R   0.082206 0.281310 0.546190 -0.026261
C35   C     C_R   0.582163 0.218574 0.046142 -0.026170
C36   C     C_R   0.417831 0.781400 0.953851 -0.026209
C37   C     C_R   0.970553 0.704454 0.415924 -0.154550
C38   C     C_R   0.029443 0.295554 0.584072 -0.154565
C39   C     C_R   0.529400 0.204358 0.084023 -0.154640
C40   C     C_R   0.470595 0.795621 0.915971 -0.154604
H1    H     H_    0.927346 0.294053 0.651522 0.124350
H2    H     H_    0.072653 0.705945 0.348478 0.124343
H3    H     H_    0.572694 0.794061 0.848529 0.124330
H4    H     H_    0.427302 0.205933 0.151468 0.124341
H5    H     H_    0.967563 0.594080 0.372709 0.166169
H6    H     H_    0.032433 0.405929 0.627286 0.166166
H7    H     H_    0.532382 0.093944 0.127224 0.166087
H8    H     H_    0.467613 0.906032 0.872769 0.166093
C41   C     C_1   0.583160 0.027389 0.581559 -0.188133
C42   C     C_1   0.416840 0.972611 0.418441 -0.188134
C43   C     C_1   0.916840 0.527381 0.918441 -0.188116
C44   C     C_1   0.083160 0.472619 0.081559 -0.188117
C45   C     C_1   0.530851 0.010849 0.530173 0.015533
C46   C     C_1   0.469149 0.989151 0.469827 0.015533
C47   C     C_1   0.969149 0.510844 0.969827 0.015552
C48   C     C_1   0.030851 0.489156 0.030173 0.015552
C49   C     C_3   0.850053 0.662321 0.583571 -0.724699
H9    H     H_    0.869201 0.626016 0.644328 0.217032
H10   H     H_    0.792928 0.671786 0.567591 0.206682
H11   H     H_    0.866592 0.534604 0.555893 0.190926
C50   C     C_3   0.149943 0.337690 0.416425 -0.724672
H12   H     H_    0.130795 0.373990 0.355666 0.217022
H13   H     H_    0.133401 0.465411 0.444099 0.190935
H14   H     H_    0.207069 0.328232 0.432407 0.206684
C51   C     C_3   0.649936 0.162292 0.916408 -0.724527
H15   H     H_    0.630809 0.126062 0.855640 0.216997
H16   H     H_    0.707065 0.171704 0.932430 0.206669
H17   H     H_    0.633362 0.034524 0.944038 0.191018
C52   C     C_3   0.350074 0.837722 0.083597 -0.724536
H18   H     H_    0.369216 0.873973 0.144359 0.216983
H19   H     H_    0.366633 0.965473 0.055949 0.190990
H20   H     H_    0.292944 0.828312 0.067591 0.206674
C53   C     C_2   0.853039 0.609497 0.421597 0.389520
H21   H     H_    0.804784 0.657982 0.432268 0.067505
O21   O     O_2   0.852649 0.465712 0.382086 -0.521158
C54   C     C_2   0.146953 0.390539 0.578391 0.389523
H22   H     H_    0.195213 0.342027 0.567738 0.067506
O22   O     O_2   0.147332 0.534387 0.617873 -0.521147
C55   C     C_2   0.646880 0.109174 0.078313 0.389426
H23   H     H_    0.695184 0.157894 0.067821 0.067533
O23   O     O_2   0.647170 0.964858 0.117535 -0.521160
C56   C     C_2   0.353105 0.890771 0.921672 0.389426
H24   H     H_    0.304810 0.842098 0.932208 0.067506
O24   O     O_2   0.352793 0.034999 0.882383 -0.521124

loop_
_geom_bond_atom_site_label_1
_geom_bond_atom_site_label_2
_ccdc_geom_bond_type
C34   C38   A    
O1    C5    A    
C52   H18   S    
O19   V1    S    
O13   V1    S    
O3    C7    A    
O15   V3    S    
C10   H2    S    
C53   H21   S    
C9    H1    S    
C45   C46   S    
O7    C3    A    
C21   C33   A    
C19   C51   S    
O9    V1    S    
C14   C18   A    
O4    C8    A    
C56   H24   S    
O1    V3    S    
C38   H6    S    
O2    V4    S    
C18   C22   A    
O3    V1    S    
C12   C16   A    
C20   C52   S    
C49   H10   S    
C1    O15   A    
C2    O16   A    
C2    C43   S    
O2    C6    A    
O14   V2    S    
C1    C44   S    
C21   C25   A    
C51   H16   S    
C19   C23   A    
C16   C20   A    
O11   C7    A    
C33   C53   S    
O12   C8    A    
C4    C41   S    
C22   C34   A    
O17   V1    S    
O10   V2    S    
C53   O21   D    
C24   C36   A    
O5    V1    S    
C50   H13   S    
C9    C29   A    
O7    V3    S    
O19   V3    S    
C27   C28   A    
O8    V4    S    
O20   V4    S    
C34   C54   S    
O18   V4    S    
C15   C19   A    
C50   H12   S    
C11   C31   A    
C49   H9    S    
C11   C15   A    
O5    C1    A    
C12   C32   A    
C29   C38   A    
C11   H3    S    
O8    C4    A    
C17   C49   S    
C31   C40   A    
C54   O22   D    
C8    C13   S    
C32   C39   A    
O9    C5    A    
C55   O23   D    
C18   C50   S    
C26   C30   A    
C51   H17   S    
C33   C37   A    
O6    V2    S    
C39   H7    S    
C10   C30   A    
C52   H20   S    
C49   H11   S    
C36   C56   S    
O16   V4    S    
C50   H14   S    
C37   H5    S    
C3    O13   A    
C17   C21   A    
C10   C14   A    
O17   V3    S    
C44   C48   T    
C3    C42   S    
O6    C2    A    
C23   C27   A    
C12   H4    S    
O11   V3    S    
C30   C37   A    
O12   V4    S    
C7    C14   S    
C22   C26   A    
C35   C39   A    
C36   C40   A    
C35   C55   S    
O10   C6    A    
O20   V2    S    
C5    C16   S    
C56   O24   D    
C25   C29   A    
C6    C15   S    
C54   H22   S    
C27   C31   A    
C40   H8    S    
C13   C17   A    
C9    C13   A    
C23   C35   A    
C47   C48   S    
C20   C24   A    
C24   C28   A    
C52   H19   S    
C25   C26   A    
C42   C46   T    
C4    O14   A    
C55   H23   S    
C41   C45   T    
C51   H15   S    
C43   C47   T    
O4    V2    S    
C28   C32   A    
O18   V2    S    
