data_mof_unit_51452.cif
_audit_creation_date              2012-12-10T18:12:29-0500
_audit_creation_method            fapswitch 2.2
_symmetry_space_group_name_H-M    P1
_symmetry_Int_Tables_number       1
_space_group_crystal_system       triclinic
_cell_length_a                    9.446323
_cell_length_b                    10.871114
_cell_length_c                    17.24366
_cell_angle_alpha                 90.47398
_cell_angle_beta                  85.939518
_cell_angle_gamma                 91.975861
_cell_volume                      1765.26155121

loop_
_atom_site_label
_atom_site_type_symbol
_atom_type_description
_atom_site_fract_x
_atom_site_fract_y
_atom_site_fract_z
_atom_type_partial_charge
C1    C     C_R   0.502391 0.739386 0.504079 0.833258
C2    C     C_R   0.350388 0.493615 0.782277 0.652761
C3    C     C_R   0.405689 0.559149 0.148016 0.125894
C4    C     C_R   0.404188 0.545993 0.228869 -0.259402
C5    C     C_R   0.654290 0.498596 0.219675 0.581775
C6    C     C_R   0.657233 0.510116 0.139414 -0.259234
C7    C     C_R   0.534103 0.537652 0.103511 0.051190
C8    C     C_2   0.472689 0.449369 0.980642 -0.218148
C9    C     C_2   0.541536 0.537582 0.018737 -0.219781
C10   C     C_R   0.526803 0.514689 0.264936 -0.174547
C11   C     C_3   0.435868 0.913757 0.428745 0.391539
C12   C     C_R   0.481758 0.496213 0.650207 0.862613
C13   C     C_3   0.413646 0.054897 0.428002 -0.110255
C14   C     C_3   0.421194 0.929938 0.574133 -0.515036
C15   C     C_3   0.665980 0.933978 0.499090 -0.037320
C16   C     C_3   0.508764 0.876148 0.503216 -0.085858
C17   C     C_3   0.499655 0.119313 0.493492 -0.085250
C18   C     C_3   0.450051 0.069955 0.576763 0.487612
C19   C     C_3   0.658413 0.074495 0.477958 -0.183735
C20   C     C_3   0.918337 0.401132 0.447855 -0.251546
C21   C     C_3   0.084849 0.399989 0.447946 -0.334680
C22   C     C_3   0.925415 0.616915 0.469380 -0.280430
C23   C     C_R   0.498916 0.259217 0.495055 0.797225
C24   C     C_3   0.904515 0.478835 0.577246 -0.316154
C25   C     C_3   0.092660 0.615562 0.469233 0.506390
C26   C     C_3   0.071256 0.481308 0.578382 1.123667
C27   C     C_R   0.518566 0.502787 0.349853 0.860357
C28   C     C_R   0.476170 0.480922 0.735059 -0.184348
C29   C     C_R   0.601051 0.449334 0.769081 -0.306507
C30   C     C_R   0.603345 0.432991 0.849513 0.142551
C31   C     C_R   0.476501 0.451564 0.895955 0.052253
C32   C     C_R   0.351255 0.479158 0.862199 -0.290400
Cu1   Cu    Cu3+1 0.357600 0.500140 0.499960 1.062305
Cu2   Cu    Cu3+1 0.642400 0.499860 0.500040 0.924059
H1    H     H_    0.696593 0.437090 0.732118 0.176764
H2    H     H_    0.755059 0.493945 0.104714 0.160013
H3    H     H_    0.333718 0.862500 0.425019 0.157560
H4    H     H_    0.466923 0.090862 0.373260 0.153749
H5    H     H_    0.306629 0.909308 0.569914 0.208850
H6    H     H_    0.723609 0.886167 0.450444 0.193546
H7    H     H_    0.307658 0.560374 0.264596 0.222198
H8    H     H_    0.717052 0.127529 0.521196 0.141133
H9    H     H_    0.443700 0.887127 0.629455 0.160665
H10   H     H_    0.536841 0.088216 0.616159 0.090067
H11   H     H_    0.886899 0.410622 0.387381 0.235601
H12   H     H_    0.875295 0.311337 0.469460 0.159192
H13   H     H_    0.112044 0.310816 0.468979 0.174648
H14   H     H_    0.133573 0.408350 0.387547 0.211799
H15   H     H_    0.893030 0.635998 0.409975 0.223026
H16   H     H_    0.861298 0.550280 0.617835 0.173653
H17   H     H_    0.859265 0.389207 0.599973 0.163925
H18   H     H_    0.886675 0.693407 0.506764 0.126798
H19   H     H_    0.126495 0.693637 0.506323 0.097173
H20   H     H_    0.608416 0.606902 0.987601 0.161719
H21   H     H_    0.254666 0.493323 0.898418 0.159565
H22   H     H_    0.405172 0.380581 0.011882 0.160644
N1    N     N_3   0.856560 0.499750 0.498270 -0.187430
N2    N     N_3   0.143860 0.496700 0.498910 -0.227095
O1    O     O_R   0.379740 0.682430 0.499960 -0.581042
O2    O     O_R   0.620260 0.682190 0.500020 -0.593707
O3    O     O_R   0.365800 0.500150 0.613560 -0.437003
O4    O     O_R   0.606310 0.499910 0.613620 -0.634046
O5    O     O_R   0.379740 0.317810 0.499980 -0.539689
O6    O     O_R   0.620260 0.317570 0.500040 -0.624920
O7    O     O_R   0.393690 0.500090 0.386380 -0.565243
O8    O     O_R   0.634200 0.499850 0.386440 -0.541098
F1    F     F_    0.514312 0.875595 0.362711 -0.710027
C33   C     C_3   0.256285 0.085878 0.416699 -0.395912
C34   C     C_3   0.131611 0.021546 0.466719 -0.360577
C35   C     C_3   0.076821 0.093106 0.538654 -0.666836
H23   H     H_    0.146556 0.172375 0.550582 0.356654
H24   H     H_    0.971075 0.129536 0.530378 0.174913
H25   H     H_    0.067502 0.032584 0.590476 0.251945
H26   H     H_    0.041620 0.008090 0.429130 0.192174
H27   H     H_    0.152148 0.926955 0.483904 0.187139
H28   H     H_    0.246890 0.185766 0.414346 0.195558
H29   H     H_    0.238566 0.057186 0.355857 0.168016
F2    F     F_    0.336049 0.128922 0.612058 -0.651913
C36   C     C_3   0.762664 0.917694 0.570196 -0.429921
C37   C     C_3   0.715322 0.835192 0.640419 -0.375482
C38   C     C_3   0.841889 0.806237 0.686956 -0.802009
H30   H     H_    0.924678 0.759771 0.649671 0.274174
H31   H     H_    0.889030 0.892364 0.710776 0.256757
H32   H     H_    0.806351 0.744502 0.736075 0.248236
H33   H     H_    0.640924 0.885333 0.680837 0.212397
H34   H     H_    0.664391 0.747177 0.624363 0.247882
H35   H     H_    0.867267 0.887590 0.545057 0.196702
H36   H     H_    0.789244 0.006972 0.597901 0.191780
C39   C     C_3   0.743715 0.117029 0.399864 -0.416237
C40   C     C_3   0.747963 0.037499 0.325082 -0.267441
C41   C     C_3   0.858031 0.091065 0.264095 -0.893205
H37   H     H_    0.832766 0.187060 0.249957 0.284654
H38   H     H_    0.966103 0.090346 0.285665 0.250619
H39   H     H_    0.857581 0.034713 0.210084 0.253553
H40   H     H_    0.778010 0.941933 0.335482 0.248789
H41   H     H_    0.645188 0.036768 0.298246 0.266332
H42   H     H_    0.709136 0.209129 0.383460 0.216642
H43   H     H_    0.855946 0.129638 0.413545 0.191446
F3    F     F_    0.152467 0.638981 0.394869 -0.679843
F4    F     F_    0.775065 0.468931 0.252335 -0.698558
F5    F     F_    0.112447 0.373944 0.611577 -0.638298
F6    F     F_    0.110640 0.578510 0.625658 -0.657199
C42   C     C_3   0.274618 0.596877 0.108066 -0.407866
C43   C     C_3   0.146403 0.633984 0.162196 -0.326189
C44   C     C_3   0.026084 0.677526 0.115713 -0.811626
H44   H     H_    0.060948 0.761129 0.081980 0.246144
H45   H     H_    0.992494 0.604076 0.075085 0.243705
H46   H     H_    0.933650 0.700305 0.156053 0.264896
H47   H     H_    0.105659 0.553619 0.197601 0.250930
H48   H     H_    0.178449 0.709956 0.201536 0.246530
H49   H     H_    0.306241 0.676227 0.069594 0.214086
H50   H     H_    0.239285 0.519415 0.070956 0.196315
F7    F     F_    0.227491 0.522853 0.752145 -0.596860
C45   C     C_3   0.736780 0.394731 0.886968 -0.411440
C46   C     C_3   0.863272 0.360752 0.830630 -0.332140
C47   C     C_3   0.985802 0.315432 0.874689 -0.769583
H51   H     H_    0.019620 0.386611 0.916749 0.237102
H52   H     H_    0.953039 0.229603 0.906608 0.237434
H53   H     H_    0.077385 0.295851 0.832963 0.280658
H54   H     H_    0.830240 0.286543 0.790277 0.222806
H55   H     H_    0.902062 0.442949 0.796388 0.260771
H56   H     H_    0.772868 0.470922 0.924846 0.197499
H57   H     H_    0.707654 0.313651 0.924417 0.210088

loop_
_geom_bond_atom_site_label_1
_geom_bond_atom_site_label_2
_ccdc_geom_bond_type
C10   C27   S    
Cu1   N2    S    
C46   H55   S    
C14   C18   S    
C8    H22   S    
C22   N1    S    
C36   H35   S    
C45   C46   S    
Cu1   O7    S    
C40   H40   S    
C15   C19   S    
C44   H45   S    
C37   H33   S    
C12   C28   S    
C27   O7    A    
C5    C6    A    
C2    C32   A    
C28   C29   A    
C25   H19   S    
C3    C7    A    
C1    O1    A    
C26   F5    S    
C30   C31   A    
C2    F7    S    
C4    H7    S    
C15   C16   S    
Cu2   O4    S    
C47   H51   S    
C42   H49   S    
C11   H3    S    
C36   H36   S    
C37   H34   S    
C14   H5    S    
C33   C34   S    
C25   F3    S    
C15   C36   S    
C6    H2    S    
C8    C9    D    
C22   C25   S    
Cu2   N1    S    
C35   H23   S    
C32   H21   S    
C20   H11   S    
C19   H8    S    
Cu1   O5    S    
C21   H14   S    
C24   H17   S    
C23   O5    A    
Cu1   O1    S    
Cu2   O2    S    
Cu2   O8    S    
C43   C44   S    
C38   H31   S    
C11   F1    S    
C38   H30   S    
C24   H16   S    
C44   H46   S    
C1    O2    A    
C41   H37   S    
C24   N1    S    
C39   H42   S    
C42   H50   S    
C29   C30   A    
C19   C39   S    
C18   H10   S    
C41   H38   S    
C12   O4    A    
C11   C16   S    
C31   C32   A    
C5    F4    S    
C18   F2    S    
C35   H25   S    
Cu2   O6    S    
C17   C18   S    
C34   H26   S    
C1    C16   S    
C17   C23   S    
C26   N2    S    
C13   H4    S    
C47   H52   S    
C22   H15   S    
C45   H57   S    
C23   O6    A    
C14   C16   S    
C25   N2    S    
C4    C10   A    
C3    C4    A    
C38   H32   S    
C22   H18   S    
C30   C45   S    
C3    C42   S    
C33   H29   S    
C7    C9    S    
C8    C31   S    
C24   C26   S    
C37   C38   S    
C35   H24   S    
C40   H41   S    
C6    C7    A    
C33   H28   S    
C44   H44   S    
C29   H1    S    
C47   H53   S    
C13   C17   S    
C39   H43   S    
C39   C40   S    
C21   N2    S    
C27   O8    A    
C26   F6    S    
C41   H39   S    
C43   H48   S    
C12   O3    A    
C11   C13   S    
C40   C41   S    
C43   H47   S    
C17   C19   S    
Cu1   Cu2   S    
C34   H27   S    
C34   C35   S    
C15   H6    S    
C36   C37   S    
C45   H56   S    
C5    C10   A    
C20   C21   S    
Cu1   O3    S    
C46   H54   S    
C42   C43   S    
C2    C28   A    
C9    H20   S    
C20   N1    S    
C20   H12   S    
C46   C47   S    
C14   H9    S    
C21   H13   S    
C13   C33   S    
