data_mof_unit_35901.cif
_audit_creation_date              2012-12-10T18:05:13-0500
_audit_creation_method            fapswitch 2.2
_symmetry_space_group_name_H-M    P1
_symmetry_Int_Tables_number       1
_space_group_crystal_system       triclinic
_cell_length_a                    9.653731
_cell_length_b                    10.773475
_cell_length_c                    17.100546
_cell_angle_alpha                 86.608563
_cell_angle_beta                  94.395028
_cell_angle_gamma                 90.11624
_cell_volume                      1770.18796167

loop_
_atom_site_label
_atom_site_type_symbol
_atom_type_description
_atom_site_fract_x
_atom_site_fract_y
_atom_site_fract_z
_atom_type_partial_charge
C1    C     C_R   0.500037 0.263112 0.499260 0.825043
C2    C     C_R   0.499962 0.736888 0.500742 0.825108
C3    C     C_R   0.479534 0.928965 0.570796 0.139547
C4    C     C_R   0.520435 0.071038 0.429201 0.139497
C5    C     C_R   0.498561 0.870971 0.500311 -0.054577
C6    C     C_R   0.501431 0.129030 0.499689 -0.054540
C7    C     C_R   0.079028 0.414438 0.546968 0.208813
C8    C     C_R   0.920972 0.585562 0.453032 0.208766
C9    C     C_R   0.930795 0.414383 0.546074 0.059829
C10   C     C_R   0.069206 0.585628 0.453934 0.059779
C11   C     C_R   0.518520 0.502166 0.650565 0.786475
C12   C     C_R   0.481480 0.497835 0.349433 0.786414
C13   C     C_R   0.531638 0.509411 0.736570 -0.099807
C14   C     C_R   0.468363 0.490598 0.263424 -0.099856
C15   C     C_R   0.423645 0.460131 0.778604 -0.233001
C16   C     C_R   0.576431 0.539757 0.221401 -0.233038
C17   C     C_R   0.430930 0.460092 0.859655 -0.126680
C18   C     C_R   0.569159 0.539799 0.140351 -0.126764
C19   C     C_R   0.546858 0.510691 0.901539 0.300374
C20   C     C_R   0.453154 0.489346 0.098453 0.300400
C21   C     C_R   0.657570 0.560653 0.860559 -0.117927
C22   C     C_R   0.342361 0.439511 0.139420 -0.117993
C23   C     C_R   0.650091 0.561299 0.777471 -0.104794
C24   C     C_R   0.349846 0.438836 0.222510 -0.104754
C25   C     C_R   0.484058 0.059347 0.570820 0.104278
C26   C     C_R   0.515931 0.940654 0.429179 0.104235
Cu1   Cu    Cu3+1 0.640660 0.500020 0.500000 0.992218
Cu2   Cu    Cu3+1 0.359340 0.499980 0.500000 0.992204
H1    H     H_    0.666918 0.580433 0.251328 0.174503
H2    H     H_    0.333217 0.419351 0.748685 0.174442
H3    H     H_    0.655407 0.579512 0.110637 0.195440
H4    H     H_    0.344753 0.420270 0.889382 0.195348
N1    N     N_2   0.554044 0.516429 0.984585 -0.214025
N2    N     N_2   0.445971 0.483614 0.015407 -0.214013
N3    N     N_R   0.852070 0.500030 0.499980 -0.216108
N4    N     N_R   0.147930 0.499970 0.500020 -0.216107
O1    O     O_R   0.618740 0.319660 0.500000 -0.569171
O2    O     O_R   0.381260 0.680340 0.500000 -0.569218
O3    O     O_R   0.381170 0.319630 0.500010 -0.564215
O4    O     O_R   0.618830 0.680370 0.499990 -0.564151
O5    O     O_R   0.631780 0.498870 0.613920 -0.536909
O6    O     O_R   0.368220 0.501130 0.386080 -0.536929
O7    O     O_R   0.394210 0.498840 0.613930 -0.606953
O8    O     O_R   0.605790 0.501160 0.386070 -0.606962
C27   C     C_2   0.778063 0.616995 0.905240 0.906938
O9    O     O_2   0.830898 0.563163 0.965131 -0.535186
O10   O     O_R   0.830187 0.732110 0.879202 -0.750889
H5    H     H_    0.911998 0.760375 0.914466 0.350478
C28   C     C_2   0.221745 0.383378 0.094719 0.906849
O11   O     O_2   0.169028 0.437312 0.034833 -0.535123
O12   O     O_R   0.169360 0.268354 0.120736 -0.750837
H6    H     H_    0.087476 0.240245 0.085465 0.350486
C29   C     C_2   0.766535 0.615383 0.734760 0.965530
O13   O     O_2   0.744489 0.699320 0.684046 -0.595281
O14   O     O_R   0.901708 0.570918 0.753476 -0.714588
H7    H     H_    0.971927 0.614317 0.720212 0.335265
C30   C     C_2   0.233347 0.384843 0.265210 0.965668
O15   O     O_2   0.255284 0.300789 0.315855 -0.595233
O16   O     O_R   0.098246 0.429527 0.246559 -0.714575
H8    H     H_    0.027975 0.386183 0.279814 0.335216
C31   C     C_3   0.474033 0.122151 0.647669 -0.834060
H9    H     H_    0.556083 0.085447 0.691943 0.250572
H10   H     H_    0.489432 0.224023 0.643018 0.212248
H11   H     H_    0.370516 0.104345 0.670080 0.238995
C32   C     C_3   0.525972 0.877849 0.352331 -0.833955
H12   H     H_    0.443930 0.914549 0.308050 0.250574
H13   H     H_    0.629493 0.895662 0.329925 0.238992
H14   H     H_    0.510580 0.775975 0.356985 0.212263
C33   C     C_3   0.453965 0.853933 0.646482 -0.736695
H15   H     H_    0.448458 0.752610 0.640448 0.219155
H16   H     H_    0.538712 0.870193 0.692256 0.251747
H17   H     H_    0.353406 0.881995 0.667582 0.231663
C34   C     C_3   0.545945 0.146074 0.353507 -0.736793
H18   H     H_    0.551449 0.247397 0.359541 0.219123
H19   H     H_    0.646487 0.118023 0.332381 0.231692
H20   H     H_    0.461165 0.129813 0.307752 0.251733
C35   C     C_3   0.154696 0.317088 0.601923 -0.746746
H21   H     H_    0.119592 0.321839 0.662018 0.202660
H22   H     H_    0.131777 0.223131 0.580897 0.236794
H23   H     H_    0.266533 0.325817 0.609735 0.265408
C36   C     C_3   0.845305 0.682905 0.398072 -0.746770
H24   H     H_    0.868223 0.776866 0.419092 0.236814
H25   H     H_    0.880412 0.678143 0.337978 0.202662
H26   H     H_    0.733467 0.674179 0.390262 0.265415
C37   C     C_2   0.862618 0.317776 0.594676 0.897647
O17   O     O_2   0.831539 0.339523 0.660416 -0.579051
O18   O     O_R   0.846943 0.197946 0.568057 -0.752467
H27   H     H_    0.802884 0.138635 0.607149 0.337609
C38   C     C_2   0.137383 0.682279 0.405365 0.897692
O19   O     O_2   0.168532 0.660577 0.339631 -0.578987
O20   O     O_R   0.152996 0.802097 0.432012 -0.752494
H28   H     H_    0.197065 0.861441 0.392944 0.337614

loop_
_geom_bond_atom_site_label_1
_geom_bond_atom_site_label_2
_ccdc_geom_bond_type
O18   H27   S    
C31   H11   S    
C34   H18   S    
O14   H7    S    
C36   H24   S    
C27   O9    D    
C3    C33   S    
C37   O17   D    
C30   O16   S    
C6    C25   A    
C32   H13   S    
C13   C23   A    
C7    C9    A    
C7    N4    A    
C27   O10   S    
C14   C24   A    
C33   H16   S    
C2    O2    A    
C12   O6    A    
C9    C37   S    
Cu1   O8    S    
C10   C38   S    
C24   C30   S    
C28   O12   S    
C11   O7    A    
C38   O20   S    
C18   C20   A    
C1    O1    A    
C7    C35   S    
C20   N2    S    
C35   H22   S    
O16   H8    S    
C34   H19   S    
C33   H15   S    
C36   H25   S    
C23   C29   S    
C21   C27   S    
C29   O14   S    
C37   O18   S    
C8    C36   S    
C3    C25   A    
C4    C6    A    
C19   N1    S    
O20   H28   S    
Cu2   O3    S    
Cu1   N3    S    
C16   H1    S    
C35   H21   S    
O12   H6    S    
C8    N3    A    
C33   H17   S    
Cu1   O5    S    
O10   H5    S    
Cu2   O2    S    
Cu1   O4    S    
C32   H14   S    
C31   H10   S    
N1    N2    D    
C25   C31   S    
C4    C34   S    
C22   C28   S    
C16   C18   A    
C20   C22   A    
C28   O11   D    
C13   C15   A    
C34   H20   S    
C14   C16   A    
C2    C5    S    
Cu1   Cu2   S    
C36   H26   S    
C15   H2    S    
C35   H23   S    
C15   C17   A    
C19   C21   A    
C26   C32   S    
C12   C14   S    
C3    C5    A    
C4    C26   A    
C29   O13   D    
Cu2   O7    S    
C21   C23   A    
C12   O8    A    
C11   C13   S    
C30   O15   D    
Cu1   O1    S    
Cu2   O6    S    
C17   C19   A    
C11   O5    A    
C22   C24   A    
C31   H9    S    
C1    O3    A    
C5    C26   A    
C2    O4    A    
Cu2   N4    S    
C8    C10   A    
C32   H12   S    
C1    C6    S    
C9    N3    A    
C17   H4    S    
C10   N4    A    
C18   H3    S    
C38   O19   D    
