data_mof_unit_64592.cif
_audit_creation_date              2013-03-05T16:25:21-0500
_audit_creation_method            fapswitch 2.2
_symmetry_space_group_name_H-M    P1
_symmetry_Int_Tables_number       1
_space_group_crystal_system       monoclinic
_cell_length_a                    25.87699
_cell_length_b                    43.157085
_cell_length_c                    25.175623
_cell_angle_alpha                 90.0
_cell_angle_beta                  120.979819
_cell_angle_gamma                 90.0
_cell_volume                      24104.8014889

loop_
_atom_site_label
_atom_site_type_symbol
_atom_site_description
_atom_site_fract_x
_atom_site_fract_y
_atom_site_fract_z
_atom_type_partial_charge
Zn1   Zn    Zn3+2 0.517420 0.775920 0.948090 1.018739
Zn2   Zn    Zn3+2 0.482580 0.224080 0.051910 1.016289
Zn3   Zn    Zn3+2 0.482580 0.775920 0.051910 1.018739
Zn4   Zn    Zn3+2 0.517420 0.224080 0.948090 1.016290
Zn5   Zn    Zn3+2 0.017420 0.275920 0.948090 1.018697
Zn6   Zn    Zn3+2 0.982580 0.724080 0.051910 1.016327
Zn7   Zn    Zn3+2 0.982580 0.275920 0.051910 1.018697
Zn8   Zn    Zn3+2 0.017420 0.724080 0.948090 1.016327
Zn9   Zn    Zn3+2 0.430670 0.724000 0.948080 0.998823
Zn10  Zn    Zn3+2 0.569330 0.276000 0.051920 0.999098
Zn11  Zn    Zn3+2 0.569330 0.724000 0.051920 0.998823
Zn12  Zn    Zn3+2 0.430670 0.276000 0.948080 0.999098
Zn13  Zn    Zn3+2 0.930670 0.224000 0.948080 0.998812
Zn14  Zn    Zn3+2 0.069330 0.776000 0.051920 0.999059
Zn15  Zn    Zn3+2 0.069330 0.224000 0.051920 0.998812
Zn16  Zn    Zn3+2 0.930670 0.776000 0.948080 0.999059
O1    O     O_3   0.500000 0.749970 0.000000 -0.498194
O2    O     O_3   0.500000 0.250030 0.000000 -0.499057
O3    O     O_3   0.000000 0.249970 0.000000 -0.498162
O4    O     O_3   0.000000 0.750030 0.000000 -0.499075
O5    O     O_R   0.402360 0.768140 0.036330 -0.609491
O6    O     O_R   0.597640 0.231860 0.963670 -0.608180
O7    O     O_R   0.597640 0.768140 0.963670 -0.609490
O8    O     O_R   0.402360 0.231860 0.036330 -0.608180
O9    O     O_R   0.902360 0.268140 0.036330 -0.609435
O10   O     O_R   0.097640 0.731860 0.963670 -0.608099
O11   O     O_R   0.097640 0.268140 0.963670 -0.609434
O12   O     O_R   0.902360 0.731860 0.036330 -0.608100
O13   O     O_R   0.400350 0.731780 0.861400 -0.646543
O14   O     O_R   0.599650 0.268220 0.138600 -0.645866
O15   O     O_R   0.599650 0.731780 0.138600 -0.646543
O16   O     O_R   0.400350 0.268220 0.861400 -0.645866
O17   O     O_R   0.900350 0.231780 0.861400 -0.646533
O18   O     O_R   0.099650 0.768220 0.138600 -0.645859
O19   O     O_R   0.099650 0.231780 0.138600 -0.646532
O20   O     O_R   0.900350 0.768220 0.861400 -0.645859
O21   O     O_R   0.451490 0.680670 0.963650 -0.623227
O22   O     O_R   0.548510 0.319330 0.036350 -0.617777
O23   O     O_R   0.548510 0.680670 0.036350 -0.623227
O24   O     O_R   0.451490 0.319330 0.963650 -0.617777
O25   O     O_R   0.951490 0.180670 0.963650 -0.623230
O26   O     O_R   0.048510 0.819330 0.036350 -0.617785
O27   O     O_R   0.048510 0.180670 0.036350 -0.623230
O28   O     O_R   0.951490 0.819330 0.963650 -0.617785
O29   O     O_R   0.487790 0.819270 0.036340 -0.648598
O30   O     O_R   0.512210 0.180730 0.963660 -0.648421
O31   O     O_R   0.512210 0.819270 0.963660 -0.648598
O32   O     O_R   0.487790 0.180730 0.036340 -0.648421
O33   O     O_R   0.987790 0.319270 0.036340 -0.648708
O34   O     O_R   0.012210 0.680730 0.963660 -0.648318
O35   O     O_R   0.012210 0.319270 0.963660 -0.648708
O36   O     O_R   0.987790 0.680730 0.036340 -0.648318
O37   O     O_R   0.461070 0.768120 0.861410 -0.624298
O38   O     O_R   0.538930 0.231880 0.138590 -0.625806
O39   O     O_R   0.538930 0.768120 0.138590 -0.624298
O40   O     O_R   0.461070 0.231880 0.861410 -0.625806
O41   O     O_R   0.961070 0.268120 0.861410 -0.624355
O42   O     O_R   0.038930 0.731880 0.138590 -0.625844
O43   O     O_R   0.038930 0.268120 0.138590 -0.624355
O44   O     O_R   0.961070 0.731880 0.861410 -0.625844
O45   O     O_R   0.366040 0.731790 0.963660 -0.649766
O46   O     O_R   0.633960 0.268210 0.036340 -0.646903
O47   O     O_R   0.633960 0.731790 0.036340 -0.649766
O48   O     O_R   0.366040 0.268210 0.963660 -0.646903
O49   O     O_R   0.866040 0.231790 0.963660 -0.649794
O50   O     O_R   0.133960 0.768210 0.036340 -0.646935
O51   O     O_R   0.133960 0.231790 0.036340 -0.649794
O52   O     O_R   0.866040 0.768210 0.963660 -0.646935
C1    C     C_R   0.359937 0.749932 0.999912 0.896546
C2    C     C_R   0.640053 0.250069 0.000079 0.896232
C3    C     C_R   0.640062 0.749932 0.000088 0.896545
C4    C     C_R   0.359946 0.250069 0.999921 0.896232
C5    C     C_R   0.859937 0.249932 0.999912 0.896575
C6    C     C_R   0.140053 0.750069 0.000079 0.896237
C7    C     C_R   0.140063 0.249932 0.000088 0.896575
C8    C     C_R   0.859947 0.750069 0.999921 0.896238
H1    H     H_    0.564021 0.429532 0.097978 0.142609
H2    H     H_    0.436123 0.570341 0.901953 0.145687
H3    H     H_    0.435979 0.429532 0.902022 0.142609
H4    H     H_    0.563877 0.570341 0.098047 0.145687
H5    H     H_    0.064021 0.929532 0.097978 0.142616
H6    H     H_    0.936122 0.070341 0.901953 0.145695
H7    H     H_    0.935979 0.929532 0.902022 0.142616
H8    H     H_    0.063878 0.070341 0.098047 0.145695
C9    C     C_R   0.415934 0.749906 0.831756 0.815339
C10   C     C_R   0.584040 0.250108 0.168241 0.809811
C11   C     C_R   0.584066 0.749906 0.168244 0.815339
C12   C     C_R   0.415959 0.250108 0.831759 0.809811
C13   C     C_R   0.915934 0.249906 0.831756 0.815321
C14   C     C_R   0.084041 0.750108 0.168241 0.809764
C15   C     C_R   0.084066 0.249906 0.168244 0.815321
C16   C     C_R   0.915959 0.750108 0.831759 0.809765
C17   C     C_R   0.500000 0.665846 0.000000 0.859585
C18   C     C_R   0.500000 0.334103 0.000000 0.832982
C19   C     C_R   0.000000 0.165846 0.000000 0.859560
C20   C     C_R   0.000000 0.834103 0.000000 0.832975
C21   C     C_R   0.500000 0.834127 0.000000 0.782752
C22   C     C_R   0.500000 0.165869 0.000000 0.783521
C23   C     C_R   0.000000 0.334129 0.000000 0.782909
C24   C     C_R   0.000000 0.665871 0.000000 0.783357
C25   C     C_R   0.500456 0.115265 0.952061 -0.184537
C26   C     C_R   0.526612 0.884718 0.971989 -0.184757
C27   C     C_R   0.499543 0.115265 0.047939 -0.184537
C28   C     C_R   0.473388 0.884718 0.028011 -0.184757
C29   C     C_R   0.999831 0.615273 0.951728 -0.184523
C30   C     C_R   0.026078 0.384726 0.971448 -0.184784
C31   C     C_R   0.000168 0.615273 0.048272 -0.184523
C32   C     C_R   0.973922 0.384726 0.028552 -0.184784
H9    H     H_    0.500612 0.127365 0.914458 0.164586
H10   H     H_    0.547615 0.872611 0.950281 0.165302
H11   H     H_    0.499388 0.127365 0.085542 0.164586
H12   H     H_    0.452385 0.872611 0.049719 0.165302
H13   H     H_    0.999489 0.627377 0.913866 0.164301
H14   H     H_    0.046659 0.372622 0.949308 0.165540
H15   H     H_    0.000510 0.627377 0.086134 0.164301
H16   H     H_    0.953341 0.372622 0.050692 0.165540
C33   C     C_R   0.500091 0.082933 0.951901 -0.067332
C34   C     C_R   0.526943 0.917051 0.972367 -0.066884
C35   C     C_R   0.499909 0.082933 0.048099 -0.067332
C36   C     C_R   0.473057 0.917051 0.027633 -0.066884
C37   C     C_R   0.999448 0.582941 0.951562 -0.067180
C38   C     C_R   0.026395 0.417058 0.971808 -0.067034
C39   C     C_R   0.000552 0.582941 0.048438 -0.067180
C40   C     C_R   0.973605 0.417058 0.028192 -0.067034
H17   H     H_    0.500185 0.070538 0.914535 0.146152
H18   H     H_    0.547865 0.929448 0.950881 0.146094
H19   H     H_    0.499815 0.070538 0.085465 0.146152
H20   H     H_    0.452135 0.929448 0.049119 0.146094
H21   H     H_    0.999038 0.570545 0.913933 0.146036
H22   H     H_    0.046890 0.429454 0.949884 0.146186
H23   H     H_    0.000962 0.570545 0.086067 0.146036
H24   H     H_    0.953110 0.429454 0.050116 0.146186
C41   C     C_R   0.500000 0.066683 0.000000 0.248542
C42   C     C_R   0.500000 0.933297 0.000000 0.248326
C43   C     C_R   0.000000 0.566693 0.000000 0.248594
C44   C     C_R   0.000000 0.433307 0.000000 0.248368
H25   H     H_    0.402840 0.471619 0.943250 0.140604
H26   H     H_    0.597153 0.528220 0.056775 0.140921
H27   H     H_    0.597160 0.471619 0.056750 0.140604
H28   H     H_    0.402847 0.528220 0.943225 0.140921
H29   H     H_    0.902840 0.971619 0.943251 0.140515
H30   H     H_    0.097153 0.028220 0.056774 0.140831
H31   H     H_    0.097160 0.971619 0.056749 0.140515
H32   H     H_    0.902847 0.028220 0.943225 0.140831
C45   C     C_R   0.500000 0.131724 0.000000 -0.011367
C46   C     C_R   0.500000 0.868264 0.000000 -0.011298
C47   C     C_R   0.000000 0.631730 0.000000 -0.011073
C48   C     C_R   0.000000 0.368270 0.000000 -0.011552
C49   C     C_R   0.553183 0.016304 0.041217 0.204308
C50   C     C_R   0.446692 0.983667 0.959114 0.204616
C51   C     C_R   0.446817 0.016304 0.958783 0.204308
C52   C     C_R   0.553308 0.983667 0.040886 0.204616
C53   C     C_R   0.053487 0.516318 0.040372 0.204398
C54   C     C_R   0.946399 0.483682 0.959965 0.204535
C55   C     C_R   0.946513 0.516318 0.959628 0.204398
C56   C     C_R   0.053601 0.483682 0.040035 0.204535
C57   C     C_R   0.500000 0.967425 0.000000 -0.275484
C58   C     C_R   0.500000 0.032549 0.000000 -0.275000
C59   C     C_R   0.000000 0.467438 0.000000 -0.275259
C60   C     C_R   0.000000 0.532562 0.000000 -0.275222
C61   C     C_R   0.500000 0.532404 0.000000 0.133942
C62   C     C_R   0.500000 0.467423 0.000000 0.135935
C63   C     C_R   0.000000 0.032404 0.000000 0.134034
C64   C     C_R   0.000000 0.967423 0.000000 0.136025
H33   H     H_    0.752000 0.770639 0.267927 0.144555
H34   H     H_    0.248845 0.228619 0.732675 0.144824
H35   H     H_    0.248000 0.770639 0.732073 0.144555
H36   H     H_    0.751155 0.228619 0.267325 0.144824
H37   H     H_    0.252004 0.270635 0.267930 0.144532
H38   H     H_    0.748847 0.728617 0.732676 0.144788
H39   H     H_    0.747996 0.270635 0.732070 0.144531
H40   H     H_    0.251153 0.728617 0.267323 0.144788
C65   C     C_R   0.761465 0.737248 0.209886 -0.131173
C66   C     C_R   0.238319 0.262132 0.789830 -0.128606
C67   C     C_R   0.238535 0.737248 0.790114 -0.131173
C68   C     C_R   0.761681 0.262132 0.210170 -0.128606
C69   C     C_R   0.261465 0.237244 0.209886 -0.131135
C70   C     C_R   0.738319 0.762130 0.789830 -0.128562
C71   C     C_R   0.738535 0.237244 0.790114 -0.131135
C72   C     C_R   0.261681 0.762130 0.210170 -0.128563
H41   H     H_    0.768538 0.717915 0.240287 0.122875
H42   H     H_    0.230827 0.281330 0.759011 0.125502
H43   H     H_    0.231462 0.717915 0.759713 0.122875
H44   H     H_    0.769173 0.281330 0.240989 0.125502
H45   H     H_    0.268536 0.217911 0.240284 0.122871
H46   H     H_    0.730827 0.781327 0.759009 0.125504
H47   H     H_    0.731464 0.217911 0.759716 0.122871
H48   H     H_    0.269174 0.781327 0.240990 0.125504
C73   C     C_R   0.761546 0.732465 0.154995 -0.012215
C74   C     C_R   0.237986 0.267090 0.844546 -0.009637
C75   C     C_R   0.238454 0.732465 0.845005 -0.012215
C76   C     C_R   0.762014 0.267090 0.155454 -0.009638
C77   C     C_R   0.261544 0.232462 0.154993 -0.012234
C78   C     C_R   0.737986 0.767088 0.844545 -0.009655
C79   C     C_R   0.738455 0.232462 0.845007 -0.012234
C80   C     C_R   0.262014 0.767088 0.155455 -0.009655
H49   H     H_    0.768405 0.709330 0.143085 0.131665
H50   H     H_    0.230526 0.290226 0.855908 0.134669
H51   H     H_    0.231595 0.709330 0.856915 0.131665
H52   H     H_    0.769474 0.290226 0.144092 0.134669
H53   H     H_    0.268402 0.209327 0.143081 0.131617
H54   H     H_    0.730524 0.790225 0.855906 0.134644
H55   H     H_    0.731598 0.209327 0.856919 0.131617
H56   H     H_    0.269476 0.790225 0.144094 0.134644
C81   C     C_R   0.752650 0.757516 0.115587 0.174787
C82   C     C_R   0.247442 0.242214 0.884502 0.171525
C83   C     C_R   0.247350 0.757516 0.884413 0.174788
C84   C     C_R   0.752558 0.242214 0.115498 0.171525
C85   C     C_R   0.252650 0.257514 0.115588 0.174748
C86   C     C_R   0.747442 0.742213 0.884503 0.171508
C87   C     C_R   0.747350 0.257514 0.884412 0.174748
C88   C     C_R   0.252558 0.742213 0.115497 0.171508
C89   C     C_R   0.742964 0.787267 0.131273 -0.153923
C90   C     C_R   0.257939 0.212465 0.869533 -0.152577
C91   C     C_R   0.257036 0.787267 0.868727 -0.153923
C92   C     C_R   0.742060 0.212465 0.130467 -0.152577
C93   C     C_R   0.242968 0.287265 0.131277 -0.153801
C94   C     C_R   0.757942 0.712464 0.869535 -0.152498
C95   C     C_R   0.757032 0.287265 0.868723 -0.153802
C96   C     C_R   0.242058 0.712464 0.130465 -0.152497
H57   H     H_    0.735474 0.806736 0.100975 0.140480
H58   H     H_    0.265897 0.193134 0.900269 0.142838
H59   H     H_    0.264526 0.806736 0.899024 0.140480
H60   H     H_    0.734103 0.193134 0.099731 0.142838
H61   H     H_    0.235480 0.306735 0.100982 0.140618
H62   H     H_    0.765900 0.693133 0.900272 0.142927
H63   H     H_    0.764520 0.306735 0.899018 0.140618
H64   H     H_    0.234100 0.693133 0.099728 0.142927
C97   C     C_R   0.742678 0.791931 0.186089 -0.138644
C98   C     C_R   0.258482 0.207629 0.814897 -0.139260
C99   C     C_R   0.257322 0.791931 0.813911 -0.138643
C100  C     C_R   0.741518 0.207629 0.185103 -0.139260
C101  C     C_R   0.242683 0.291928 0.186094 -0.138661
C102  C     C_R   0.758485 0.707628 0.814900 -0.139354
C103  C     C_R   0.757316 0.291928 0.813906 -0.138661
C104  C     C_R   0.241515 0.707628 0.185100 -0.139354
H65   H     H_    0.735149 0.814895 0.198055 0.150427
H66   H     H_    0.266658 0.184670 0.803501 0.149654
H67   H     H_    0.264851 0.814895 0.801944 0.150427
H68   H     H_    0.733342 0.184671 0.196498 0.149654
H69   H     H_    0.235157 0.314892 0.198063 0.150408
H70   H     H_    0.766662 0.684669 0.803505 0.149540
H71   H     H_    0.764843 0.314892 0.801937 0.150408
H72   H     H_    0.233338 0.684669 0.196494 0.149540
C105  C     C_R   0.752102 0.766964 0.225454 -0.113130
C106  C     C_R   0.248511 0.232421 0.774993 -0.114437
C107  C     C_R   0.247898 0.766964 0.774546 -0.113130
C108  C     C_R   0.751488 0.232421 0.225006 -0.114437
C109  C     C_R   0.252105 0.266960 0.225456 -0.113189
C110  C     C_R   0.748513 0.732419 0.774995 -0.114461
C111  C     C_R   0.747895 0.266960 0.774544 -0.113189
C112  C     C_R   0.251487 0.732419 0.225005 -0.114461
C113  C     C_R   0.305530 0.253061 0.056495 0.289652
C114  C     C_R   0.694491 0.746929 0.943510 0.288927
C115  C     C_R   0.694470 0.253061 0.943504 0.289652
C116  C     C_R   0.305509 0.746929 0.056490 0.288926
C117  C     C_R   0.805530 0.753062 0.056495 0.289658
C118  C     C_R   0.194490 0.246929 0.943510 0.288920
C119  C     C_R   0.194470 0.753062 0.943505 0.289658
C120  C     C_R   0.805509 0.246929 0.056490 0.288920
C121  C     C_R   0.303731 0.250347 0.999819 -0.216078
C122  C     C_R   0.696284 0.749637 0.000188 -0.217663
C123  C     C_R   0.696268 0.250347 0.000181 -0.216079
C124  C     C_R   0.303716 0.749637 0.999812 -0.217663
C125  C     C_R   0.803732 0.750347 0.999819 -0.216062
C126  C     C_R   0.196284 0.249637 0.000188 -0.217664
C127  C     C_R   0.196268 0.750347 0.000181 -0.216063
C128  C     C_R   0.803716 0.249637 0.999812 -0.217664
C129  C     C_R   0.248484 0.247426 0.943260 -0.173922
C130  C     C_R   0.751544 0.752501 0.056756 -0.175196
C131  C     C_R   0.751516 0.247426 0.056740 -0.173922
C132  C     C_R   0.248455 0.752501 0.943244 -0.175196
C133  C     C_R   0.748484 0.747425 0.943260 -0.173928
C134  C     C_R   0.251545 0.252500 0.056756 -0.175196
C135  C     C_R   0.251516 0.747425 0.056740 -0.173928
C136  C     C_R   0.748455 0.252500 0.943244 -0.175196
C137  C     C_R   0.536409 0.384660 0.055809 0.172625
C138  C     C_R   0.462647 0.615167 0.944532 0.166337
C139  C     C_R   0.463591 0.384660 0.944191 0.172626
C140  C     C_R   0.537353 0.615167 0.055468 0.166336
C141  C     C_R   0.036409 0.884660 0.055809 0.172603
C142  C     C_R   0.962647 0.115167 0.944532 0.166329
C143  C     C_R   0.963591 0.884660 0.944191 0.172603
C144  C     C_R   0.037353 0.115167 0.055468 0.166329
C145  C     C_R   0.500000 0.368188 0.000000 -0.071255
C146  C     C_R   0.500000 0.631689 0.000000 -0.089680
C147  C     C_R   0.000000 0.868188 0.000000 -0.071275
C148  C     C_R   0.000000 0.131689 0.000000 -0.089708
C149  C     C_R   0.892974 0.727432 0.730843 -0.156609
C150  C     C_R   0.107159 0.272657 0.269141 -0.155446
C151  C     C_R   0.107026 0.727432 0.269157 -0.156609
C152  C     C_R   0.892841 0.272657 0.730859 -0.155446
C153  C     C_R   0.392974 0.227432 0.730843 -0.156510
C154  C     C_R   0.607159 0.772657 0.269141 -0.155345
C155  C     C_R   0.607026 0.227432 0.269157 -0.156511
C156  C     C_R   0.392842 0.772657 0.730859 -0.155345
H73   H     H_    0.926034 0.709384 0.755013 0.169479
H74   H     H_    0.074053 0.290684 0.244951 0.171338
H75   H     H_    0.073966 0.709384 0.244987 0.169479
H76   H     H_    0.925947 0.290684 0.755049 0.171338
H77   H     H_    0.426034 0.209384 0.755013 0.169528
H78   H     H_    0.574052 0.790683 0.244951 0.171431
H79   H     H_    0.573966 0.209384 0.244987 0.169528
H80   H     H_    0.425948 0.790683 0.755049 0.171431
C157  C     C_R   0.860681 0.727449 0.666291 -0.170647
C158  C     C_R   0.139530 0.272692 0.333692 -0.169816
C159  C     C_R   0.139319 0.727449 0.333709 -0.170646
C160  C     C_R   0.860470 0.272692 0.666308 -0.169816
C161  C     C_R   0.360681 0.227450 0.666291 -0.170572
C162  C     C_R   0.639529 0.772691 0.333692 -0.169743
C163  C     C_R   0.639319 0.227450 0.333709 -0.170572
C164  C     C_R   0.360471 0.772691 0.666308 -0.169743
H81   H     H_    0.869185 0.709314 0.642017 0.138162
H82   H     H_    0.131030 0.290841 0.357943 0.138965
H83   H     H_    0.130815 0.709314 0.357983 0.138162
H84   H     H_    0.868970 0.290841 0.642057 0.138965
H85   H     H_    0.369184 0.209314 0.642017 0.138217
H86   H     H_    0.631029 0.790841 0.357943 0.139038
H87   H     H_    0.630815 0.209314 0.357983 0.138217
H88   H     H_    0.368971 0.790841 0.642057 0.139038
C165  C     C_R   0.817099 0.750326 0.633460 0.111344
C166  C     C_R   0.183168 0.249843 0.366552 0.110410
C167  C     C_R   0.182901 0.750326 0.366540 0.111344
C168  C     C_R   0.816832 0.249843 0.633448 0.110410
C169  C     C_R   0.317099 0.250326 0.633460 0.111322
C170  C     C_R   0.683168 0.749843 0.366552 0.110380
C171  C     C_R   0.682901 0.250326 0.366540 0.111322
C172  C     C_R   0.316832 0.749843 0.633448 0.110380
C173  C     C_R   0.806454 0.773242 0.666280 -0.182659
C174  C     C_R   0.193807 0.226908 0.333758 -0.183123
C175  C     C_R   0.193546 0.773242 0.333720 -0.182659
C176  C     C_R   0.806193 0.226908 0.666242 -0.183123
C177  C     C_R   0.306455 0.273243 0.666280 -0.182685
C178  C     C_R   0.693808 0.726909 0.333758 -0.183149
C179  C     C_R   0.693545 0.273243 0.333720 -0.182685
C180  C     C_R   0.306192 0.726909 0.666242 -0.183149
H89   H     H_    0.773630 0.791371 0.641994 0.136910
H90   H     H_    0.226677 0.208801 0.358066 0.136441
H91   H     H_    0.226370 0.791371 0.358006 0.136910
H92   H     H_    0.773322 0.208802 0.641934 0.136441
H93   H     H_    0.273631 0.291372 0.641994 0.136886
H94   H     H_    0.726679 0.708802 0.358066 0.136421
H95   H     H_    0.726369 0.291372 0.358006 0.136885
H96   H     H_    0.273321 0.708802 0.641934 0.136421
C181  C     C_R   0.838837 0.773266 0.730847 -0.204039
C182  C     C_R   0.161342 0.226831 0.269190 -0.195833
C183  C     C_R   0.161163 0.773266 0.269153 -0.204039
C184  C     C_R   0.838658 0.226831 0.730810 -0.195833
C185  C     C_R   0.338837 0.273266 0.730847 -0.204051
C186  C     C_R   0.661343 0.726832 0.269190 -0.195838
C187  C     C_R   0.661163 0.273266 0.269153 -0.204050
C188  C     C_R   0.338657 0.726832 0.730810 -0.195838
H97   H     H_    0.830061 0.791327 0.755049 0.159358
H98   H     H_    0.170112 0.208755 0.245011 0.156626
H99   H     H_    0.169938 0.791327 0.244951 0.159358
H100  H     H_    0.829888 0.208755 0.754989 0.156626
H101  H     H_    0.330062 0.291328 0.755049 0.159358
H102  H     H_    0.670114 0.708755 0.245011 0.156627
H103  H     H_    0.669938 0.291328 0.244951 0.159358
H104  H     H_    0.329886 0.708755 0.754989 0.156627
C189  C     C_R   0.882176 0.750277 0.763656 -0.004169
C190  C     C_R   0.117932 0.249787 0.236352 -0.005109
C191  C     C_R   0.117824 0.750277 0.236344 -0.004170
C192  C     C_R   0.882068 0.249787 0.763648 -0.005108
C193  C     C_R   0.382176 0.250278 0.763656 -0.004207
C194  C     C_R   0.617932 0.749787 0.236352 -0.005157
C195  C     C_R   0.617824 0.250278 0.236344 -0.004207
C196  C     C_R   0.382068 0.749787 0.763648 -0.005156
C197  C     C_R   0.720546 0.755991 0.532324 -0.177706
C198  C     C_R   0.279745 0.244214 0.467688 -0.177710
C199  C     C_R   0.279454 0.755991 0.467676 -0.177706
C200  C     C_R   0.720254 0.244214 0.532312 -0.177710
C201  C     C_R   0.220546 0.255991 0.532324 -0.177695
C202  C     C_R   0.779746 0.744214 0.467688 -0.177700
C203  C     C_R   0.779454 0.255991 0.467676 -0.177695
C204  C     C_R   0.220254 0.744214 0.532312 -0.177700
H105  H     H_    0.696768 0.760127 0.556640 0.134569
H106  H     H_    0.303520 0.240072 0.443370 0.134244
H107  H     H_    0.303232 0.760127 0.443360 0.134569
H108  H     H_    0.696480 0.240072 0.556630 0.134244
H109  H     H_    0.196769 0.260128 0.556640 0.134569
H110  H     H_    0.803520 0.740073 0.443370 0.134246
H111  H     H_    0.803231 0.260128 0.443360 0.134568
H112  H     H_    0.196480 0.740073 0.556630 0.134246
C205  C     C_R   0.688137 0.755831 0.467758 -0.166157
C206  C     C_R   0.312155 0.244373 0.532255 -0.166830
C207  C     C_R   0.311863 0.755831 0.532242 -0.166157
C208  C     C_R   0.687845 0.244373 0.467745 -0.166830
C209  C     C_R   0.188137 0.255832 0.467758 -0.166169
C210  C     C_R   0.812155 0.744373 0.532255 -0.166839
C211  C     C_R   0.811863 0.255832 0.532242 -0.166169
C212  C     C_R   0.187845 0.744373 0.467745 -0.166839
H113  H     H_    0.639977 0.759864 0.443504 0.141098
H114  H     H_    0.360313 0.240334 0.556512 0.140800
H115  H     H_    0.360023 0.759864 0.556496 0.141098
H116  H     H_    0.639687 0.240334 0.443488 0.140800
H117  H     H_    0.139977 0.259865 0.443504 0.141095
H118  H     H_    0.860313 0.740335 0.556512 0.140803
H119  H     H_    0.860023 0.259864 0.556496 0.141095
H120  H     H_    0.139686 0.740335 0.443488 0.140803
C213  C     C_R   0.717463 0.749942 0.434895 0.103325
C214  C     C_R   0.282826 0.250258 0.565117 0.102689
C215  C     C_R   0.282537 0.749942 0.565105 0.103325
C216  C     C_R   0.717174 0.250258 0.434883 0.102689
C217  C     C_R   0.217463 0.249942 0.434895 0.103315
C218  C     C_R   0.782825 0.750258 0.565117 0.102675
C219  C     C_R   0.782536 0.249942 0.565105 0.103315
C220  C     C_R   0.217174 0.750258 0.434883 0.102675
C221  C     C_R   0.536528 0.417040 0.055019 -0.241110
C222  C     C_R   0.463658 0.582785 0.944968 -0.231124
C223  C     C_R   0.463472 0.417040 0.944981 -0.241111
C224  C     C_R   0.536342 0.582785 0.055031 -0.231124
C225  C     C_R   0.036528 0.917040 0.055019 -0.241216
C226  C     C_R   0.963658 0.082784 0.944968 -0.231226
C227  C     C_R   0.963472 0.917040 0.944981 -0.241216
C228  C     C_R   0.036342 0.082784 0.055031 -0.231226
C229  C     C_R   0.500000 0.433323 0.000000 0.056181
C230  C     C_R   0.500000 0.566496 0.000000 0.050564
C231  C     C_R   0.000000 0.933323 0.000000 0.056133
C232  C     C_R   0.000000 0.066496 0.000000 0.050512
C233  C     C_R   0.445480 0.483788 0.967729 -0.174577
C234  C     C_R   0.554519 0.516045 0.032281 -0.174172
C235  C     C_R   0.554520 0.483788 0.032271 -0.174578
C236  C     C_R   0.445481 0.516045 0.967719 -0.174172
C237  C     C_R   0.945480 0.983788 0.967729 -0.174706
C238  C     C_R   0.054519 0.016045 0.032281 -0.174297
C239  C     C_R   0.054520 0.983788 0.032271 -0.174706
C240  C     C_R   0.945481 0.016045 0.967719 -0.174297
N1    N     N_2   0.572543 0.368882 0.113105 -0.291706
H121  H     H_    0.611625 0.380487 0.143684 0.222603
C241  C     C_3   0.539972 0.358532 0.142405 -0.708553
H122  H     H_    0.570689 0.345015 0.184664 0.235993
H123  H     H_    0.501676 0.343343 0.110782 0.241443
H124  H     H_    0.522656 0.378779 0.155866 0.234519
N2    N     N_2   0.426090 0.630969 0.887483 -0.290379
H125  H     H_    0.431764 0.622803 0.852297 0.227674
C242  C     C_3   0.363037 0.632696 0.868540 -0.711971
H126  H     H_    0.338822 0.647561 0.826730 0.227367
H127  H     H_    0.357664 0.643023 0.905850 0.260855
H128  H     H_    0.342469 0.609211 0.857249 0.218320
N3    N     N_2   0.427457 0.368882 0.886895 -0.291706
H129  H     H_    0.388375 0.380487 0.856316 0.222603
C243  C     C_3   0.460028 0.358532 0.857595 -0.708554
H130  H     H_    0.429311 0.345015 0.815336 0.235993
H131  H     H_    0.498324 0.343343 0.889218 0.241443
H132  H     H_    0.477344 0.378779 0.844134 0.234519
N4    N     N_2   0.573910 0.630969 0.112517 -0.290378
H133  H     H_    0.568236 0.622803 0.147703 0.227674
C244  C     C_3   0.636963 0.632696 0.131460 -0.711971
H134  H     H_    0.661178 0.647561 0.173270 0.227367
H135  H     H_    0.642336 0.643023 0.094150 0.260855
H136  H     H_    0.657531 0.609211 0.142751 0.218320
N5    N     N_2   0.072542 0.868882 0.113105 -0.291702
H137  H     H_    0.111625 0.880487 0.143684 0.222595
C245  C     C_3   0.039972 0.858532 0.142405 -0.708586
H138  H     H_    0.070689 0.845015 0.184664 0.236011
H139  H     H_    0.001675 0.843343 0.110782 0.241430
H140  H     H_    0.022656 0.878779 0.155866 0.234489
N6    N     N_2   0.926089 0.130969 0.887483 -0.290353
H141  H     H_    0.931763 0.122802 0.852297 0.227671
C246  C     C_3   0.863036 0.132696 0.868541 -0.712071
H142  H     H_    0.838821 0.147561 0.826731 0.227390
H143  H     H_    0.857663 0.143023 0.905851 0.260821
H144  H     H_    0.842468 0.109211 0.857250 0.218289
N7    N     N_2   0.927458 0.868882 0.886895 -0.291702
H145  H     H_    0.888375 0.880487 0.856316 0.222595
C247  C     C_3   0.960028 0.858532 0.857595 -0.708586
H146  H     H_    0.929311 0.845015 0.815336 0.236011
H147  H     H_    0.998324 0.843343 0.889218 0.241430
H148  H     H_    0.977344 0.878779 0.844134 0.234489
N8    N     N_2   0.073911 0.130969 0.112517 -0.290353
H149  H     H_    0.068237 0.122802 0.147703 0.227671
C248  C     C_3   0.136964 0.132696 0.131459 -0.712071
H150  H     H_    0.161179 0.147561 0.173269 0.227390
H151  H     H_    0.142337 0.143023 0.094149 0.260821
H152  H     H_    0.157532 0.109211 0.142750 0.218289
N9    N     N_R   0.361899 0.258043 0.113247 0.218800
O53   O     O_R   0.396483 0.281084 0.118020 -0.411027
O54   O     O_R   0.379657 0.239058 0.159592 -0.388469
N10   N     N_R   0.638124 0.741962 0.886759 0.218595
O55   O     O_R   0.620268 0.761030 0.840526 -0.389040
O56   O     O_R   0.603583 0.718890 0.881930 -0.403977
N11   N     N_R   0.638100 0.258043 0.886753 0.218800
O57   O     O_R   0.603517 0.281084 0.881980 -0.411027
O58   O     O_R   0.620343 0.239058 0.840408 -0.388469
N12   N     N_R   0.361876 0.741962 0.113241 0.218595
O59   O     O_R   0.379732 0.761030 0.159474 -0.389040
O60   O     O_R   0.396417 0.718890 0.118070 -0.403977
N13   N     N_R   0.861899 0.758045 0.113247 0.218797
O61   O     O_R   0.896482 0.781085 0.118018 -0.411082
O62   O     O_R   0.879657 0.739060 0.159593 -0.388423
N14   N     N_R   0.138124 0.241964 0.886759 0.218591
O63   O     O_R   0.120268 0.261032 0.840526 -0.389047
O64   O     O_R   0.103583 0.218891 0.881928 -0.404022
N15   N     N_R   0.138101 0.758045 0.886753 0.218797
O65   O     O_R   0.103518 0.781085 0.881982 -0.411082
O66   O     O_R   0.120343 0.739060 0.840407 -0.388423
N16   N     N_R   0.861876 0.241964 0.113241 0.218590
O67   O     O_R   0.879731 0.261032 0.159474 -0.389047
O68   O     O_R   0.896417 0.218891 0.118072 -0.404023
N17   N     N_R   0.606841 0.032903 0.084344 0.242570
O69   O     O_R   0.627743 0.054889 0.065209 -0.366837
O70   O     O_R   0.635299 0.025893 0.142966 -0.319846
N18   N     N_R   0.392003 0.967064 0.918759 0.242995
O71   O     O_R   0.391500 0.945051 0.883179 -0.366861
O72   O     O_R   0.342289 0.974118 0.917073 -0.320278
N19   N     N_R   0.393159 0.032903 0.915656 0.242570
O73   O     O_R   0.372257 0.054889 0.934791 -0.366837
O74   O     O_R   0.364701 0.025893 0.857034 -0.319846
N20   N     N_R   0.607997 0.967064 0.081241 0.242995
O75   O     O_R   0.608500 0.945051 0.116821 -0.366861
O76   O     O_R   0.657711 0.974118 0.082927 -0.320278
N21   N     N_R   0.107480 0.532920 0.082687 0.242668
O77   O     O_R   0.127637 0.554921 0.062802 -0.367002
O78   O     O_R   0.136993 0.525892 0.141310 -0.319657
N22   N     N_R   0.891454 0.467081 0.920479 0.242903
O79   O     O_R   0.890111 0.445080 0.884449 -0.366756
O80   O     O_R   0.842353 0.474108 0.920073 -0.320628
N23   N     N_R   0.892520 0.532920 0.917313 0.242668
O81   O     O_R   0.872363 0.554921 0.937198 -0.367002
O82   O     O_R   0.863007 0.525892 0.858690 -0.319657
N24   N     N_R   0.108546 0.467081 0.079521 0.242903
O83   O     O_R   0.109889 0.445080 0.115551 -0.366756
O84   O     O_R   0.157647 0.474108 0.079927 -0.320628

loop_
_geom_bond_atom_site_label_1
_geom_bond_atom_site_label_2
_geom_bond_distance
_ccdc_geom_bond_type
N6    H141  1.031675 S    
Zn8   O10   1.933268 S    
C34   C42   1.400352 A    
Zn6   O42   1.930243 S    
N15   O65   1.301297 A    
C33   C41   1.400393 A    
N10   O55   1.300684 A    
C102  C110  1.397770 A    
C199  C207  1.393621 A    
C242  H126  1.110491 S    
C223  C229  1.399287 A    
C248  H152  1.111563 S    
C115  N11   1.438683 S    
C188  C196  1.403833 A    
C127  C135  1.411247 A    
C4    C121  1.453412 S    
C69   C77   1.398321 A    
C67   H43   1.082214 S    
O5    C1    1.275543 A    
C17   C146  1.474095 S    
C80   C88   1.403874 A    
N19   O74   1.301193 A    
C79   H55   1.083078 S    
C73   H49   1.083078 S    
C19   C148  1.474095 S    
C210  C218  1.404046 A    
H39   C111  1.082350 S    
C86   C133  1.482710 S    
C77   H53   1.083078 S    
O46   C2    1.272548 A    
C41   C58   1.473120 S    
C159  H83   1.082994 S    
H37   C109  1.082349 S    
C165  C218  1.475141 S    
C49   N17   1.438056 S    
C90   H58   1.083114 S    
C44   C59   1.472994 S    
C74   C82   1.403877 A    
C244  H135  1.111164 S    
C199  C220  1.403698 A    
C80   H56   1.083046 S    
Zn16  O28   1.929609 S    
C153  C193  1.403643 A    
C98   C106  1.397770 A    
Zn4   O2    1.942111 S    
C82   C90   1.403412 A    
C144  N8    1.422688 S    
C67   C107  1.398126 A    
C171  C216  1.475143 S    
O30   C22   1.282875 A    
C94   C102  1.398431 A    
C161  C169  1.403623 A    
Zn4   O40   1.930242 S    
C169  C214  1.475143 S    
C176  H92   1.082955 S    
C32   C40   1.395394 A    
O11   C7    1.275547 A    
H29   C237  1.083082 S    
O15   C11   1.281168 A    
C158  H82   1.082996 S    
C51   C58   1.411441 A    
C16   C189  1.470005 S    
C117  C125  1.408350 A    
C93   C101  1.398417 A    
C71   C79   1.398321 A    
C88   C96   1.403415 A    
C186  C194  1.403833 A    
C203  C211  1.393621 A    
C181  H97   1.082964 S    
C204  C212  1.393660 A    
C208  C216  1.404045 A    
Zn12  O24   1.929609 S    
N21   O78   1.301188 A    
C92   H60   1.083115 S    
Zn13  O17   1.930754 S    
C183  C191  1.403794 A    
Zn10  O14   1.930752 S    
C63   C232  1.471329 S    
C70   C110  1.398082 A    
Zn16  O4    1.941446 S    
H25   C233  1.083082 S    
N16   O67   1.300687 A    
O43   C15   1.281303 A    
C37   C43   1.400372 A    
C53   C56   1.408534 A    
Zn11  O15   1.930751 S    
C103  H71   1.082266 S    
C54   C55   1.408534 A    
C157  C165  1.403628 A    
C247  H147  1.110581 S    
C115  C123  1.408350 A    
Zn7   O3    1.942110 S    
C116  C124  1.408445 A    
C237  C240  1.392122 A    
C227  C231  1.399284 A    
C97   H65   1.082267 S    
Zn8   O34   1.930379 S    
C89   C97   1.398416 A    
N18   O71   1.301174 A    
C66   C106  1.398079 A    
C28   H12   1.082972 S    
C138  C222  1.397738 A    
C242  H128  1.111559 S    
C113  C121  1.408350 A    
C68   H44   1.082210 S    
C52   C57   1.411377 A    
O34   C24   1.282834 A    
C99   C107  1.397797 A    
N22   O79   1.301181 A    
C204  H112  1.083037 S    
C208  H116  1.082989 S    
C152  C160  1.393293 A    
C209  H117  1.082988 S    
C115  C136  1.400571 A    
Zn10  O22   1.929608 S    
C149  H73   1.083017 S    
C120  C131  1.400611 A    
C85   C93   1.403311 A    
N9    O54   1.300706 A    
C175  H91   1.082952 S    
C64   C237  1.403294 A    
Zn10  O2    1.941443 S    
C177  C185  1.393634 A    
C197  C205  1.393621 A    
C76   H52   1.083042 S    
N12   O59   1.300684 A    
C114  N10   1.438527 S    
C243  H131  1.110581 S    
H5    C225  1.083694 S    
C70   H46   1.082207 S    
C204  C215  1.403713 A    
C221  C229  1.399284 A    
C245  H139  1.110581 S    
C203  H111  1.083037 S    
Zn5   O35   1.930379 S    
C51   N19   1.438056 S    
Zn6   O36   1.930379 S    
C149  C157  1.393301 A    
C182  H98   1.082991 S    
C119  N15   1.438685 S    
C32   C48   1.405644 A    
C166  C174  1.403948 A    
Zn3   O5    1.933268 S    
C50   C57   1.411379 A    
C139  C223  1.397620 A    
C170  C178  1.403948 A    
C66   H42   1.082210 S    
C179  H95   1.082953 S    
O51   C7    1.272524 A    
C165  C173  1.403936 A    
C241  H123  1.110581 S    
C246  H142  1.110489 S    
C179  C187  1.393634 A    
N6    C246  1.447122 S    
C25   C45   1.405690 A    
Zn9   O45   1.933704 S    
C29   H13   1.082963 S    
C178  C186  1.393664 A    
Zn11  O47   1.933706 S    
C113  C134  1.400571 A    
N8    C248  1.447122 S    
Zn12  O48   1.933705 S    
O40   C12   1.281277 A    
O33   C23   1.282829 A    
O16   C12   1.281135 A    
C20   C147  1.471018 S    
C54   N22   1.438061 S    
C40   H24   1.083251 S    
C118  C129  1.400611 A    
Zn1   O37   1.930242 S    
N20   O76   1.301238 A    
Zn5   O11   1.933268 S    
Zn3   O39   1.930243 S    
Zn6   O12   1.933268 S    
C241  H122  1.110603 S    
C164  C172  1.403631 A    
C207  H115  1.082986 S    
Zn3   O1    1.942110 S    
C142  C148  1.415338 A    
C120  C128  1.408445 A    
C49   C58   1.411439 A    
C225  C231  1.399282 A    
C121  C129  1.411249 A    
C160  C168  1.403627 A    
C83   C132  1.482494 S    
C226  C232  1.398822 A    
C97   C105  1.397797 A    
C178  H94   1.082954 S    
C3    C122  1.453601 S    
C155  C195  1.403643 A    
H31   C239  1.083082 S    
N17   O69   1.301212 A    
N23   O81   1.301183 A    
C198  C206  1.393660 A    
C128  C136  1.411299 A    
C104  C112  1.397769 A    
C173  H89   1.082955 S    
C212  C220  1.404046 A    
C18   C145  1.471018 S    
O44   C16   1.281277 A    
Zn14  O50   1.933707 S    
C150  C158  1.393293 A    
C95   C103  1.398417 A    
C199  H107  1.083037 S    
C87   C136  1.482497 S    
H34   C106  1.082374 S    
C28   C46   1.405604 A    
C209  C217  1.404042 A    
C166  C217  1.475157 S    
C117  N13   1.438685 S    
O38   C10   1.281277 A    
C64   C239  1.403292 A    
C116  N12   1.438527 S    
C137  C145  1.415744 A    
O36   C24   1.282833 A    
C39   C43   1.400371 A    
C100  C108  1.397769 A    
C198  H106  1.083037 S    
C50   N18   1.438125 S    
O28   C20   1.279485 A    
C5    C128  1.453601 S    
O17   C13   1.281165 A    
C78   C86   1.403873 A    
C158  C166  1.403627 A    
C6    C127  1.453411 S    
N16   O68   1.301256 A    
N11   O57   1.301302 A    
C162  C170  1.403631 A    
Zn15  O51   1.933706 S    
C30   C38   1.395394 A    
O21   C17   1.280592 A    
C170  C213  1.475157 S    
C75   C83   1.403930 A    
N13   O62   1.300709 A    
C176  C184  1.393664 A    
C125  C133  1.411247 A    
C102  H70   1.082269 S    
C233  C236  1.392122 A    
C137  N1    1.424824 S    
C188  H104  1.082993 S    
C141  C225  1.397620 A    
C234  C235  1.392122 A    
C180  C188  1.393664 A    
C157  H81   1.082994 S    
C153  H77   1.083018 S    
C118  C126  1.408445 A    
C27   C45   1.405689 A    
C155  H79   1.083018 S    
C246  H144  1.111563 S    
C118  N14   1.438527 S    
N23   O82   1.301188 A    
C81   C130  1.482494 S    
O24   C18   1.279485 A    
C138  N2    1.422690 S    
N10   O56   1.301254 A    
Zn14  O18   1.930752 S    
O37   C9    1.281300 A    
Zn1   O7    1.933268 S    
Zn13  O25   1.929613 S    
C22   C45   1.473577 S    
O52   C8    1.272551 A    
C87   C95   1.403310 A    
Zn1   O1    1.942111 S    
C61   C234  1.403173 A    
O31   C21   1.282791 A    
C62   C229  1.471687 S    
C183  H99   1.082964 S    
C174  C182  1.393664 A    
C53   C60   1.411370 A    
Zn15  O27   1.929613 S    
C54   C59   1.411380 A    
C180  H96   1.082954 S    
C187  C195  1.403793 A    
Zn16  O20   1.930754 S    
C72   C112  1.398082 A    
C15   C190  1.470100 S    
C1    C124  1.453601 S    
N7    C247  1.447056 S    
C94   H62   1.083114 S    
H4    C224  1.083724 S    
C140  N4    1.422690 S    
O9    C5    1.275545 A    
O39   C11   1.281301 A    
C140  C146  1.415336 A    
C141  N5    1.424824 S    
N24   O83   1.301181 A    
C65   H41   1.082214 S    
C205  H113  1.082986 S    
C114  C122  1.408445 A    
C244  H134  1.110491 S    
C137  C221  1.397620 A    
C50   C51   1.408539 A    
C202  H110  1.083037 S    
N3    C243  1.447058 S    
N2    C242  1.447121 S    
C33   H17   1.083258 S    
O6    C2    1.275399 A    
C163  C171  1.403623 A    
C93   H61   1.083110 S    
C35   H19   1.083258 S    
C206  C214  1.404045 A    
C150  H74   1.083017 S    
C31   C39   1.395390 A    
C201  C209  1.393621 A    
C171  C179  1.403940 A    
C101  C109  1.397795 A    
C156  C196  1.403655 A    
H27   C235  1.083082 S    
C63   C240  1.403175 A    
C70   C78   1.398413 A    
C184  H100  1.082991 S    
O41   C13   1.281303 A    
O26   C20   1.279484 A    
C139  C145  1.415746 A    
C88   C135  1.482710 S    
C71   H47   1.082212 S    
C238  C239  1.392122 A    
C24   C47   1.473426 S    
C25   H9    1.082955 S    
C78   H54   1.083044 S    
C143  N7    1.424824 S    
C69   H45   1.082212 S    
N14   O63   1.300684 A    
C96   H64   1.083114 S    
C27   H11   1.082955 S    
Zn7   O43   1.930243 S    
N5    C245  1.447056 S    
O23   C17   1.280590 A    
C72   H48   1.082207 S    
C89   H57   1.083112 S    
C73   C81   1.403930 A    
C163  H87   1.082994 S    
O27   C19   1.280590 A    
C164  H88   1.082993 S    
C153  C161  1.393301 A    
O20   C16   1.281135 A    
C211  H119  1.082988 S    
Zn4   O6    1.933268 S    
C55   C60   1.411372 A    
C81   C89   1.403312 A    
C245  H138  1.110603 S    
C124  C132  1.411300 A    
C52   N20   1.438125 S    
Zn10  O46   1.933707 S    
C120  N16   1.438527 S    
C123  C131  1.411249 A    
C114  C133  1.400610 A    
N18   O72   1.301238 A    
C242  H127  1.111164 S    
C61   C236  1.403175 A    
C40   C44   1.400381 A    
C143  C147  1.415746 A    
N4    H133  1.031675 S    
C150  C190  1.403652 A    
Zn14  O4    1.941443 S    
C144  C148  1.415336 A    
C56   N24   1.438061 S    
C68   C108  1.398079 A    
Zn2   O38   1.930243 S    
C185  H101  1.082960 S    
Zn13  O3    1.941444 S    
Zn1   O31   1.930379 S    
Zn4   O30   1.930379 S    
Zn2   O32   1.930379 S    
C203  C216  1.403698 A    
N1    H121  1.031883 S    
Zn3   O29   1.930379 S    
C62   C235  1.403293 A    
C201  C214  1.403698 A    
N8    H149  1.031675 S    
N9    O53   1.301302 A    
O7    C3    1.275545 A    
C122  C130  1.411300 A    
H38   C110  1.082376 S    
C31   C47   1.405653 A    
C200  C208  1.393660 A    
C9    C196  1.470100 S    
C69   C109  1.398128 A    
C83   C91   1.403312 A    
C149  C189  1.403641 A    
O12   C8    1.275397 A    
Zn8   O4    1.942111 S    
Zn9   O1    1.941444 S    
N12   O60   1.301254 A    
O42   C14   1.281277 A    
C66   C74   1.398412 A    
N22   O80   1.301189 A    
N11   O58   1.300706 A    
C14   C191  1.470005 S    
C151  C159  1.393301 A    
C26   H10   1.082972 S    
C248  H151  1.111165 S    
C90   C98   1.398431 A    
C74   H50   1.083046 S    
C65   C105  1.398125 A    
C63   C238  1.403173 A    
Zn11  O1    1.941440 S    
C43   C60   1.472973 S    
C138  C146  1.415338 A    
C39   H23   1.083248 S    
C197  C218  1.403698 A    
C222  C230  1.398822 A    
C37   H21   1.083248 S    
C36   H20   1.083251 S    
Zn5   O3    1.942111 S    
C172  C215  1.475157 S    
Zn6   O4    1.942110 S    
Zn7   O9    1.933268 S    
Zn5   O41   1.930242 S    
H30   C238  1.083124 S    
C25   C33   1.395383 A    
C32   H16   1.082962 S    
C142  N6    1.422688 S    
C182  C190  1.403834 A    
C172  C180  1.403948 A    
C168  C219  1.475157 S    
Zn8   O44   1.930242 S    
C202  C210  1.393660 A    
O25   C19   1.280592 A    
C126  C134  1.411299 A    
H35   C107  1.082349 S    
C72   C80   1.398411 A    
C142  C226  1.397738 A    
C154  H78   1.083016 S    
C119  C127  1.408350 A    
C247  H148  1.111533 S    
C197  H105  1.083037 S    
C186  H102  1.082993 S    
C82   C129  1.482708 S    
C181  C189  1.403794 A    
C95   H63   1.083109 S    
C200  C219  1.403713 A    
C140  C224  1.397738 A    
O19   C15   1.281165 A    
C28   C36   1.395405 A    
C7    C126  1.453601 S    
O50   C6    1.272550 A    
C141  C147  1.415744 A    
C64   C231  1.471691 S    
C23   C48   1.473417 S    
H28   C236  1.083124 S    
C152  C192  1.403652 A    
C62   C233  1.403294 A    
C21   C46   1.473266 S    
C169  C177  1.403940 A    
C103  C111  1.397797 A    
N4    C244  1.447121 S    
C30   C48   1.405644 A    
N19   O73   1.301212 A    
Zn13  O49   1.933704 S    
C35   C41   1.400392 A    
C30   H14   1.082962 S    
C91   C99   1.398417 A    
C12   C193  1.470005 S    
C228  C232  1.398820 A    
C75   H51   1.083079 S    
C67   C75   1.398319 A    
C68   C76   1.398412 A    
C143  C227  1.397620 A    
C29   C47   1.405654 A    
C144  C228  1.397738 A    
O49   C5    1.272524 A    
C99   H67   1.082268 S    
N21   O77   1.301183 A    
C243  H132  1.111533 S    
C160  H84   1.082996 S    
C92   C100  1.398431 A    
Zn15  O3    1.941440 S    
H1    C221  1.083694 S    
C184  C192  1.403834 A    
C151  C191  1.403641 A    
C155  C163  1.393301 A    
C156  C164  1.393293 A    
C245  H140  1.111533 S    
C116  C135  1.400610 A    
C207  C215  1.404044 A    
Zn16  O52   1.933705 S    
C154  C194  1.403654 A    
C151  H75   1.083017 S    
N13   O61   1.301297 A    
C36   C42   1.400352 A    
C26   C34   1.395405 A    
C175  C183  1.393634 A    
H26   C234  1.083124 S    
C244  H136  1.111559 S    
C10   C195  1.470005 S    
C53   N21   1.438064 S    
C84   C92   1.403413 A    
C8    C125  1.453411 S    
Zn12  O16   1.930754 S    
C76   C84   1.403877 A    
C161  H85   1.082994 S    
C174  H90   1.082955 S    
C13   C192  1.470100 S    
Zn15  O19   1.930751 S    
C187  H103  1.082961 S    
C61   C230  1.471329 S    
C241  H124  1.111533 S    
C246  H143  1.111164 S    
O8    C4    1.275397 A    
O35   C23   1.282830 A    
C2    C123  1.453412 S    
N1    C241  1.447058 S    
H3    C223  1.083694 S    
H33   C105  1.082349 S    
Zn7   O33   1.930379 S    
C49   C52   1.408539 A    
C139  N3    1.424824 S    
C162  H86   1.082993 S    
C248  H150  1.110489 S    
H40   C112  1.082376 S    
C224  C230  1.398820 A    
O18   C14   1.281135 A    
C79   C87   1.403927 A    
N20   O75   1.301174 A    
C113  N9    1.438683 S    
C210  H118  1.082989 S    
C77   C85   1.403927 A    
C247  H146  1.110603 S    
C154  C162  1.393293 A    
C156  H80   1.083015 S    
C84   C131  1.482708 S    
C38   C44   1.400381 A    
O22   C18   1.279484 A    
Zn9   O21   1.929613 S    
N7    H145  1.031885 S    
H8    C228  1.083724 S    
C29   C37   1.395390 A    
N15   O66   1.300709 A    
C11   C194  1.470100 S    
C159  C167  1.403628 A    
Zn11  O23   1.929613 S    
C31   H15   1.082963 S    
N24   O84   1.301189 A    
C101  H69   1.082265 S    
H36   C108  1.082374 S    
C85   C134  1.482497 S    
N17   O70   1.301193 A    
Zn2   O8    1.933268 S    
H6    C226  1.083724 S    
C98   H66   1.082269 S    
O14   C10   1.281135 A    
H7    C227  1.083694 S    
O45   C1    1.272525 A    
H32   C240  1.083124 S    
C200  H108  1.083037 S    
C167  C220  1.475141 S    
O13   C9    1.281168 A    
C96   C104  1.398432 A    
C56   C59   1.411378 A    
C27   C35   1.395383 A    
O47   C3    1.272524 A    
Zn2   O2    1.942110 S    
C91   H59   1.083111 S    
Zn9   O13   1.930754 S    
C168  C176  1.403948 A    
O32   C22   1.282874 A    
C205  C213  1.404044 A    
C86   C94   1.403415 A    
Zn14  O26   1.929608 S    
C55   N23   1.438064 S    
C104  H72   1.082269 S    
C173  C181  1.393634 A    
C243  H130  1.110603 S    
C212  H120  1.082989 S    
O29   C21   1.282790 A    
C26   C46   1.405604 A    
N3    H129  1.031883 S    
C211  C219  1.404042 A    
C65   C73   1.398320 A    
O10   C6    1.275399 A    
N14   O64   1.301256 A    
C167  C175  1.403936 A    
O48   C4    1.272549 A    
N5    H137  1.031884 S    
C152  H76   1.083017 S    
C177  H93   1.082952 S    
N2    H125  1.031675 S    
C42   C57   1.472861 S    
Zn12  O2    1.941446 S    
C100  H68   1.082269 S    
H2    C222  1.083724 S    
C202  C213  1.403713 A    
C117  C130  1.400573 A    
C34   H18   1.083251 S    
C198  C217  1.403713 A    
C71   C111  1.398128 A    
C201  H109  1.083037 S    
C38   H22   1.083251 S    
C119  C132  1.400573 A    
C185  C193  1.403793 A    
C206  H114  1.082989 S    
