data_mof_unit_9332.cif
_audit_creation_date              2012-12-11T14:25:44-0500
_audit_creation_method            fapswitch 2.2
_symmetry_space_group_name_H-M    P1
_symmetry_Int_Tables_number       1
_space_group_crystal_system       triclinic
_cell_length_a                    6.981719
_cell_length_b                    14.975844
_cell_length_c                    16.045523
_cell_angle_alpha                 90.250772
_cell_angle_beta                  89.98829
_cell_angle_gamma                 89.546346
_cell_volume                      1677.60520438

loop_
_atom_site_label
_atom_site_type_symbol
_atom_type_description
_atom_site_fract_x
_atom_site_fract_y
_atom_site_fract_z
_atom_type_partial_charge
O1    O     O_R   0.494490 0.416160 0.413410 -0.541986
O2    O     O_R   0.823830 0.407240 0.585990 -0.542519
O3    O     O_R   0.994160 0.583840 0.586590 -0.554127
C1    C     C_R   0.656314 0.385932 0.613905 0.689770
O4    O     O_R   0.824200 0.405280 0.414020 -0.538049
O5    O     O_R   0.994530 0.581860 0.413390 -0.502687
C2    C     C_R   0.655209 0.383326 0.385688 0.774136
O6    O     O_R   0.494110 0.418140 0.586610 -0.539131
O7    O     O_3   0.660810 0.557940 0.500000 -0.361618
V1    V     V_3+5 0.935650 0.489250 0.500000 1.446286
O8    O     O_R   0.324250 0.592760 0.414010 -0.539739
C3    C     C_R   0.154790 0.613118 0.384673 0.806478
O9    O     O_R   0.323880 0.594720 0.585980 -0.521732
C4    C     C_R   0.154085 0.623268 0.608653 0.656019
V2    V     V_3+5 0.435660 0.510750 0.500000 1.464919
O10   O     O_3   0.160630 0.442060 0.500000 -0.380295
C5    C     C_3   0.020965 0.661985 0.748806 -0.400308
H1    H     H_    0.871836 0.666620 0.726868 0.175842
H2    H     H_    0.048164 0.590394 0.763491 0.187811
C6    C     C_3   0.044966 0.720046 0.828860 -0.409446
H3    H     H_    0.136965 0.684994 0.875029 0.209774
H4    H     H_    0.903124 0.729236 0.858807 0.210111
H5    H     H_    0.902438 0.775533 0.629362 0.103625
H6    H     H_    0.860567 0.844926 0.749738 0.174799
C7    C     C_3   0.047266 0.790259 0.652613 0.216139
C8    C     C_3   0.359303 0.710737 0.714925 0.764527
C9    C     C_3   0.150033 0.697235 0.676241 -0.142004
C10   C     C_3   0.133882 0.811589 0.806120 -0.083264
C11   C     C_3   0.014302 0.847542 0.732446 -0.355451
C12   C     C_3   0.350723 0.796120 0.773961 0.618685
H7    H     H_    0.047444 0.919099 0.720936 0.171248
C13   C     C_2   0.988799 0.696282 0.268016 0.317461
C14   C     C_2   0.148258 0.675169 0.312574 -0.449063
H8    H     H_    0.285869 0.699683 0.291596 0.156479
C15   C     C_2   0.995766 0.750486 0.190024 0.407485
C16   C     C_2   0.121882 0.817434 0.178991 -0.434693
H9    H     H_    0.234555 0.828982 0.224236 0.110690
C17   C     C_2   0.764764 0.228925 0.798277 -0.216969
C18   C     C_2   0.602898 0.187299 0.821154 0.278927
H10   H     H_    0.900346 0.208560 0.825448 0.118781
C19   C     C_2   0.766115 0.306431 0.740208 -0.101835
C20   C     C_2   0.650107 0.311908 0.673504 -0.238302
H11   H     H_    0.870581 0.358500 0.750964 0.112648
H12   H     H_    0.556807 0.257469 0.658574 0.152279
C21   C     C_2   0.777056 0.207703 0.212081 -0.127499
C22   C     C_2   0.613275 0.179603 0.175724 -0.305808
H13   H     H_    0.912472 0.179697 0.190730 0.135192
H14   H     H_    0.476179 0.206761 0.195265 0.129099
C23   C     C_2   0.789812 0.276033 0.280427 -0.129247
C24   C     C_2   0.638366 0.315243 0.318373 -0.306581
H15   H     H_    0.933118 0.294106 0.300285 0.134091
H16   H     H_    0.494084 0.297915 0.299981 0.128755
O11   O     O_R   0.770850 0.076180 0.907410 -0.557770
O12   O     O_R   0.440600 0.088970 0.079950 -0.547524
O13   O     O_R   0.270430 0.912340 0.080550 -0.535175
C25   C     C_R   0.608941 0.111052 0.108306 0.738517
O14   O     O_R   0.441120 0.087010 0.907980 -0.546308
O15   O     O_R   0.270950 0.910370 0.907350 -0.526004
C26   C     C_R   0.607855 0.111718 0.882141 0.587881
O16   O     O_R   0.770320 0.078150 0.080620 -0.543160
O17   O     O_3   0.604200 0.936340 0.994000 -0.333173
V3    V     V_3+5 0.329300 0.004970 0.993950 1.452728
O18   O     O_R   0.941240 0.899420 0.907920 -0.535397
C27   C     C_R   0.113015 0.877491 0.879228 0.712965
O19   O     O_R   0.940720 0.901380 0.079890 -0.509278
C28   C     C_R   0.110155 0.879879 0.107909 0.808606
V4    V     V_3+5 0.829310 0.983370 0.993880 1.481477
O20   O     O_3   0.104280 0.052120 0.993920 -0.390084
O21   O     O_3   0.406246 0.868371 0.722197 -0.569956
C29   C     C_3   0.502048 0.941294 0.757673 0.157866
H17   H     H_    0.605954 0.924241 0.807046 0.180441
H18   H     H_    0.393755 0.988267 0.782530 0.112975
C30   C     C_3   0.613608 0.986601 0.687996 -0.835912
H19   H     H_    0.514088 0.010535 0.638801 0.232246
H20   H     H_    0.697479 0.043336 0.712909 0.171531
H21   H     H_    0.713777 0.938829 0.657925 0.224018
O22   O     O_3   0.151454 0.844667 0.597092 -0.555458
C31   C     C_3   0.051523 0.862380 0.522749 0.045582
H22   H     H_    0.916787 0.899608 0.536593 0.137530
H23   H     H_    0.023207 0.799019 0.488687 0.119848
C32   C     C_3   0.174266 0.920574 0.466991 -0.717606
H24   H     H_    0.308810 0.884814 0.450110 0.210618
H25   H     H_    0.094760 0.936621 0.408948 0.183899
H26   H     H_    0.210183 0.983737 0.499787 0.225269
Cl1   Cl    Cl    0.759065 0.655204 0.293552 -0.651110
O23   O     O_3   0.857114 0.735028 0.130030 -0.513929
C33   C     C_3   0.914678 0.659971 0.082328 0.126066
H27   H     H_    0.948502 0.601157 0.122265 0.131175
H28   H     H_    0.042528 0.676524 0.043977 0.096245
C34   C     C_3   0.752843 0.633745 0.024196 -0.644341
H29   H     H_    0.713030 0.691536 0.985032 0.267040
H30   H     H_    0.799303 0.577609 0.983286 0.159851
H31   H     H_    0.625969 0.612974 0.060883 0.233254
O24   O     O_3   0.428529 0.228268 0.800948 -0.539021
C35   C     C_3   0.307988 0.169934 0.755711 0.090796
H32   H     H_    0.212038 0.134376 0.799408 0.137278
H33   H     H_    0.389007 0.121290 0.717739 0.104982
C36   C     C_3   0.184519 0.222641 0.694555 -0.725297
H34   H     H_    0.256350 0.229907 0.633384 0.190157
H35   H     H_    0.049457 0.186273 0.682405 0.185872
H36   H     H_    0.154005 0.290209 0.719752 0.241776
O25   O     O_3   0.519786 0.715889 0.656070 -0.579763
C37   C     C_3   0.489648 0.763616 0.579737 0.126441
H37   H     H_    0.494517 0.836401 0.589745 0.217447
H38   H     H_    0.356894 0.744657 0.548225 0.148651
C38   C     C_3   0.639286 0.744301 0.512690 -0.714821
H39   H     H_    0.574767 0.708395 0.459196 0.254621
H40   H     H_    0.689683 0.807677 0.485491 0.144179
H41   H     H_    0.760793 0.704550 0.536007 0.240241
O26   O     O_3   0.381191 0.634015 0.767902 -0.570732
C39   C     C_3   0.550954 0.583318 0.764482 0.126226
H42   H     H_    0.659042 0.615893 0.804130 0.168225
H43   H     H_    0.602464 0.570698 0.699952 0.159963
C40   C     C_3   0.511885 0.493980 0.805346 -0.720109
H44   H     H_    0.417074 0.453038 0.765139 0.232234
H45   H     H_    0.648937 0.458262 0.816152 0.178277
H46   H     H_    0.441355 0.504415 0.866753 0.238595
Cl2   Cl    Cl    0.514161 0.774918 0.860040 -0.751360

loop_
_geom_bond_atom_site_label_1
_geom_bond_atom_site_label_2
_ccdc_geom_bond_type
O15   V3    S    
C33   H27   S    
C30   H20   S    
C19   C20   D    
C39   H42   S    
C1    O6    A    
C32   H26   S    
C40   H44   S    
O11   C26   A    
C35   C36   S    
O14   V3    S    
O22   C31   S    
C8    C9    S    
C38   H40   S    
C7    O22   S    
C16   H9    S    
O5    C3    A    
C17   C18   D    
C15   O23   S    
C31   H23   S    
O14   C26   A    
C38   H39   S    
V2    O10   S    
O13   V3    S    
C5    C6    S    
C30   H19   S    
C23   C24   D    
O26   C39   S    
H6    C11   S    
O8    V2    S    
C35   H32   S    
O16   V4    S    
O19   V4    S    
C24   H16   S    
C29   H17   S    
O1    V2    S    
C4    C9    S    
C39   C40   S    
O7    V1    S    
C8    O26   S    
O17   V3    S    
O9    C4    A    
O15   C27   A    
C19   H11   S    
O21   C29   S    
C20   H12   S    
C32   H25   S    
C5    H1    S    
C22   H14   S    
C21   H13   S    
C7    C11   S    
O18   V4    S    
V4    O20   S    
C5    C9    S    
C13   C15   S    
C17   C19   S    
C37   H38   S    
O4    C2    A    
O23   C33   S    
C12   Cl2   S    
C23   H15   S    
C21   C22   D    
O12   V3    S    
C32   H24   S    
C25   O16   A    
C15   C16   D    
O2    C1    A    
C18   O24   S    
O17   V4    S    
C34   H30   S    
C21   C23   S    
C18   C26   S    
C29   C30   S    
C14   H8    S    
O24   C35   S    
C39   H43   S    
O3    C4    A    
C10   C27   S    
C6    H4    S    
C8    C12   S    
O6    V2    S    
C36   H35   S    
O9    V2    S    
C30   H21   S    
O19   C28   A    
O2    V1    S    
C12   O21   S    
C34   H31   S    
C10   C11   S    
O1    C2    A    
C2    C24   S    
O5    V1    S    
C40   H45   S    
O8    C3    A    
C35   H33   S    
O12   C25   A    
C7    C9    S    
C36   H36   S    
C6    C10   S    
V3    O20   S    
C13   C14   D    
C33   H28   S    
O7    V2    S    
O4    V1    S    
C11   H7    S    
O3    V1    S    
V1    O10   S    
C8    O25   S    
C17   H10   S    
C31   H22   S    
C31   C32   S    
C34   H29   S    
C1    C20   S    
C13   Cl1   S    
C10   C12   S    
C5    H2    S    
C37   C38   S    
C16   C28   S    
H5    C7    S    
O25   C37   S    
O11   V4    S    
C40   H46   S    
O18   C27   A    
C6    H3    S    
C36   H34   S    
C33   C34   S    
C22   C25   S    
C37   H37   S    
C29   H18   S    
C3    C14   S    
O13   C28   A    
C38   H41   S    
