data_mof_unit_48211.cif
_audit_creation_date              2012-12-10T16:48:41-0500
_audit_creation_method            fapswitch 2.2
_symmetry_space_group_name_H-M    P1
_symmetry_Int_Tables_number       1
_space_group_crystal_system       triclinic
_cell_length_a                    7.901969
_cell_length_b                    8.554669
_cell_length_c                    10.75207
_cell_angle_alpha                 89.192011
_cell_angle_beta                  99.57032
_cell_angle_gamma                 93.26216
_cell_volume                      715.541217625

loop_
_atom_site_label
_atom_site_type_symbol
_atom_type_description
_atom_site_fract_x
_atom_site_fract_y
_atom_site_fract_z
_atom_type_partial_charge
C1    C     C_R   0.544061 0.794048 0.496948 0.948467
C2    C     C_R   0.455939 0.205952 0.503052 0.948467
C3    C     C_R   0.573135 0.488921 0.735539 0.902386
C4    C     C_R   0.426865 0.511079 0.264461 0.902386
C5    C     C_2   0.622664 0.480845 0.871446 0.006291
C6    C     C_2   0.377336 0.519155 0.128554 0.006290
C7    C     C_2   0.499453 0.453420 0.941827 0.209249
C8    C     C_2   0.500547 0.546580 0.058173 0.209249
C9    C     C_2   0.566980 0.957790 0.495162 -0.385261
C10   C     C_2   0.433020 0.042210 0.504837 -0.385261
H1    H     H_    0.693802 0.008289 0.485882 0.173034
H2    H     H_    0.306198 0.991711 0.514118 0.173034
N1    N     N_2   0.940600 0.458860 0.467170 -0.000775
N2    N     N_2   0.059400 0.541140 0.532830 -0.000775
O1    O     O_R   0.391630 0.738350 0.508060 -0.610448
O2    O     O_R   0.608370 0.261650 0.491940 -0.610448
O3    O     O_R   0.674540 0.711990 0.487010 -0.641164
O4    O     O_R   0.325460 0.288010 0.512990 -0.641164
O5    O     O_R   0.411370 0.508250 0.688780 -0.610303
O6    O     O_R   0.588630 0.491750 0.311220 -0.610302
O7    O     O_R   0.694270 0.481880 0.667740 -0.619317
O8    O     O_R   0.305730 0.518120 0.332260 -0.619317
Zn1   Zn    Zn3+2 0.311100 0.517600 0.514050 0.928804
Zn2   Zn    Zn3+2 0.688900 0.482400 0.485950 0.928804
C11   C     C_3   0.630816 0.683167 0.095282 -0.897591
H3    H     H_    0.649169 0.754102 0.010850 0.237052
H4    H     H_    0.584903 0.763890 0.161104 0.225985
H5    H     H_    0.755455 0.641670 0.143289 0.256577
C12   C     C_3   0.369184 0.316833 0.904717 -0.897591
H6    H     H_    0.350831 0.245898 0.989150 0.237052
H7    H     H_    0.244545 0.358330 0.856711 0.256576
H8    H     H_    0.415097 0.236110 0.838896 0.225985
C13   C     C_3   0.189756 0.506571 0.072472 -0.972836
H9    H     H_    0.117775 0.584282 0.124189 0.262975
H10   H     H_    0.168957 0.547920 0.973181 0.265513
H11   H     H_    0.137670 0.384133 0.079737 0.250182
C14   C     C_3   0.810244 0.493428 0.927528 -0.972836
H12   H     H_    0.882225 0.415718 0.875811 0.262975
H13   H     H_    0.862330 0.615867 0.920263 0.250182
H14   H     H_    0.831043 0.452080 0.026819 0.265513
C15   C     C_3   0.980542 0.312500 0.417728 -0.507767
H15   H     H_    0.862622 0.260356 0.359167 0.176768
H16   H     H_    0.076113 0.329995 0.354088 0.215564
H17   H     H_    0.019266 0.229125 0.495918 0.186614
C16   C     C_3   0.019458 0.687500 0.582272 -0.507767
H18   H     H_    0.137378 0.739644 0.640832 0.176768
H19   H     H_    0.980734 0.770875 0.504082 0.186614
H20   H     H_    0.923887 0.670005 0.645912 0.215564

loop_
_geom_bond_atom_site_label_1
_geom_bond_atom_site_label_2
_ccdc_geom_bond_type
N2    Zn1   S    
O5    Zn1   S    
C3    O5    A    
C14   H12   S    
C1    O1    A    
C5    C14   S    
C11   H4    S    
C2    O2    A    
C15   H15   S    
C1    O3    A    
C6    C13   S    
C12   H7    S    
N1    C15   S    
C13   H9    S    
C1    C9    S    
C7    C8    S    
O2    Zn2   S    
N1    N2    D    
C11   H5    S    
C8    C11   S    
C15   H16   S    
C12   H6    S    
C10   H2    S    
C7    C12   S    
O1    Zn1   S    
C13   H10   S    
C12   H8    S    
C9    H1    S    
C15   H17   S    
C3    O7    A    
O3    Zn2   S    
C2    O4    A    
O7    Zn2   S    
O4    Zn1   S    
C2    C10   S    
C13   H11   S    
C4    O8    A    
C14   H13   S    
C4    C6    S    
C9    C10   D    
C16   H19   S    
C5    C7    D    
C14   H14   S    
O8    Zn1   S    
C6    C8    D    
C16   H20   S    
N2    C16   S    
C11   H3    S    
C16   H18   S    
O6    Zn2   S    
N1    Zn2   S    
C3    C5    S    
C4    O6    A    
