data_mof_unit_13552.cif
_audit_creation_date              2013-03-05T15:46:44-0500
_audit_creation_method            fapswitch 2.2
_symmetry_space_group_name_H-M    P1
_symmetry_Int_Tables_number       1
_space_group_crystal_system       triclinic
_cell_length_a                    10.199208
_cell_length_b                    10.79873
_cell_length_c                    12.492755
_cell_angle_alpha                 90.633413
_cell_angle_beta                  110.132004
_cell_angle_gamma                 96.081612
_cell_volume                      1282.9309823

loop_
_atom_site_label
_atom_site_type_symbol
_atom_site_description
_atom_site_fract_x
_atom_site_fract_y
_atom_site_fract_z
_atom_type_partial_charge
O1    O     O_R   0.936910 0.692950 0.509080 -0.637911
O2    O     O_R   0.138320 0.658600 0.480130 -0.570197
C1    C     C_R   0.054106 0.733096 0.495850 0.808278
O3    O     O_R   0.002900 0.525670 0.675280 -0.611381
O4    O     O_R   0.204310 0.491320 0.646330 -0.616206
C2    C     C_R   0.139043 0.529020 0.711060 0.862171
Zn1   Zn    Zn3+2 0.865520 0.522940 0.519330 0.995990
Zn2   Zn    Zn3+2 0.134480 0.477060 0.480670 1.000019
O5    O     O_R   0.861680 0.341400 0.519870 -0.554103
O6    O     O_R   0.063090 0.307050 0.490920 -0.602321
O7    O     O_R   0.795690 0.508680 0.353670 -0.587315
O8    O     O_R   0.997100 0.474330 0.324720 -0.603242
C3    C     C_R   0.950354 0.268003 0.511234 0.965751
C4    C     C_R   0.864544 0.488851 0.286484 0.907564
C5    C     C_R   0.781419 0.491719 0.968280 0.084020
H1    H     H_    0.954370 0.438493 0.109829 0.180208
H2    H     H_    0.635885 0.573414 0.762329 0.156117
C6    C     C_R   0.791191 0.496964 0.164761 -0.085894
C7    C     C_R   0.155534 0.605878 0.904283 -0.242454
C8    C     C_R   0.232819 0.630298 0.020348 0.157509
C9    C     C_R   0.376244 0.617219 0.060609 -0.151312
C10   C     C_R   0.446127 0.590238 0.984044 0.052695
C11   C     C_R   0.371240 0.590295 0.866548 0.089917
C12   C     C_R   0.585743 0.558712 0.018636 0.045531
C13   C     C_R   0.651057 0.540872 0.936608 0.163219
C14   C     C_R   0.584138 0.572931 0.824739 -0.234581
C15   C     C_R   0.447263 0.601886 0.791425 -0.174949
C16   C     C_R   0.657763 0.535657 0.131238 -0.214098
C17   C     C_R   0.852338 0.472466 0.083610 -0.225116
C18   C     C_R   0.222928 0.577274 0.828073 -0.145481
H3    H     H_    0.610407 0.546481 0.194786 0.196569
H4    H     H_    0.043391 0.609834 0.873407 0.182587
H5    H     H_    0.430160 0.632708 0.151330 0.151834
H6    H     H_    0.400912 0.633022 0.706497 0.176445
H7    H     H_    0.141719 0.116047 0.563097 0.224302
H8    H     H_    0.922002 0.896121 0.559191 0.185236
C19   C     C_2   0.091733 0.867432 0.503100 0.143341
C20   C     C_2   0.012081 0.937603 0.538976 -0.281761
H9    H     H_    0.821485 0.092614 0.514827 0.194234
C21   C     C_2   0.926871 0.136596 0.526868 -0.345705
C22   C     C_2   0.035945 0.071175 0.548123 -0.093780
H10   H     H_    0.430334 0.607013 0.539913 0.162030
N1    N     N_2   0.313640 0.446500 0.454900 -0.169611
C23   C     C_2   0.430766 0.519314 0.497479 -0.207167
H11   H     H_    0.681468 0.632289 0.590206 0.128946
N2    N     N_2   0.686360 0.553430 0.545150 -0.247903
C24   C     C_2   0.567682 0.486003 0.491043 0.329475
H12   H     H_    0.317146 0.362575 0.416700 0.243487
N3    N     N_R   0.208023 0.920418 0.471143 0.214343
O9    O     O_R   0.322352 0.866386 0.497418 -0.388790
O10   O     O_R   0.193252 0.012558 0.403279 -0.363601
N4    N     N_R   0.566738 0.377132 0.424338 0.238402
O11   O     O_R   0.512474 0.377213 0.313641 -0.412029
O12   O     O_R   0.580787 0.270958 0.472812 -0.374426
N5    N     N_3   0.838101 0.457303 0.883036 -0.472867
H13   H     H_    0.767826 0.385713 0.830137 0.207299
H14   H     H_    0.932251 0.418960 0.920986 0.196044
N6    N     N_3   0.166263 0.662082 0.099518 -0.434985
H15   H     H_    0.059597 0.668631 0.056323 0.192111
H16   H     H_    0.211133 0.751267 0.135290 0.213510

loop_
_geom_bond_atom_site_label_1
_geom_bond_atom_site_label_2
_geom_bond_distance
_ccdc_geom_bond_type
Zn1   N2    2.020474 S    
O4    Zn2   1.941413 S    
N1    C23   1.297144 D    
C23   C24   1.506313 S    
C24   N4    1.430784 S    
C11   C15   1.407333 A    
C19   N3    1.442470 S    
N1    H12   1.029290 S    
C4    C6    1.453783 S    
C7    C8    1.397867 A    
Zn2   N1    2.020374 S    
Zn2   O8    1.967398 S    
N4    O12   1.300863 A    
N5    H13   1.045635 S    
H8    C20   1.087900 S    
O2    C1    1.297113 A    
C13   C14   1.393920 A    
C6    C17   1.396771 A    
O1    Zn1   1.924367 S    
H11   N2    1.030649 S    
C12   C13   1.422577 A    
Zn1   O7    1.941413 S    
C7    C18   1.401179 A    
C14   C15   1.383929 A    
C19   C20   1.344849 D    
H10   C23   1.081353 S    
O3    Zn1   1.967398 S    
H2    C14   1.081318 S    
Zn2   O6    1.924369 S    
C21   C22   1.332115 D    
C2    C18   1.472474 S    
O8    C4    1.297148 A    
C5    C17   1.401209 A    
N5    H14   1.045706 S    
C15   H6    1.076345 S    
O4    C2    1.297486 A    
H7    C22   1.087169 S    
O7    C4    1.295047 A    
C10   C12   1.418703 A    
C5    C13   1.413566 A    
C9    H5    1.078040 S    
C7    H4    1.079743 S    
C8    N6    1.435561 S    
C11   C18   1.411352 A    
C16   H3    1.072875 S    
C6    C16   1.390667 A    
C8    C9    1.397021 A    
C1    C19   1.454342 S    
C20   C22   1.433752 S    
O3    C2    1.300360 A    
N3    O9    1.301086 A    
H9    C21   1.087404 S    
Zn1   O5    1.956774 S    
O5    C3    1.294197 A    
N2    C24   1.300522 D    
C3    C21   1.440651 S    
N3    O10   1.301535 A    
H1    C17   1.083391 S    
C9    C10   1.419478 A    
N6    H15   1.045358 S    
N6    H16   1.045462 S    
C10   C11   1.402261 A    
O2    Zn2   1.956771 S    
C12   C16   1.384044 A    
N4    O11   1.300776 A    
O1    C1    1.292976 A    
O6    C3    1.290269 A    
C5    N5    1.437696 S    
