data_mof_unit_49254.cif
_audit_creation_date              2012-12-11T19:44:50-0500
_audit_creation_method            fapswitch 2.2
_symmetry_space_group_name_H-M    P1
_symmetry_Int_Tables_number       1
_space_group_crystal_system       triclinic
_cell_length_a                    8.387762
_cell_length_b                    15.026933
_cell_length_c                    19.130167
_cell_angle_alpha                 103.050172
_cell_angle_beta                  92.281103
_cell_angle_gamma                 98.750905
_cell_volume                      2314.69630948

loop_
_atom_site_label
_atom_site_type_symbol
_atom_type_description
_atom_site_fract_x
_atom_site_fract_y
_atom_site_fract_z
_atom_type_partial_charge
Ba1   Ba    Ba6+2 0.853900 0.540470 0.466700 1.657344
Ba2   Ba    Ba6+2 0.335940 0.459610 0.533310 1.685776
C1    C     C_3   0.729208 0.885346 0.324664 -0.150356
C2    C     C_R   0.028356 0.526109 0.723438 0.099582
C3    C     C_R   0.860754 0.414190 0.802418 -0.172734
C4    C     C_3   0.166299 0.746030 0.282727 0.440966
C5    C     C_R   0.790565 0.421863 0.737015 -0.034948
C6    C     C_R   0.331521 0.573120 0.190123 -0.149526
C7    C     C_R   0.401326 0.568292 0.256574 -0.012318
C8    C     C_R   0.127829 0.443276 0.195249 -0.141801
C9    C     C_R   0.167662 0.460776 0.270507 0.013709
C10   C     C_R   0.991755 0.480613 0.839879 0.002028
C11   C     C_R   0.882595 0.470107 0.694546 -0.233580
C12   C     C_3   0.677817 0.787900 0.336236 0.368619
C13   C     C_R   0.200990 0.504589 0.153298 0.029094
C14   C     C_R   0.309412 0.521034 0.299511 -0.229693
C15   C     C_R   0.762645 0.439216 0.950005 -0.109508
C16   C     C_3   0.147928 0.776762 0.212445 0.232751
C17   C     C_R   0.656552 0.396965 0.990903 -0.072585
C18   C     C_R   0.703411 0.401364 0.061653 0.074538
C19   C     C_R   0.856773 0.448857 0.090005 -0.034644
C20   C     C_R   0.980038 0.469993 0.044997 0.034158
C21   C     C_R   0.930080 0.464774 0.970841 0.045989
C22   C     C_R   0.146561 0.497600 0.072803 0.007794
C23   C     C_3   0.590074 0.274366 0.306228 0.334639
C24   C     C_R   0.260515 0.518407 0.021836 0.034482
C25   C     C_R   0.209691 0.509245 0.947235 0.020291
C26   C     C_R   0.043930 0.485607 0.920258 -0.006605
C27   C     C_R   0.429035 0.545639 0.041581 -0.076656
C28   C     C_3   0.236805 0.782067 0.682830 0.339274
C29   C     C_R   0.534549 0.580014 0.996337 -0.058732
C30   C     C_R   0.487024 0.563691 0.924232 -0.084022
C31   C     C_R   0.331055 0.519928 0.899621 -0.089627
C32   C     C_R   0.853546 0.173280 0.547140 -0.010115
C33   C     C_R   0.784862 0.080056 0.543154 -0.023712
C34   C     C_3   0.630519 0.210269 0.237491 -0.331519
C35   C     C_R   0.646153 0.891604 0.530616 -0.055409
C36   C     C_R   0.794475 0.930682 0.570301 -0.016328
C37   C     C_R   0.864664 0.022084 0.574970 -0.061169
C38   C     C_R   0.580121 0.796471 0.520361 0.024088
C39   C     C_R   0.428677 0.762698 0.482177 -0.289563
C40   C     C_3   0.277008 0.866084 0.747707 -0.331274
C41   C     C_R   0.612525 0.194015 0.481427 0.025995
C42   C     C_R   0.544880 0.100935 0.474974 -0.005257
C43   C     C_R   0.629978 0.043863 0.506593 0.072837
C44   C     C_R   0.394280 0.063314 0.437367 -0.032690
C45   C     C_3   0.058108 0.257309 0.720316 0.430480
C46   C     C_R   0.324368 0.973019 0.433315 -0.086502
C47   C     C_R   0.406217 0.914572 0.463494 -0.027768
C48   C     C_R   0.561014 0.949782 0.500091 0.029536
C49   C     C_R   0.338488 0.821498 0.456729 -0.000014
C50   C     C_R   0.764680 0.229305 0.517649 -0.217649
C51   C     C_3   0.105069 0.238930 0.307631 0.660261
C52   C     C_3   0.115626 0.202573 0.227076 -0.351778
C53   C     C_3   0.736167 0.672800 0.687129 0.315738
C54   C     C_3   0.756907 0.699857 0.771290 -0.067969
C55   C     C_3   0.890484 0.783344 0.802032 -0.324097
C56   C     C_3   0.090400 0.227947 0.790163 0.247956
C57   C     C_3   0.600682 0.718418 0.806595 -0.396198
C58   C     C_3   0.510954 0.352881 0.289392 -0.319322
C59   C     C_3   0.604854 0.910917 0.275419 -0.388155
C60   C     C_3   0.504807 0.113519 0.811149 -0.331639
C61   C     C_3   0.587875 0.358229 0.106920 -0.404868
C62   C     C_3   0.389828 0.758219 0.653532 -0.238644
C63   C     C_3   0.137869 0.809466 0.625795 -0.266798
C64   C     C_3   0.548672 0.221289 0.721626 0.757335
C65   C     C_3   0.595265 0.202102 0.795486 -0.236582
C66   C     C_R   0.069008 0.541281 0.798592 -0.152799
Cl1   Cl    Cl    0.058489 0.141872 0.346468 -0.739856
Cl2   Cl    Cl    0.011586 0.108255 0.780709 -0.724197
Cl3   Cl    Cl    0.437497 0.122325 0.658836 -0.679498
Cl4   Cl    Cl    0.958082 0.724512 0.164357 -0.668563
H1    H     H_    0.758459 0.779054 0.380601 0.081983
H2    H     H_    0.631887 0.615524 0.670255 0.055312
H3    H     H_    0.848092 0.889941 0.300922 0.189472
H4    H     H_    0.791113 0.639296 0.788973 0.059905
H5    H     H_    0.551952 0.780710 0.352170 -0.070681
H6    H     H_    0.743992 0.936340 0.377372 0.070731
H7    H     H_    0.704604 0.302687 0.339325 0.115507
H8    H     H_    0.679110 0.151012 0.251109 0.135144
H9    H     H_    0.521004 0.182810 0.199694 0.103695
H10   H     H_    0.724669 0.247731 0.210681 0.082277
H11   H     H_    0.245028 0.756036 0.177655 0.005336
H12   H     H_    0.337163 0.846943 0.793556 0.100758
H13   H     H_    0.112399 0.331394 0.727748 -0.022104
H14   H     H_    0.925620 0.248245 0.708730 -0.113667
H15   H     H_    0.032262 0.269594 0.834359 -0.019623
H16   H     H_    0.222196 0.240022 0.805258 0.085735
H17   H     H_    0.660926 0.236723 0.694824 -0.115026
H18   H     H_    0.726218 0.198299 0.799343 0.122135
H19   H     H_    0.121724 0.670445 0.273196 0.062818
H20   H     H_    0.575431 0.260980 0.839366 0.077919
H21   H     H_    0.163411 0.598473 0.823359 0.071506
H22   H     H_    0.806428 0.359293 0.825344 0.040964
H23   H     H_    0.356902 0.923800 0.733054 0.114571
H24   H     H_    0.385328 0.628669 0.167020 0.079307
H25   H     H_    0.037372 0.383879 0.171111 0.039497
H26   H     H_    0.834683 0.469953 0.641158 0.059394
H27   H     H_    0.352481 0.528035 0.354860 0.061383
H28   H     H_    0.707456 0.453177 0.903174 0.078805
H29   H     H_    0.532931 0.368931 0.969546 0.079506
H30   H     H_    0.297041 0.760731 0.300546 -0.228787
H31   H     H_    0.875158 0.469409 0.147260 0.132745
H32   H     H_    0.487587 0.536762 0.089626 0.089402
H33   H     H_    0.659972 0.606895 0.015032 0.125973
H34   H     H_    0.166291 0.892819 0.766387 0.140908
H35   H     H_    0.575471 0.576902 0.886741 0.094735
H36   H     H_    0.307032 0.492899 0.842983 0.125928
H37   H     H_    0.859022 0.891452 0.598140 0.106819
H38   H     H_    0.981425 0.046356 0.604374 0.151533
H39   H     H_    0.206479 0.950123 0.404842 0.126545
H40   H     H_    0.326908 0.102846 0.410633 0.170589
H41   H     H_    0.376704 0.690527 0.475252 0.072244
H42   H     H_    0.817765 0.300316 0.519914 0.059392
H43   H     H_    0.158767 0.853359 0.223610 0.072216
H44   H     H_    0.007937 0.760134 0.807721 0.136694
H45   H     H_    0.221522 0.279848 0.333446 0.024966
H46   H     H_    0.869154 0.819429 0.857465 0.120493
H47   H     H_    0.896871 0.834807 0.768419 0.166498
H48   H     H_    0.499468 0.660809 0.785325 0.147835
H49   H     H_    0.618170 0.725128 0.865497 0.117162
H50   H     H_    0.570247 0.785114 0.799345 0.129558
H51   H     H_    0.411856 0.326355 0.246322 0.035092
H52   H     H_    0.462024 0.390108 0.338400 0.083617
H53   H     H_    0.599685 0.403547 0.272197 0.127344
H54   H     H_    0.647327 0.981566 0.267920 0.141953
H55   H     H_    0.588429 0.861297 0.221968 0.166350
H56   H     H_    0.998475 0.160330 0.201967 0.135850
H57   H     H_    0.486787 0.910455 0.299693 0.107346
H58   H     H_    0.544883 0.052665 0.776301 0.168575
H59   H     H_    0.534236 0.112496 0.868046 0.117362
H60   H     H_    0.372113 0.109363 0.802452 0.197554
H61   H     H_    0.649241 0.362107 0.159700 0.116509
H62   H     H_    0.480898 0.393490 0.114657 0.114802
H63   H     H_    0.546871 0.283945 0.080672 0.114141
H64   H     H_    0.467629 0.821746 0.646479 0.057940
H65   H     H_    0.448939 0.727860 0.691672 0.123232
H66   H     H_    0.362854 0.705288 0.602215 0.049245
H67   H     H_    0.211989 0.159011 0.217899 0.122853
H68   H     H_    0.124592 0.753889 0.575876 0.128266
H69   H     H_    0.019954 0.820121 0.646828 0.137970
H70   H     H_    0.197856 0.874683 0.613186 0.089851
H71   H     H_    0.145077 0.260518 0.200526 0.023569
H72   H     H_    0.844749 0.646437 0.666216 0.008969
O1    O     O_2   0.873950 0.434950 0.324050 -0.479711
O2    O     O_2   0.180204 0.179737 0.530274 -0.407126
O3    O     O_3   0.128363 0.202813 0.664512 -0.519808
O4    O     O_3   0.122400 0.443310 0.412980 -0.467950
O5    O     O_3   0.579970 0.613770 0.540070 -0.493098
O6    O     O_2   0.337870 0.272490 0.457870 -0.411477
O7    O     O_3   0.483907 0.222728 0.342159 -0.645831
O8    O     O_2   0.491381 0.476114 0.755546 -0.519783
O9    O     O_3   0.456475 0.293946 0.731961 -0.591365
O10   O     O_3   0.662890 0.605900 0.373340 -0.486337
O11   O     O_2   0.723749 0.548226 0.239833 -0.472006
O12   O     O_3   0.714322 0.748951 0.658192 -0.649920
O13   O     O_3   0.977305 0.288938 0.319680 -0.637750
O14   O     O_3   0.691839 0.721985 0.272870 -0.533216
O15   O     O_2   0.851830 0.727540 0.542170 -0.470499
O16   O     O_3   0.085020 0.656200 0.410840 -0.476205
O17   O     O_2   0.008877 0.820189 0.467659 -0.497662
O18   O     O_3   0.077395 0.794960 0.334272 -0.604854
O19   O     O_2   0.315750 0.565080 0.676000 -0.486343
O20   O     O_3   0.067310 0.556770 0.587020 -0.485928
O21   O     O_3   0.526830 0.394180 0.626670 -0.440941
O22   O     O_3   0.147475 0.709462 0.707441 -0.653570
O23   O     O_3   0.609740 0.386310 0.459940 -0.492556
O24   O     O_3   0.104690 0.343880 0.589170 -0.482015
P1    P     P_3+3 0.041310 0.408750 0.334260 0.960955
P2    P     P_3+3 0.676060 0.715830 0.563200 0.952870
P3    P     P_3+3 0.129081 0.774350 0.418089 0.947347
P4    P     P_3+3 0.148400 0.591330 0.665750 0.963875
P5    P     P_3+3 0.064324 0.224494 0.582769 1.060685
P6    P     P_3+3 0.617811 0.611609 0.284947 0.986728
P7    P     P_3+3 0.515931 0.268951 0.435244 0.960850
P8    P     P_3+3 0.569492 0.394581 0.715566 0.940252

loop_
_geom_bond_atom_site_label_1
_geom_bond_atom_site_label_2
_ccdc_geom_bond_type
Ba2   O6    S    
C53   C54   S    
C62   H64   S    
C57   H49   S    
C57   H48   S    
C54   H4    S    
O15   P2    D    
C28   C62   S    
C8    H25   S    
C60   H58   S    
Ba1   O1    S    
C17   C18   A    
C6    H24   S    
C51   Cl1   S    
C56   H15   S    
C38   P2    S    
C3    H22   S    
C62   H66   S    
C51   C52   S    
C25   C31   A    
O21   P8    S    
O22   P4    S    
C10   C66   A    
O9    P8    S    
C24   C25   A    
C15   C21   A    
C60   C65   S    
C10   C26   S    
C61   H61   S    
O23   P7    S    
C58   H53   S    
C7    C14   A    
C22   C24   A    
C32   C33   A    
C35   C38   A    
C44   H40   S    
C8    C13   A    
C36   C37   A    
C51   H45   S    
C41   C50   A    
Ba1   O23   S    
Ba2   O4    S    
C4    H19   S    
C63   H68   S    
O2    P5    D    
Ba1   P2    S    
C2    C11   A    
C54   C55   S    
Ba1   Ba2   S    
C9    C14   A    
C12   H5    S    
Ba1   P1    S    
C11   H26   S    
C58   H52   S    
O13   P1    S    
C53   H2    S    
C41   P7    S    
O14   P6    S    
C37   H38   S    
O18   P3    S    
C4    O18   S    
Ba1   O20   S    
C34   H10   S    
C6    C7    A    
C47   C49   A    
C30   H35   S    
Ba1   O5    S    
C59   H54   S    
C23   C58   S    
C64   H17   S    
C1    H3    S    
C59   H57   S    
C55   H47   S    
O6    P7    D    
C57   H50   S    
C64   C65   S    
C19   C20   A    
C29   H33   S    
O24   P5    S    
C31   H36   S    
C42   C44   A    
C16   H11   S    
C55   H44   S    
C45   O3    S    
C62   H65   S    
C1    C59   S    
C16   Cl4   S    
C53   O12   S    
C4    C16   S    
O1    P1    D    
O7    P7    S    
O10   P6    S    
C40   H23   S    
C45   H14   S    
C60   H60   S    
Ba1   O15   S    
C40   H12   S    
C28   O22   S    
C3    C10   A    
C34   H8    S    
Ba2   O20   S    
C3    C5    A    
C56   Cl2   S    
C52   H56   S    
C65   H18   S    
O5    P2    S    
C27   H32   S    
C19   H31   S    
C16   H43   S    
C58   H51   S    
C33   C37   A    
C41   C42   A    
C61   H62   S    
C64   Cl3   S    
C35   C36   A    
C63   H69   S    
C12   H1    S    
Ba2   O24   S    
C52   H67   S    
C34   H9    S    
C5    P8    S    
C46   H39   S    
O4    P1    S    
C7    P6    S    
C59   H55   S    
C21   C26   A    
C36   H37   S    
O19   P4    D    
C40   H34   S    
Ba2   O21   S    
C1    C12   S    
O11   P6    D    
C13   C22   S    
C12   O14   S    
C9    P1    S    
C6    C13   A    
C20   C22   A    
O20   P4    S    
C33   C43   A    
C45   H13   S    
C42   C43   A    
C2    C66   A    
C46   C47   A    
C63   H70   S    
C53   H72   S    
C2    P4    S    
C23   H7    S    
C51   O13   S    
C60   H59   S    
C29   C30   A    
C39   H41   S    
C56   H16   S    
Ba2   O19   S    
C64   O9    S    
O3    P5    S    
C14   H27   S    
C50   H42   S    
C32   C50   A    
C66   H21   S    
C54   C57   S    
C23   O7    S    
C30   C31   A    
C18   C61   S    
C49   P3    S    
C27   C29   A    
C32   P5    S    
C45   C56   S    
C35   C48   A    
C17   H29   S    
Ba1   O16   S    
C43   C48   A    
Ba2   O5    S    
O12   P2    S    
C65   H20   S    
C15   C17   A    
O16   P3    S    
C52   H71   S    
C4    H30   S    
Ba1   O10   S    
C15   H28   S    
C28   C63   S    
C8    C9    A    
C23   C34   S    
O8    P8    D    
C44   C46   A    
C5    C11   A    
O17   P3    D    
C18   C19   A    
C24   C27   A    
C47   C48   A    
Ba2   P4    S    
C25   C26   A    
C20   C21   A    
C28   C40   S    
Ba1   O4    S    
C38   C39   A    
C1    H6    S    
Ba2   O23   S    
C39   C49   A    
C61   H63   S    
C55   H46   S    
