data_mof_unit_66565.cif
_audit_creation_date              2012-12-11T17:05:37-0500
_audit_creation_method            fapswitch 2.2
_symmetry_space_group_name_H-M    P1
_symmetry_Int_Tables_number       1
_space_group_crystal_system       triclinic
_cell_length_a                    7.046476
_cell_length_b                    14.601277
_cell_length_c                    15.917277
_cell_angle_alpha                 90.391279
_cell_angle_beta                  91.189747
_cell_angle_gamma                 89.528263
_cell_volume                      1637.24473448

loop_
_atom_site_label
_atom_site_type_symbol
_atom_type_description
_atom_site_fract_x
_atom_site_fract_y
_atom_site_fract_z
_atom_type_partial_charge
O1    O     O_R   0.494380 0.415640 0.412830 -0.532070
O2    O     O_R   0.823960 0.405540 0.586560 -0.517428
O3    O     O_R   0.994270 0.584360 0.587170 -0.541906
C1    C     C_R   0.658763 0.384739 0.616156 0.734154
O4    O     O_R   0.824090 0.404620 0.413450 -0.547899
O5    O     O_R   0.994400 0.583430 0.412820 -0.548303
C2    C     C_R   0.654576 0.380830 0.386218 0.736233
O6    O     O_R   0.494250 0.416570 0.587180 -0.548430
O7    O     O_3   0.660800 0.558670 0.500000 -0.374960
V1    V     V_3+5 0.935650 0.489120 0.500000 1.404227
O8    O     O_R   0.324110 0.594460 0.413440 -0.517921
C3    C     C_R   0.153828 0.616884 0.385218 0.703189
O9    O     O_R   0.323980 0.595380 0.586550 -0.548865
C4    C     C_R   0.155784 0.617379 0.615134 0.685166
V2    V     V_3+5 0.435660 0.510880 0.500000 1.416389
O10   O     O_3   0.160640 0.441330 0.500000 -0.376850
C5    C     C_3   0.005290 0.654787 0.753399 -0.373256
H1    H     H_    0.863112 0.641009 0.724588 0.113214
H2    H     H_    0.062001 0.588865 0.777838 0.137674
C6    C     C_3   0.981566 0.727416 0.825381 0.323663
H3    H     H_    0.836956 0.757588 0.822025 0.075534
H4    H     H_    0.932837 0.770625 0.621055 0.146215
C7    C     C_3   0.073297 0.781319 0.651736 -0.418117
C8    C     C_3   0.340453 0.700935 0.730103 -0.362353
C9    C     C_3   0.144644 0.687527 0.685749 0.043859
H5    H     H_    0.442567 0.729072 0.684853 0.145022
H6    H     H_    0.397133 0.633527 0.751473 0.153727
C10   C     C_3   0.120255 0.808725 0.811572 -0.019903
C11   C     C_3   0.076061 0.855028 0.724595 0.295703
C12   C     C_3   0.323977 0.766585 0.806359 -0.420135
H7    H     H_    0.357245 0.729018 0.865224 0.198512
H8    H     H_    0.432184 0.821079 0.800901 0.143361
H9    H     H_    0.167950 0.804192 0.600948 0.111259
H10   H     H_    0.202146 0.897937 0.711835 0.085888
C13   C     C_R   0.271486 0.820742 0.246157 -0.065435
C14   C     C_R   0.116990 0.823271 0.189012 -0.117593
C15   C     C_R   0.963075 0.764896 0.205109 -0.080008
H11   H     H_    0.839306 0.765099 0.163941 0.134639
C16   C     C_R   0.972740 0.700379 0.270508 -0.222466
H12   H     H_    0.856590 0.653962 0.278366 0.180052
C17   C     C_R   0.139073 0.688811 0.319482 -0.075015
C18   C     C_R   0.286589 0.749899 0.304984 -0.033140
C19   C     C_3   0.490300 0.731561 0.285654 0.266167
C20   C     C_3   0.480757 0.816621 0.228822 0.236666
H13   H     H_    0.583494 0.740056 0.342271 0.094143
H14   H     H_    0.508163 0.806089 0.161319 0.093997
C21   C     C_R   0.512055 0.330572 0.747161 -0.019514
C22   C     C_R   0.661358 0.326115 0.692436 -0.232346
C23   C     C_R   0.816351 0.269591 0.718965 0.318724
C24   C     C_R   0.803244 0.219322 0.795745 0.386072
C25   C     C_R   0.624739 0.195979 0.824754 -0.250463
C26   C     C_R   0.490201 0.264113 0.808133 -0.048052
C27   C     C_3   0.286116 0.265959 0.796187 -0.242873
C28   C     C_3   0.307496 0.338248 0.729403 -0.304210
H15   H     H_    0.231791 0.296930 0.853876 0.183879
H16   H     H_    0.236039 0.198673 0.771786 0.222601
H17   H     H_    0.248965 0.406469 0.747242 0.146109
H18   H     H_    0.273984 0.314927 0.664487 0.218653
C29   C     C_R   0.529587 0.323417 0.246972 0.113029
C30   C     C_R   0.645839 0.310983 0.318079 -0.211137
C31   C     C_R   0.765601 0.232917 0.318769 -0.291094
H19   H     H_    0.856367 0.220165 0.373252 0.142556
C32   C     C_R   0.755201 0.166200 0.253024 0.442939
C33   C     C_R   0.627783 0.179540 0.183850 -0.181239
C34   C     C_R   0.525552 0.261444 0.180722 -0.054769
C35   C     C_3   0.320932 0.278614 0.162459 -0.456822
C36   C     C_3   0.323356 0.344621 0.237144 0.327916
H20   H     H_    0.232011 0.217902 0.172229 0.134173
H21   H     H_    0.299504 0.311954 0.100373 0.174003
H22   H     H_    0.241068 0.322181 0.292437 0.043934
O11   O     O_R   0.771490 0.080820 0.910070 -0.498828
O12   O     O_R   0.441590 0.092730 0.083780 -0.551612
O13   O     O_R   0.271350 0.913900 0.084390 -0.546592
C37   C     C_R   0.611415 0.112210 0.114241 0.766795
O14   O     O_R   0.441780 0.091820 0.910670 -0.542139
O15   O     O_R   0.271540 0.912980 0.910040 -0.554670
C38   C     C_R   0.609173 0.117831 0.885260 0.731361
O16   O     O_R   0.771300 0.081740 0.084420 -0.537645
O17   O     O_3   0.604960 0.938700 0.997240 -0.382794
V3    V     V_3+5 0.330090 0.008230 0.997220 1.421518
O18   O     O_R   0.941820 0.901930 0.910640 -0.525358
C39   C     C_R   0.110323 0.879098 0.882612 0.766053
O19   O     O_R   0.941630 0.902840 0.083750 -0.529114
C40   C     C_R   0.110955 0.884181 0.114645 0.699380
V4    V     V_3+5 0.830090 0.986410 0.997190 1.497750
O20   O     O_3   0.105080 0.055990 0.997200 -0.369807
O21   O     O_3   0.517283 0.643352 0.247691 -0.550520
C41   C     C_3   0.456960 0.636395 0.162465 -0.265273
H23   H     H_    0.313884 0.666054 0.150428 0.139785
H24   H     H_    0.564036 0.666028 0.120618 0.114709
H25   H     H_    0.446946 0.563522 0.144865 0.218077
O22   O     O_3   0.594891 0.890417 0.260046 -0.535885
C42   C     C_3   0.523813 0.935467 0.332042 -0.157644
H26   H     H_    0.480685 0.887376 0.381722 0.082779
H27   H     H_    0.404835 0.981828 0.314001 0.117920
H28   H     H_    0.637933 0.978154 0.360313 0.187728
O23   O     O_3   0.967150 0.255977 0.666733 -0.574290
C43   C     C_3   0.942734 0.171812 0.623636 0.055038
H29   H     H_    0.802527 0.170111 0.589724 0.102152
H30   H     H_    0.952692 0.113552 0.668440 0.158161
C44   C     C_3   0.099146 0.160588 0.559153 -0.294026
H31   H     H_    0.094395 0.219638 0.515387 0.198162
H32   H     H_    0.239844 0.159720 0.592082 0.179850
C45   C     C_3   0.076095 0.071954 0.508617 -0.852113
H33   H     H_    0.082722 0.011830 0.551047 0.240756
H34   H     H_    0.192232 0.065700 0.462754 0.220891
H35   H     H_    0.938170 0.072172 0.473489 0.239715
O24   O     O_3   0.957659 0.206555 0.848958 -0.547613
C46   C     C_3   0.936223 0.262980 0.921972 -0.212115
H36   H     H_    0.810156 0.246273 0.959407 0.117922
H37   H     H_    0.929757 0.336810 0.904913 0.098330
H38   H     H_    0.060506 0.252178 0.964846 0.141398
O25   O     O_3   0.834076 0.080220 0.265493 -0.545908
C47   C     C_3   0.032453 0.083732 0.258934 -0.226775
H39   H     H_    0.071402 0.088365 0.191946 0.147357
H40   H     H_    0.091793 0.018336 0.283024 0.156759
H41   H     H_    0.097714 0.139941 0.296948 0.103963
O26   O     O_3   0.014172 0.690180 0.907170 -0.585878
C48   C     C_3   0.895518 0.615143 0.927396 0.073510
H42   H     H_    0.919584 0.601272 0.995234 0.143076
H43   H     H_    0.940492 0.551466 0.894818 0.112747
C49   C     C_3   0.681727 0.632575 0.913164 -0.361730
H44   H     H_    0.637976 0.694588 0.948967 0.193959
H45   H     H_    0.650985 0.642697 0.845500 0.180284
C50   C     C_3   0.563437 0.550996 0.939390 -0.852881
H46   H     H_    0.608185 0.488030 0.905273 0.234256
H47   H     H_    0.411190 0.564602 0.924383 0.241008
H48   H     H_    0.578974 0.539921 0.007674 0.230818
O27   O     O_3   0.297477 0.436006 0.211780 -0.568458
C51   C     C_3   0.106825 0.463688 0.220428 0.104122
H49   H     H_    0.103402 0.538773 0.212071 0.151026
H50   H     H_    0.053874 0.449921 0.284480 0.119494
C52   C     C_3   0.976585 0.421064 0.152825 -0.386215
H51   H     H_    0.043626 0.425190 0.090372 0.197273
H52   H     H_    0.950711 0.348047 0.167709 0.193553
C53   C     C_3   0.787661 0.471513 0.148745 -0.799506
H53   H     H_    0.726352 0.477145 0.212234 0.265964
H54   H     H_    0.687804 0.433782 0.106566 0.235297
H55   H     H_    0.808571 0.541563 0.124332 0.220372
O28   O     O_3   0.924294 0.920432 0.728990 -0.558756
C54   C     C_3   0.750400 0.893134 0.691931 -0.269686
H56   H     H_    0.711216 0.822563 0.709011 0.115657
H57   H     H_    0.754110 0.901300 0.622653 0.142340
H58   H     H_    0.637006 0.939342 0.715192 0.146101

loop_
_geom_bond_atom_site_label_1
_geom_bond_atom_site_label_2
_ccdc_geom_bond_type
C35   H20   S    
O21   C41   S    
C42   H26   S    
C17   C18   A    
C51   H50   S    
C13   C14   A    
C8    H6    S    
O17   V4    S    
C1    O6    A    
C45   H34   S    
C47   H39   S    
C16   C17   A    
V4    O20   S    
C44   H31   S    
C7    C11   S    
C14   C15   A    
C8    H5    S    
O25   C47   S    
C46   H37   S    
O5    C3    A    
C12   H7    S    
C27   H16   S    
C35   H21   S    
V2    O10   S    
O23   C43   S    
C5    C6    S    
O24   C46   S    
C31   C32   A    
C13   C18   A    
O26   C48   S    
V3    O20   S    
C29   C36   S    
O11   V4    S    
O8    V2    S    
O19   C40   A    
C7    H9    S    
C52   C53   S    
O1    V2    S    
O14   V3    S    
O13   C40   A    
C20   O22   S    
C27   H15   S    
C35   C36   S    
C29   C30   A    
C42   H27   S    
O9    C4    A    
C24   O24   S    
C36   O27   S    
C53   H55   S    
O7    V1    S    
C6    O26   S    
C45   H33   S    
O12   V3    S    
C20   H14   S    
O18   C39   A    
C48   H43   S    
C10   C39   S    
C25   C26   A    
C8    C9    S    
O12   C37   A    
C54   H58   S    
O15   C39   A    
C16   H12   S    
O4    C2    A    
C6    C10   S    
C24   C25   A    
C27   C28   S    
C11   H10   S    
O17   V3    S    
C30   C31   A    
O2    C1    A    
C19   C20   S    
C25   C38   S    
C15   H11   S    
C50   H48   S    
O14   C38   A    
C21   C22   A    
C41   H25   S    
C48   H42   S    
C6    H3    S    
C5    H1    S    
O28   C54   S    
C50   H47   S    
C13   C20   S    
C19   H13   S    
O3    C4    A    
C21   C28   S    
O16   V4    S    
C53   H54   S    
C22   C23   A    
O19   V4    S    
C41   H24   S    
C34   C35   S    
C42   H28   S    
C43   H30   S    
O9    V2    S    
C50   H46   S    
C23   C24   A    
C46   H38   S    
C51   C52   S    
C18   C19   S    
C49   H45   S    
O2    V1    S    
C2    C30   S    
O11   C38   A    
C26   C27   S    
C3    C17   S    
C1    C22   S    
O27   C51   S    
C28   H18   S    
C48   C49   S    
C11   O28   S    
C10   C11   S    
O1    C2    A    
O15   V3    S    
C53   H53   S    
O5    V1    S    
C47   H40   S    
O8    C3    A    
C21   C26   A    
O6    V2    S    
C43   C44   S    
C36   H22   S    
C19   O21   S    
C33   C34   A    
C49   C50   S    
C54   H57   S    
C51   H49   S    
O7    V2    S    
C5    C9    S    
O4    V1    S    
C15   C16   A    
O3    V1    S    
V1    O10   S    
C46   H36   S    
C29   C34   A    
C12   H8    S    
C52   H51   S    
C14   C40   S    
C10   C12   S    
O22   C42   S    
C5    H2    S    
O13   V3    S    
C7    C9    S    
C4    C9    S    
C31   H19   S    
C8    C12   S    
C47   H41   S    
C23   O23   S    
C32   C33   A    
C32   O25   S    
C41   H23   S    
C44   H32   S    
C43   H29   S    
C37   O16   A    
C52   H52   S    
C33   C37   S    
H4    C7    S    
C44   C45   S    
C49   H44   S    
C54   H56   S    
C45   H35   S    
O18   V4    S    
C28   H17   S    
