data_mof_unit_20451.cif
_audit_creation_date              2013-03-05T15:44:35-0500
_audit_creation_method            fapswitch 2.2
_symmetry_space_group_name_H-M    P1
_symmetry_Int_Tables_number       1
_space_group_crystal_system       triclinic
_cell_length_a                    27.789138
_cell_length_b                    10.916345
_cell_length_c                    9.706992
_cell_angle_alpha                 89.480718
_cell_angle_beta                  89.643602
_cell_angle_gamma                 90.479612
_cell_volume                      2944.39002357

loop_
_atom_site_label
_atom_site_type_symbol
_atom_site_description
_atom_site_fract_x
_atom_site_fract_y
_atom_site_fract_z
_atom_type_partial_charge
O1    O     O_R   0.500010 0.321960 0.617040 -0.579546
O2    O     O_R   0.499990 0.321920 0.382900 -0.571041
C1    C     C_R   0.499260 0.265343 0.500489 0.853164
O3    O     O_R   0.430270 0.500040 0.617060 -0.586317
O4    O     O_R   0.430260 0.500000 0.382910 -0.579482
C2    C     C_R   0.407457 0.499560 0.500448 0.805060
Cu1   Cu    Cu3+1 0.500010 0.500020 0.638630 0.943282
Cu2   Cu    Cu3+1 0.499990 0.499980 0.361370 0.946424
O5    O     O_R   0.500010 0.678080 0.617100 -0.581610
O6    O     O_R   0.499990 0.678040 0.382960 -0.569846
O7    O     O_R   0.569740 0.500000 0.617090 -0.577497
O8    O     O_R   0.569730 0.499960 0.382940 -0.580469
C3    C     C_R   0.500630 0.734613 0.499655 0.858775
C4    C     C_R   0.592545 0.499927 0.499651 0.813765
C5    C     C_R   0.178176 0.380359 0.502538 0.536277
O9    O     O_2   0.204525 0.277458 0.496838 -0.544055
N1    N     N_R   0.201776 0.490621 0.505008 -0.461259
C6    C     C_R   0.177683 0.598638 0.510248 0.542668
C7    C     C_R   0.278461 0.499393 0.380158 -0.147171
C8    C     C_R   0.328596 0.501695 0.378207 -0.216488
C9    C     C_R   0.329172 0.491358 0.627931 -0.206634
C10   C     C_R   0.278761 0.488803 0.630692 0.213234
C11   C     C_R   0.253400 0.492933 0.505524 0.368225
C12   C     C_R   0.101666 0.487253 0.512057 -0.083580
C13   C     C_R   0.127101 0.374976 0.506723 -0.025988
C14   C     C_R   0.100506 0.263027 0.505851 0.162796
C15   C     C_R   0.127349 0.599153 0.514516 -0.055934
C16   C     C_R   0.354412 0.497770 0.502049 -0.078946
H1    H     H_    0.348674 0.487988 0.724187 0.158289
C17   C     C_R   0.645591 0.499071 0.499045 -0.080029
C18   C     C_R   0.973589 0.377692 0.531273 0.051414
C19   C     C_R   0.975217 0.599996 0.489409 0.044298
C20   C     C_R   0.949133 0.489108 0.508031 0.072829
C21   C     C_R   0.945988 0.271386 0.562477 -0.212760
C22   C     C_R   0.895931 0.273811 0.562405 -0.144260
C23   C     C_R   0.871615 0.381835 0.530023 -0.022485
C24   C     C_R   0.898164 0.489571 0.501535 -0.046701
C25   C     C_R   0.873765 0.597717 0.465753 -0.018443
C26   C     C_R   0.823278 0.597067 0.463534 0.533464
N2    N     N_R   0.798172 0.492283 0.495726 -0.463801
C27   C     C_R   0.821159 0.385290 0.526706 0.534651
C28   C     C_R   0.721296 0.482391 0.375055 -0.143257
C29   C     C_R   0.671180 0.484593 0.375148 -0.214402
C30   C     C_R   0.671049 0.512280 0.622780 -0.198138
C31   C     C_R   0.721469 0.510776 0.623426 0.207443
C32   C     C_R   0.746594 0.494980 0.498365 0.362373
O10   O     O_2   0.795217 0.282878 0.554581 -0.534147
C33   C     C_R   0.024592 0.376251 0.520691 0.011802
C34   C     C_R   0.050569 0.488421 0.514889 0.026523
C35   C     C_R   0.025676 0.601975 0.512897 0.035331
C36   C     C_R   0.050226 0.265799 0.512997 -0.193287
H2    H     H_    0.652508 0.474178 0.278312 0.166400
H3    H     H_    0.740629 0.470637 0.278933 0.146610
H4    H     H_    0.876354 0.190173 0.587245 0.188584
H5    H     H_    0.031407 0.179267 0.507089 0.138254
O11   O     O_2   0.202579 0.705350 0.512386 -0.538840
C37   C     C_R   0.102657 0.709366 0.528560 -0.152270
H6    H     H_    0.258925 0.502571 0.284005 0.143687
H7    H     H_    0.122519 0.794473 0.541026 0.192061
C38   C     C_R   0.950246 0.703244 0.439709 -0.217622
C39   C     C_R   0.900306 0.702967 0.430672 -0.151875
O12   O     O_2   0.799415 0.700389 0.430861 -0.533157
C40   C     C_R   0.052526 0.711848 0.535546 0.166423
H8    H     H_    0.969009 0.784352 0.403556 0.167644
H9    H     H_    0.651699 0.524254 0.718897 0.160116
C41   C     C_2   0.497753 0.933885 0.386613 -0.149635
C42   C     C_2   0.503188 0.866662 0.501322 -0.308343
H10   H     H_    0.492299 0.889910 0.287905 0.168542
H11   H     H_    0.510571 0.907183 0.600349 0.148763
C43   C     C_2   0.499941 0.067953 0.387126 -0.143815
C44   C     C_2   0.496573 0.133182 0.503154 -0.314500
C45   C     C_2   0.473890 0.424552 0.925865 0.243170
N3    N     N_2   0.499480 0.498660 0.846910 -0.277956
H12   H     H_    0.513947 0.575173 0.892376 0.173340
C46   C     C_2   0.468688 0.440430 0.079540 -0.081836
N4    N     N_2   0.499460 0.498630 0.153040 -0.299062
H13   H     H_    0.439431 0.393087 0.132721 0.160195
H14   H     H_    0.529413 0.534369 0.104070 0.189933
H15   H     H_    0.882628 0.785574 0.395726 0.188526
C47   C     C_3   0.748179 0.526984 0.756527 -0.833608
H16   H     H_    0.723201 0.541182 0.844615 0.222920
H17   H     H_    0.769861 0.444318 0.778867 0.250098
H18   H     H_    0.772487 0.607999 0.748326 0.242637
C48   C     C_3   0.030785 0.828925 0.589007 -0.904389
H19   H     H_    0.053575 0.867450 0.672031 0.238543
H20   H     H_    0.028776 0.898310 0.504975 0.222546
H21   H     H_    0.994887 0.813154 0.636760 0.250908
H22   H     H_    0.503745 0.113708 0.287741 0.169663
C49   C     C_3   0.252285 0.481626 0.766299 -0.841919
H23   H     H_    0.277444 0.479062 0.854752 0.221821
H24   H     H_    0.228891 0.562892 0.777818 0.245575
H25   H     H_    0.229660 0.397351 0.770466 0.245131
H26   H     H_    0.490625 0.091154 0.603248 0.144145
C50   C     C_3   0.448362 0.314143 0.868284 -0.745860
H27   H     H_    0.424647 0.269649 0.946827 0.173346
H28   H     H_    0.424980 0.338471 0.780997 0.249715
H29   H     H_    0.475090 0.244340 0.838272 0.231386
C51   C     C_3   0.123738 0.138383 0.497468 -0.739202
H30   H     H_    0.096876 0.062507 0.496878 0.193201
H31   H     H_    0.144939 0.131343 0.400599 0.260792
H32   H     H_    0.146969 0.122853 0.588486 0.259847
H33   H     H_    0.962133 0.185513 0.591508 0.141559
H34   H     H_    0.347093 0.506624 0.279739 0.163292

loop_
_geom_bond_atom_site_label_1
_geom_bond_atom_site_label_2
_geom_bond_distance
_ccdc_geom_bond_type
C41   H10   1.086464 S    
N3    H12   1.028257 S    
C7    C11   1.399275 A    
C7    C8    1.393216 A    
C48   H21   1.108869 S    
C43   H22   1.086493 S    
C23   C27   1.403525 A    
Cu1   Cu2   2.691368 S    
Cu1   N3    2.021652 S    
C8    H34   1.083159 S    
C41   C43   1.464338 S    
C31   C32   1.409334 A    
Cu1   O7    1.947690 S    
N1    C11   1.434627 S    
C23   C24   1.407486 A    
N4    H14   1.028244 S    
C47   H18   1.110316 S    
C28   H3    1.082954 S    
O4    C2    1.301612 A    
O7    C4    1.300846 A    
C29   H2    1.082938 S    
C5    C13   1.420387 A    
C5    O9    1.347357 S    
Cu2   N4    2.022589 S    
Cu1   O5    1.953084 S    
C21   C22   1.391524 A    
C28   C32   1.399168 A    
O5    C3    1.291384 A    
C33   C36   1.407889 A    
C2    C16   1.474010 S    
C22   C23   1.398291 A    
C18   C20   1.415215 A    
C43   C44   1.341139 D    
C49   H24   1.110259 S    
C6    O11   1.350249 S    
C25   C39   1.398429 A    
C45   C50   1.507039 S    
C41   C42   1.338020 D    
C9    C10   1.401004 A    
C22   H4    1.083397 S    
C35   C40   1.426717 A    
C17   C30   1.405673 A    
C30   H9    1.083448 S    
C4    C17   1.474186 S    
O3    Cu1   1.950591 S    
C37   C40   1.394808 A    
C7    H6    1.083111 S    
C48   H19   1.111534 S    
O3    C2    1.300853 A    
C15   C37   1.397330 A    
C26   N2    1.367561 A    
C45   N3    1.311450 D    
C8    C16   1.404268 A    
C50   H29   1.108141 S    
C13   C14   1.422983 A    
C9    H1    1.083554 S    
C20   C24   1.418209 A    
C38   C39   1.391092 A    
O1    C1    1.294271 A    
C1    C44   1.444011 S    
C46   N4    1.284763 D    
C24   C25   1.408190 A    
Cu2   O8    1.950585 S    
C12   C15   1.410056 A    
N1    C6    1.362032 A    
C27   O10   1.349567 S    
C18   C21   1.415132 A    
C21   H33   1.078564 S    
C12   C13   1.421151 A    
C49   H25   1.110245 S    
C50   H28   1.102855 S    
C46   H13   1.085144 S    
C19   C35   1.422033 A    
C14   C51   1.513558 S    
C47   H17   1.109767 S    
N2    C27   1.367898 A    
C9    C16   1.406040 A    
O8    C4    1.301685 A    
C51   H30   1.110458 S    
C51   H31   1.110124 S    
C18   C33   1.420636 A    
C17   C29   1.404197 A    
C28   C29   1.393076 A    
N2    C32   1.433934 S    
C30   C31   1.401414 A    
C3    C42   1.442885 S    
C12   C34   1.420209 A    
C5    N1    1.366376 A    
C26   O12   1.349502 S    
C33   C34   1.416719 A    
O1    Cu1   1.956917 S    
O2    Cu2   1.953084 S    
C6    C15   1.399171 A    
C48   H20   1.110073 S    
C47   H16   1.110769 S    
O6    C3    1.295219 A    
O4    Cu2   1.947693 S    
C44   H26   1.081890 S    
C51   H32   1.110095 S    
C40   C48   1.512887 S    
C38   H8    1.078584 S    
C19   C20   1.415309 A    
O2    C1    1.292852 A    
C14   C36   1.399127 A    
C45   C46   1.509497 S    
C25   C26   1.403246 A    
C39   H15   1.083291 S    
C10   C49   1.505090 S    
C31   C47   1.505132 S    
C36   H5    1.078043 S    
C50   H27   1.110494 S    
C37   H7    1.084777 S    
Cu2   O6    1.956917 S    
C34   C35   1.424636 A    
C19   C38   1.411380 A    
C10   C11   1.408956 A    
C42   H11   1.081870 S    
C49   H23   1.110930 S    
