data_mof_unit_24585.cif
_audit_creation_date              2012-12-11T14:04:16-0500
_audit_creation_method            fapswitch 2.2
_symmetry_space_group_name_H-M    P1
_symmetry_Int_Tables_number       1
_space_group_crystal_system       triclinic
_cell_length_a                    19.148671
_cell_length_b                    11.093311
_cell_length_c                    19.025399
_cell_angle_alpha                 90.172662
_cell_angle_beta                  89.979
_cell_angle_gamma                 90.000894
_cell_volume                      4041.39777813

loop_
_atom_site_label
_atom_site_type_symbol
_atom_type_description
_atom_site_fract_x
_atom_site_fract_y
_atom_site_fract_z
_atom_type_partial_charge
C1    C     C_R   0.240007 0.465051 0.649033 0.535243
C2    C     C_R   0.038644 0.647056 0.562353 -0.049823
C3    C     C_3   0.177117 0.170695 0.525059 -0.448164
C4    C     C_R   0.457876 0.149531 0.437876 -0.046511
C5    C     C_R   0.538644 0.147056 0.562353 -0.049823
C6    C     C_R   0.943901 0.866168 0.454677 -0.090886
C7    C     C_R   0.054724 0.864550 0.546862 -0.089477
C8    C     C_R   0.443901 0.366168 0.454677 -0.090886
C9    C     C_R   0.554725 0.364550 0.546862 -0.089476
C10   C     C_R   0.969130 0.973733 0.481212 -0.117124
C11   C     C_R   0.027153 0.973221 0.524675 -0.112885
C12   C     C_R   0.469130 0.473732 0.481212 -0.117124
C13   C     C_R   0.758002 0.459934 0.346554 0.537469
C14   C     C_R   0.527154 0.473220 0.524674 -0.112886
C15   C     C_R   0.023643 0.755532 0.527559 0.001805
C16   C     C_R   0.975237 0.756826 0.472317 0.006569
C17   C     C_R   0.523643 0.255532 0.527559 0.001805
C18   C     C_R   0.475237 0.256826 0.472317 0.006569
C19   C     C_R   0.017545 0.536067 0.530361 0.022620
C20   C     C_R   0.972571 0.538739 0.471833 0.017893
C21   C     C_R   0.517545 0.036067 0.530361 0.022620
C22   C     C_R   0.472571 0.038739 0.471833 0.017893
C23   C     C_R   0.037923 0.420964 0.556107 -0.077401
C24   C     C_R   0.740007 0.965051 0.649033 0.535244
C25   C     C_R   0.943416 0.429034 0.448315 -0.084852
C26   C     C_R   0.537923 0.920963 0.556107 -0.077402
C27   C     C_R   0.443417 0.929033 0.448314 -0.084852
C28   C     C_R   0.006159 0.316548 0.533060 -0.129283
C29   C     C_R   0.961794 0.320422 0.476758 -0.126706
C30   C     C_R   0.506159 0.816547 0.533060 -0.129283
C31   C     C_R   0.461794 0.820422 0.476758 -0.126706
C32   C     C_2   0.252474 0.921715 0.918677 -0.105990
C33   C     C_2   0.747423 0.921243 0.081348 -0.106556
C34   C     C_2   0.752474 0.421715 0.918677 -0.105990
C35   C     C_R   0.258001 0.959934 0.346554 0.537470
C36   C     C_2   0.247423 0.421243 0.081348 -0.106556
C37   C     C_2   0.254571 0.935250 0.074470 -0.093734
C38   C     C_2   0.745341 0.935525 0.925456 -0.100484
C39   C     C_2   0.754571 0.435250 0.074470 -0.093734
C40   C     C_2   0.245341 0.435525 0.925456 -0.100484
C41   C     C_R   0.229349 0.879392 0.652502 0.530508
C42   C     C_R   0.771825 0.876756 0.349917 0.528958
C43   C     C_R   0.729349 0.379392 0.652502 0.530507
C44   C     C_R   0.271825 0.376755 0.349917 0.528959
C45   C     C_2   0.222480 0.013790 0.031226 -0.151312
C46   C     C_2   0.255712 0.858713 0.530328 -0.012147
C47   C     C_2   0.777260 0.014035 0.969091 -0.151814
C48   C     C_2   0.722480 0.513790 0.031226 -0.151312
C49   C     C_2   0.277260 0.514035 0.969091 -0.151814
C50   C     C_2   0.210583 0.991643 0.957026 -0.164420
C51   C     C_2   0.789096 0.991707 0.043272 -0.163173
C52   C     C_2   0.710583 0.491643 0.957026 -0.164420
C53   C     C_2   0.289096 0.491707 0.043272 -0.163173
C54   C     C_2   0.009806 0.656858 0.925359 -0.099284
C55   C     C_2   0.005609 0.662640 0.081986 -0.104873
C56   C     C_2   0.509806 0.156858 0.925359 -0.099284
C57   C     C_2   0.717542 0.864270 0.464920 -0.019299
C58   C     C_2   0.505609 0.162640 0.081986 -0.104873
C59   C     C_2   0.015792 0.563730 0.043116 -0.162706
C60   C     C_2   0.031280 0.568000 0.968347 -0.154636
C61   C     C_2   0.515792 0.063730 0.043116 -0.162706
C62   C     C_2   0.531280 0.068000 0.968347 -0.154636
C63   C     C_R   0.060363 0.648953 0.637590 0.527176
C64   C     C_R   0.938571 0.649620 0.362077 0.533571
C65   C     C_R   0.560363 0.148953 0.637590 0.527176
C66   C     C_R   0.438571 0.149620 0.362077 0.533571
C67   C     C_R   0.237602 0.471388 0.852506 0.554231
C68   C     C_2   0.755712 0.358713 0.530328 -0.012148
C69   C     C_R   0.762359 0.471122 0.147507 0.553509
C70   C     C_R   0.737602 0.971388 0.852506 0.554231
C71   C     C_R   0.262359 0.971122 0.147507 0.553509
C72   C     C_R   0.227665 0.873554 0.852321 0.554437
C73   C     C_R   0.772312 0.873375 0.147664 0.556762
C74   C     C_R   0.727665 0.373554 0.852321 0.554437
C75   C     C_R   0.272312 0.373375 0.147664 0.556762
C76   C     C_R   0.032371 0.651695 0.852398 0.564871
C77   C     C_R   0.970674 0.652378 0.149584 0.566469
C78   C     C_R   0.532371 0.151695 0.852398 0.564871
C79   C     C_2   0.217543 0.364269 0.464921 -0.019298
C80   C     C_R   0.470674 0.152378 0.149584 0.566469
C81   C     C_2   0.255265 0.926757 0.588286 -0.083361
C82   C     C_2   0.744670 0.931373 0.413050 -0.110785
C83   C     C_2   0.755265 0.426757 0.588286 -0.083360
C84   C     C_2   0.244670 0.431372 0.413051 -0.110785
C85   C     C_2   0.240968 0.890639 0.406739 -0.102514
C86   C     C_2   0.752197 0.902369 0.584247 -0.122575
C87   C     C_2   0.740968 0.390639 0.406739 -0.102513
C88   C     C_2   0.252197 0.402368 0.584247 -0.122574
C89   C     C_2   0.273376 0.918929 0.465832 -0.146786
C90   C     C_R   0.957876 0.649531 0.437876 -0.046511
C91   C     C_2   0.708157 0.924145 0.531671 -0.146639
C92   C     C_2   0.773375 0.418929 0.465832 -0.146786
C93   C     C_2   0.208157 0.424145 0.531672 -0.146639
C94   C     C_3   0.246490 0.722639 0.529531 -0.234221
C95   C     C_3   0.318138 0.666636 0.517220 -0.402462
C96   C     C_3   0.704735 0.729294 0.458527 -0.218205
C97   C     C_3   0.677118 0.670696 0.525059 -0.448158
C98   C     C_3   0.746489 0.222640 0.529531 -0.234222
C99   C     C_3   0.818138 0.166636 0.517220 -0.402462
C100  C     C_3   0.204737 0.229293 0.458528 -0.218211
Cr1   Cr    Cr6+3 0.113970 0.508630 0.747920 1.004748
Cr2   Cr    Cr6+3 0.887700 0.820070 0.250200 1.020848
Cr3   Cr    Cr6+3 0.612300 0.320070 0.749800 1.018945
Cr4   Cr    Cr6+3 0.387700 0.320070 0.250200 1.020848
Cr5   Cr    Cr6+3 0.886030 0.508630 0.252080 1.008141
Cr6   Cr    Cr6+3 0.613970 0.008630 0.747920 1.004748
Cr7   Cr    Cr6+3 0.386030 0.008630 0.252080 1.008141
Cr8   Cr    Cr6+3 0.269200 0.666740 0.749850 1.017818
Cr9   Cr    Cr6+3 0.730800 0.666740 0.250150 1.010739
Cr10  Cr    Cr6+3 0.769200 0.166740 0.749850 1.017818
Cr11  Cr    Cr6+3 0.230800 0.166740 0.250150 1.010739
Cr12  Cr    Cr6+3 0.112300 0.820070 0.749800 1.018945
H1    H     H_    0.308750 0.995604 0.467898 0.107471
H2    H     H_    0.721451 0.852720 0.943893 0.089240
H3    H     H_    0.778436 0.352456 0.055692 0.091471
H4    H     H_    0.221451 0.352720 0.943893 0.089240
H5    H     H_    0.301238 0.887467 0.939888 0.104374
H6    H     H_    0.698766 0.886598 0.059982 0.098902
H7    H     H_    0.801238 0.387467 0.939888 0.104374
H8    H     H_    0.198766 0.386598 0.059982 0.098902
H9    H     H_    0.010014 0.474437 0.065705 0.155499
H10   H     H_    0.059175 0.490232 0.947686 0.156081
H11   H     H_    0.510014 0.974437 0.065705 0.155499
H12   H     H_    0.669318 0.994940 0.535510 0.111655
H13   H     H_    0.559175 0.990232 0.947686 0.156081
H14   H     H_    0.014240 0.751927 0.060376 0.108621
H15   H     H_    0.982379 0.735859 0.944751 0.100219
H16   H     H_    0.514240 0.251927 0.060376 0.108621
H17   H     H_    0.482379 0.235859 0.944751 0.100219
H18   H     H_    0.197936 0.827236 0.404089 0.100302
H19   H     H_    0.797592 0.844469 0.577879 0.104244
H20   H     H_    0.697936 0.327236 0.404089 0.100302
H21   H     H_    0.297592 0.344468 0.577879 0.104244
H22   H     H_    0.271799 0.019702 0.587554 0.070490
H23   H     H_    0.808749 0.495605 0.467898 0.107471
H24   H     H_    0.755157 0.026298 0.420748 0.089630
H25   H     H_    0.771800 0.519702 0.587554 0.070489
H26   H     H_    0.255156 0.526298 0.420748 0.089629
H27   H     H_    0.943893 0.055590 0.466820 0.101544
H28   H     H_    0.049889 0.055180 0.543184 0.102760
H29   H     H_    0.443894 0.555590 0.466819 0.101544
H30   H     H_    0.549890 0.555180 0.543183 0.102760
H31   H     H_    0.897799 0.867235 0.423838 0.156346
H32   H     H_    0.100894 0.864945 0.577549 0.161281
H33   H     H_    0.397799 0.367235 0.423838 0.156346
H34   H     H_    0.169319 0.494940 0.535510 0.111655
H35   H     H_    0.600895 0.364945 0.577548 0.161281
H36   H     H_    0.904899 0.423865 0.408342 0.171356
H37   H     H_    0.078304 0.407617 0.594491 0.162338
H38   H     H_    0.404899 0.923865 0.408342 0.171356
H39   H     H_    0.578304 0.907617 0.594491 0.162338
H40   H     H_    0.015762 0.233182 0.559551 0.096649
H41   H     H_    0.941385 0.240278 0.453776 0.098412
H42   H     H_    0.515762 0.733181 0.559551 0.096649
H43   H     H_    0.441385 0.740278 0.453775 0.098412
H44   H     H_    0.199611 0.096617 0.051482 0.155105
H45   H     H_    0.163518 0.030574 0.934678 0.155469
H46   H     H_    0.800093 0.096905 0.949145 0.155800
H47   H     H_    0.699612 0.596617 0.051482 0.155106
H48   H     H_    0.300093 0.596904 0.949145 0.155800
H49   H     H_    0.333453 0.683251 0.461961 0.130362
H50   H     H_    0.357118 0.705206 0.554203 0.181473
H51   H     H_    0.318426 0.568704 0.524757 0.147263
H52   H     H_    0.222845 0.686370 0.577893 0.167613
H53   H     H_    0.210055 0.694154 0.487489 0.108695
H54   H     H_    0.714847 0.679501 0.568476 0.150019
H55   H     H_    0.666329 0.574311 0.514604 0.149570
H56   H     H_    0.835997 0.031056 0.065854 0.155371
H57   H     H_    0.628882 0.715222 0.542012 0.150252
H58   H     H_    0.664820 0.713298 0.417208 0.198291
H59   H     H_    0.754340 0.684028 0.443810 0.147978
H60   H     H_    0.833453 0.183251 0.461961 0.130362
H61   H     H_    0.857117 0.205207 0.554203 0.181473
H62   H     H_    0.818426 0.068705 0.524757 0.147263
H63   H     H_    0.722845 0.186371 0.577893 0.167613
H64   H     H_    0.710054 0.194154 0.487489 0.108695
H65   H     H_    0.214842 0.179503 0.568477 0.150022
H66   H     H_    0.166329 0.074310 0.514604 0.149570
H67   H     H_    0.663518 0.530574 0.934678 0.155469
H68   H     H_    0.128880 0.215221 0.542008 0.150253
H69   H     H_    0.164824 0.213295 0.417208 0.198296
H70   H     H_    0.254343 0.184028 0.443814 0.147973
H71   H     H_    0.335998 0.531056 0.065854 0.155371
H72   H     H_    0.278436 0.852456 0.055692 0.091471
O1    O     O_R   0.043230 0.549300 0.667990 -0.518444
O2    O     O_R   0.832470 0.905110 0.169660 -0.512530
O3    O     O_R   0.667530 0.405110 0.830340 -0.513284
O4    O     O_R   0.332470 0.405110 0.169660 -0.512530
O5    O     O_R   0.054010 0.748440 0.822860 -0.488028
O6    O     O_R   0.945990 0.748440 0.177140 -0.492122
O7    O     O_R   0.554010 0.248440 0.822860 -0.488028
O8    O     O_R   0.445990 0.248440 0.177140 -0.492122
O9    O     O_3   0.165160 0.665150 0.749190 -0.278565
O10   O     O_3   0.834840 0.665150 0.250810 -0.274587
O11   O     O_3   0.665160 0.165150 0.749190 -0.278565
O12   O     O_R   0.956770 0.549300 0.332010 -0.516814
O13   O     O_3   0.334840 0.165150 0.250810 -0.274587
O14   O     O_R   0.178620 0.457600 0.674100 -0.530590
O15   O     O_R   0.821380 0.457600 0.325900 -0.539604
O16   O     O_R   0.678620 0.957600 0.674100 -0.530590
O17   O     O_R   0.321380 0.957600 0.325900 -0.539604
O18   O     O_R   0.284680 0.542100 0.669460 -0.511099
O19   O     O_R   0.715320 0.542100 0.330540 -0.522591
O20   O     O_R   0.784680 0.042100 0.669460 -0.511099
O21   O     O_R   0.215320 0.042100 0.330540 -0.522591
O22   O     O_R   0.262860 0.790390 0.676650 -0.497748
O23   O     O_R   0.543230 0.049300 0.667990 -0.518444
O24   O     O_R   0.737140 0.790390 0.323350 -0.505757
O25   O     O_R   0.762860 0.290390 0.676650 -0.497748
O26   O     O_R   0.237140 0.290390 0.323350 -0.505757
O27   O     O_R   0.167460 0.907030 0.670940 -0.548141
O28   O     O_R   0.832540 0.907030 0.329060 -0.545000
O29   O     O_R   0.667460 0.407030 0.670940 -0.548140
O30   O     O_R   0.332540 0.407030 0.329060 -0.545000
O31   O     O_R   0.053950 0.750220 0.675100 -0.489410
O32   O     O_R   0.946050 0.750220 0.324900 -0.491522
O33   O     O_R   0.553950 0.250220 0.675100 -0.489410
O34   O     O_R   0.456770 0.049300 0.332010 -0.516814
O35   O     O_R   0.446050 0.250220 0.324900 -0.491522
O36   O     O_R   0.043300 0.547370 0.827390 -0.510591
O37   O     O_R   0.956700 0.547370 0.172610 -0.509712
O38   O     O_R   0.543300 0.047370 0.827390 -0.510591
O39   O     O_R   0.456700 0.047370 0.172610 -0.509712
O40   O     O_R   0.178690 0.455820 0.821860 -0.502828
O41   O     O_R   0.821310 0.455820 0.178140 -0.498186
O42   O     O_R   0.678690 0.955820 0.821860 -0.502828
O43   O     O_R   0.321310 0.955820 0.178140 -0.498186
O44   O     O_R   0.284750 0.540170 0.828860 -0.512519
O45   O     O_R   0.262920 0.788600 0.824420 -0.504805
O46   O     O_R   0.715250 0.540170 0.171140 -0.516035
O47   O     O_R   0.784750 0.040170 0.828860 -0.512519
O48   O     O_R   0.215250 0.040170 0.171140 -0.516035
O49   O     O_R   0.737080 0.788600 0.175580 -0.503880
O50   O     O_R   0.762920 0.288600 0.824420 -0.504805
O51   O     O_R   0.237080 0.288600 0.175580 -0.503880
O52   O     O_R   0.167530 0.905110 0.830340 -0.513284

loop_
_geom_bond_atom_site_label_1
_geom_bond_atom_site_label_2
_ccdc_geom_bond_type
C59   H9    S    
Cr5   O12   S    
C65   O33   A    
C21   C26   A    
C38   C70   S    
C16   C90   A    
C55   C59   D    
C43   C83   S    
Cr4   O13   S    
C8    H33   S    
C42   C82   S    
C64   C90   S    
C32   H5    S    
C11   H28   S    
C87   C92   D    
C14   H30   S    
C73   O2    A    
C97   H57   S    
C81   H22   S    
C32   C72   S    
C46   C89   S    
C54   C60   D    
C7    C11   A    
C43   O25   A    
Cr2   O2    S    
C44   O30   A    
C77   O6    A    
C33   C73   S    
C29   H41   S    
C28   C29   A    
C3    H66   S    
C88   H21   S    
Cr7   O17   S    
C86   C91   D    
C95   H49   S    
C79   C84   D    
C55   C77   S    
Cr5   O37   S    
C86   H19   S    
C5    C17   A    
C20   C25   A    
C97   H54   S    
Cr4   O8    S    
C56   C78   S    
C12   H29   S    
Cr10  O20   S    
Cr12  O31   S    
C41   O22   A    
C34   C74   S    
C70   O47   A    
Cr8   O18   S    
C76   O5    A    
Cr2   O6    S    
Cr12  O5    S    
C3    C100  S    
C35   O21   A    
C24   O20   A    
C75   O4    A    
C63   O1    A    
C40   C67   S    
Cr7   O43   S    
Cr11  O51   S    
C71   O48   A    
Cr6   O42   S    
C49   H48   S    
C75   O51   A    
C36   C53   D    
Cr5   O41   S    
C74   O50   A    
C58   C61   D    
C100  H70   S    
Cr11  O21   S    
C73   O49   A    
C56   H17   S    
C58   C80   S    
C4    C18   A    
C61   C62   S    
C1    C88   S    
C7    C15   A    
C23   H37   S    
C84   H26   S    
C59   C60   S    
C96   H58   S    
C21   C22   A    
Cr9   O10   S    
C82   H24   S    
Cr11  O48   S    
C80   O8    A    
C51   H56   S    
C67   O40   A    
Cr3   O11   S    
Cr1   O1    S    
C1    O18   A    
Cr2   O10   S    
C94   H53   S    
C7    H32   S    
Cr1   O9    S    
Cr7   O39   S    
Cr8   O45   S    
C50   H45   S    
C25   C29   A    
Cr5   O10   S    
Cr4   O4    S    
C48   H47   S    
C89   H1    S    
C72   O45   A    
C27   C31   A    
Cr12  O27   S    
C79   C100  S    
Cr9   O19   S    
Cr3   O3    S    
Cr8   O22   S    
C10   C11   A    
C95   H50   S    
Cr6   O23   S    
Cr7   O13   S    
C9    C14   A    
C85   C89   D    
Cr1   O14   S    
C35   O17   A    
C47   C51   S    
C99   H60   S    
Cr8   O44   S    
C97   H55   S    
C37   H72   S    
C20   C90   A    
C96   H59   S    
C8    C18   A    
C72   O52   A    
C41   O27   A    
C87   H20   S    
Cr9   O24   S    
C19   C23   A    
C3    H68   S    
Cr4   O35   S    
C66   O35   A    
C2    C15   A    
C36   C75   S    
C95   H51   S    
C85   H18   S    
Cr7   O34   S    
C4    C22   A    
Cr9   O46   S    
C99   H61   S    
C55   H14   S    
Cr5   O15   S    
C30   C31   A    
C8    C12   A    
C41   C81   S    
C96   C97   S    
C13   C87   S    
C17   C18   A    
C39   C69   S    
Cr10  O50   S    
C93   H34   S    
C45   H44   S    
C23   C28   A    
C42   O24   A    
C100  H69   S    
C32   C50   D    
C38   C47   D    
Cr3   O33   S    
C54   C76   S    
Cr1   O40   S    
C5    C65   S    
C78   O38   A    
C26   C30   A    
C30   H42   S    
C39   H3    S    
C91   H12   S    
C37   C71   S    
C56   C62   D    
Cr2   O32   S    
C92   H23   S    
Cr3   O7    S    
C10   H27   S    
C37   C45   D    
C43   O29   A    
C94   H52   S    
C83   H25   S    
C42   O28   A    
C2    C63   S    
Cr6   O16   S    
C74   O3    A    
C46   C81   D    
C9    C17   A    
C34   H7    S    
Cr3   O29   S    
C88   C93   D    
C26   H39   S    
C57   C91   S    
C98   H64   S    
C68   C83   D    
C71   O43   A    
C64   O32   A    
C78   O7    A    
C70   O42   A    
C12   C14   A    
C44   C84   S    
C69   O41   A    
C6    C10   A    
C62   H13   S    
C31   H43   S    
C79   C93   S    
Cr6   O11   S    
C65   O23   A    
C33   C51   D    
C54   H15   S    
C19   C20   A    
C34   C52   D    
C1    O14   A    
C61   H11   S    
C22   C27   A    
C28   H40   S    
C53   H71   S    
C33   H6    S    
C6    H31   S    
Cr11  O26   S    
Cr4   O30   S    
C66   O34   A    
Cr12  O52   S    
C58   H16   S    
Cr11  O13   S    
C80   O39   A    
C4    C66   S    
C98   H63   S    
C35   C85   S    
Cr1   O36   S    
Cr2   O28   S    
C40   H4    S    
C99   H62   S    
C9    H35   S    
C67   O44   A    
C76   O36   A    
C38   H2    S    
C15   C16   A    
C64   O12   A    
C68   C92   S    
Cr6   O38   S    
C25   H36   S    
C44   O26   A    
C46   C94   S    
C3    H65   S    
C94   C95   S    
C36   H8    S    
C68   C98   S    
Cr12  O9    S    
C52   H67   S    
C49   C53   S    
Cr10  O47   S    
C6    C16   A    
Cr10  O25   S    
C60   H10   S    
C48   C52   S    
C5    C21   A    
C24   O16   A    
C98   C99   S    
Cr10  O11   S    
C57   C82   D    
C77   O37   A    
C45   C50   S    
C57   C96   S    
C13   O15   A    
C63   O31   A    
Cr8   O9    S    
C69   O46   A    
C24   C86   S    
C27   H38   S    
C40   C49   D    
C2    C19   A    
C13   O19   A    
C39   C48   D    
C47   H46   S    
Cr9   O49   S    
