data_mof_unit_11745.cif
_audit_creation_date              2012-12-11T17:23:08-0500
_audit_creation_method            fapswitch 2.2
_symmetry_space_group_name_H-M    P1
_symmetry_Int_Tables_number       1
_space_group_crystal_system       triclinic
_cell_length_a                    22.395334
_cell_length_b                    7.095124
_cell_length_c                    19.38302
_cell_angle_alpha                 89.870224
_cell_angle_beta                  99.62581
_cell_angle_gamma                 89.872105
_cell_volume                      3036.53558805

loop_
_atom_site_label
_atom_site_type_symbol
_atom_type_description
_atom_site_fract_x
_atom_site_fract_y
_atom_site_fract_z
_atom_type_partial_charge
O1    O     O_R   0.443980 0.494320 0.557430 -0.534060
O2    O     O_R   0.556020 0.994320 0.442570 -0.527887
O3    O     O_R   0.441210 0.822520 0.414610 -0.536199
O4    O     O_R   0.558790 0.322520 0.585390 -0.538992
C1    C     C_R   0.426853 0.655928 0.388516 0.704053
C2    C     C_R   0.573172 0.154831 0.611384 0.703912
O5    O     O_R   0.436920 0.823940 0.555180 -0.533237
O6    O     O_R   0.563080 0.323940 0.444820 -0.538543
O7    O     O_R   0.551700 0.995760 0.584140 -0.533343
O8    O     O_R   0.448300 0.495760 0.415860 -0.537526
C3    C     C_R   0.421667 0.655430 0.574963 0.725071
C4    C     C_R   0.578315 0.155384 0.425027 0.726000
O9    O     O_3   0.537660 0.661290 0.509340 -0.370127
O10   O     O_3   0.462340 0.161290 0.490660 -0.372641
V1    V     V_3+5 0.493010 0.935560 0.498270 1.487526
V2    V     V_3+5 0.506990 0.435560 0.501730 1.468217
C5    C     C_R   0.767540 0.931938 0.228234 -0.142319
C6    C     C_R   0.231280 0.432081 0.770245 -0.144075
C7    C     C_R   0.792540 0.095281 0.203640 0.139947
C8    C     C_R   0.207399 0.595385 0.796282 0.137739
C9    C     C_R   0.773718 0.272158 0.224566 -0.138180
C10   C     C_R   0.227323 0.772300 0.776785 -0.135227
C11   C     C_R   0.730666 0.285517 0.269491 -0.143036
C12   C     C_R   0.270366 0.785738 0.731850 -0.133878
C13   C     C_R   0.705774 0.122171 0.294219 0.130584
C14   C     C_R   0.294144 0.622434 0.705688 0.129923
C15   C     C_R   0.724480 0.945294 0.273153 -0.127272
C16   C     C_R   0.274331 0.445514 0.725323 -0.134983
C17   C     C_1   0.837723 0.081719 0.157702 -0.037234
C18   C     C_1   0.162236 0.581766 0.842241 -0.037474
C19   C     C_1   0.661124 0.135746 0.340824 -0.020172
C20   C     C_1   0.338813 0.636036 0.659110 -0.019483
C21   C     C_1   0.623632 0.145813 0.379467 -0.136036
C22   C     C_1   0.376327 0.646006 0.620494 -0.137479
C23   C     C_1   0.875764 0.071717 0.119751 -0.176897
C24   C     C_1   0.124217 0.571692 0.880215 -0.176360
C25   C     C_R   0.630028 0.110219 0.805681 -0.178357
C26   C     C_R   0.366325 0.712372 0.195464 -0.178829
C27   C     C_R   0.614247 0.142813 0.679581 -0.091171
C28   C     C_R   0.385514 0.652655 0.320287 -0.093208
C29   C     C_R   0.910386 0.053308 0.760445 -0.180347
C30   C     C_R   0.089917 0.550250 0.239599 -0.180191
C31   C     C_R   0.873718 0.033720 0.695754 -0.144736
C32   C     C_R   0.125049 0.575673 0.304924 -0.144021
C33   C     C_R   0.810577 0.037665 0.689240 -0.027034
C34   C     C_R   0.186908 0.615551 0.311889 -0.026583
C35   C     C_R   0.782441 0.078286 0.748717 0.029396
C36   C     C_R   0.216370 0.615564 0.251736 0.029129
C37   C     C_R   0.820951 0.083236 0.815805 0.053505
C38   C     C_R   0.178341 0.604876 0.184431 0.053408
C39   C     C_R   0.718073 0.104539 0.745447 0.064946
C40   C     C_R   0.280959 0.634638 0.254813 0.064745
C41   C     C_R   0.693461 0.102953 0.808704 0.078404
C42   C     C_R   0.304048 0.674077 0.192091 0.078850
C43   C     C_R   0.732540 0.096826 0.873881 -0.054704
C44   C     C_R   0.264785 0.672529 0.127011 -0.054757
C45   C     C_R   0.795024 0.093505 0.876743 -0.218989
C46   C     C_R   0.203610 0.632241 0.123691 -0.218934
C47   C     C_R   0.677300 0.139543 0.682034 -0.200109
C48   C     C_R   0.323891 0.609678 0.317290 -0.203155
C49   C     C_R   0.590737 0.124862 0.741914 -0.051043
C50   C     C_R   0.406307 0.707585 0.258922 -0.049412
C51   C     C_R   0.885032 0.071374 0.821015 -0.071753
C52   C     C_R   0.115055 0.571269 0.178982 -0.072204
O11   O     O_R   0.051730 0.724670 0.084120 -0.533512
O12   O     O_R   0.948270 0.224670 0.915880 -0.534061
O13   O     O_R   0.063080 0.393540 0.944820 -0.535739
O14   O     O_R   0.936920 0.893540 0.055180 -0.535807
C53   C     C_R   0.078325 0.562128 0.925031 0.714465
C54   C     C_R   0.921677 0.062145 0.074959 0.714301
O15   O     O_R   0.058800 0.395030 0.085390 -0.536239
O16   O     O_R   0.941200 0.895030 0.914610 -0.535631
O17   O     O_R   0.943980 0.223310 0.057440 -0.533776
O18   O     O_R   0.056020 0.723310 0.942560 -0.533882
C55   C     C_R   0.073044 0.563288 0.111295 0.683153
C56   C     C_R   0.927063 0.063844 0.888672 0.683564
O19   O     O_3   0.962360 0.556290 0.990650 -0.368845
O20   O     O_3   0.037640 0.056290 0.009350 -0.368864
V3    V     V_3+5 0.006980 0.281990 0.001730 1.437238
V4    V     V_3+5 0.993020 0.781990 0.998270 1.437161
H1    H     H_    0.705821 0.817466 0.291508 0.123844
H2    H     H_    0.292125 0.317708 0.705855 0.124074
C57   C     C_1   0.778126 0.970492 0.623175 0.274391
N1    N     N_1   0.752569 0.915674 0.570169 -0.360040
C58   C     C_1   0.214790 0.682530 0.380010 0.274831
N2    N     N_1   0.236633 0.736818 0.434700 -0.361403
H3    H     H_    0.895053 0.005904 0.650526 0.129063
H4    H     H_    0.102935 0.572354 0.350597 0.129396
H5    H     H_    0.823557 0.094417 0.927785 0.108348
H6    H     H_    0.175277 0.626853 0.072576 0.109618
H7    H     H_    0.781405 0.794059 0.212819 0.114135
H8    H     H_    0.216556 0.294180 0.784547 0.114686
H9    H     H_    0.792420 0.399988 0.206270 0.114357
H10   H     H_    0.209497 0.900103 0.796212 0.115756
H11   H     H_    0.716858 0.423395 0.284974 0.118463
H12   H     H_    0.285045 0.923639 0.717487 0.121401
C59   C     C_1   0.526173 0.126364 0.741741 0.294388
N3    N     N_1   0.474460 0.127549 0.741507 -0.346784
C60   C     C_1   0.469160 0.754811 0.259603 0.296238
N4    N     N_1   0.519490 0.792683 0.260242 -0.347228
C61   C     C_1   0.710037 0.099151 0.939667 0.299658
N5    N     N_1   0.692186 0.100986 0.992359 -0.329240
C62   C     C_1   0.286132 0.706657 0.061630 0.300414
N6    N     N_1   0.303064 0.733862 0.009262 -0.330849
H13   H     H_    0.610461 0.103693 0.853118 0.140253
H14   H     H_    0.384343 0.748173 0.148604 0.139899
H15   H     H_    0.693189 0.171539 0.633932 0.123999
H16   H     H_    0.311177 0.552473 0.364185 0.126577
H17   H     H_    0.959094 0.043840 0.763701 0.112349
H18   H     H_    0.041865 0.523791 0.236204 0.112722

loop_
_geom_bond_atom_site_label_1
_geom_bond_atom_site_label_2
_ccdc_geom_bond_type
O14   V4    S    
C26   H14   S    
C61   N5    T    
C28   C48   A    
C38   C52   A    
C41   C43   A    
O1    C3    A    
O16   C56   A    
O2    C4    A    
C2    O7    A    
O15   V3    S    
C59   N3    T    
C28   C50   A    
C35   C37   A    
C8    C18   S    
C58   N2    T    
O5    C3    A    
O12   V3    S    
C45   H5    S    
C37   C51   A    
C7    C9    A    
C12   C14   A    
C12   H12   S    
O20   V4    S    
C51   C56   S    
C37   C45   A    
C10   H10   S    
C33   C35   A    
C40   C48   A    
C60   N4    T    
C23   C54   S    
C32   C34   A    
C5    H7    S    
C19   C21   T    
C44   C46   A    
C48   H16   S    
C34   C58   S    
C25   C41   A    
C36   C38   A    
O12   C56   A    
O6    V2    S    
O11   V4    S    
O18   V4    S    
C29   C31   A    
C33   C57   S    
C30   C32   A    
C40   C42   A    
C34   C36   A    
O19   V3    S    
C27   C49   A    
C42   C44   A    
C16   H2    S    
C5    C15   A    
C15   H1    S    
C6    C16   A    
O4    C2    A    
O20   V3    S    
C35   C39   A    
C47   H15   S    
O13   C53   A    
C38   C46   A    
O4    V2    S    
C25   H13   S    
C31   C33   A    
C57   N1    T    
C26   C42   A    
O6    C4    A    
C27   C47   A    
C54   O17   A    
O17   V3    S    
O13   V3    S    
C53   O18   A    
O1    V2    S    
O2    V1    S    
C46   H6    S    
C8    C10   A    
C43   C45   A    
C10   C12   A    
C1    C28   S    
C39   C47   A    
C29   C51   A    
C7    C17   S    
C30   C52   A    
O3    V1    S    
C24   C53   S    
O19   V4    S    
C17   C23   T    
O10   V1    S    
C13   C19   S    
C3    C22   S    
C49   C59   S    
C44   C62   S    
O3    C1    A    
C25   C49   A    
C14   C20   S    
C13   C15   A    
C43   C61   S    
C14   C16   A    
O11   C55   A    
C18   C24   T    
C6    H8    S    
C9    C11   A    
C30   H18   S    
C31   H3    S    
C1    O8    A    
O16   V4    S    
O8    V2    S    
O15   C55   A    
C9    H9    S    
O5    V1    S    
C5    C7    A    
C52   C55   S    
C11   H11   S    
C6    C8    A    
C11   C13   A    
O7    V1    S    
C50   C60   S    
C36   C40   A    
O14   C54   A    
O9    V2    S    
C62   N6    T    
C2    C27   S    
C29   H17   S    
C39   C41   A    
C4    C21   S    
C32   H4    S    
C20   C22   T    
C26   C50   A    
