data_mof_unit_28523.cif
_audit_creation_date              2012-12-10T20:41:50-0500
_audit_creation_method            fapswitch 2.2
_symmetry_space_group_name_H-M    P1
_symmetry_Int_Tables_number       1
_space_group_crystal_system       triclinic
_cell_length_a                    15.035253
_cell_length_b                    15.200086
_cell_length_c                    9.897208
_cell_angle_alpha                 89.212709
_cell_angle_beta                  90.643444
_cell_angle_gamma                 89.899816
_cell_volume                      2261.51935502

loop_
_atom_site_label
_atom_site_type_symbol
_atom_type_description
_atom_site_fract_x
_atom_site_fract_y
_atom_site_fract_z
_atom_type_partial_charge
C1    C     C_R   0.381797 0.878296 0.500171 0.878019
C2    C     C_R   0.935865 0.544312 0.068844 0.220538
C3    C     C_R   0.568797 0.965139 0.074660 -0.120403
C4    C     C_R   0.068799 0.465135 0.074659 -0.120448
C5    C     C_R   0.570499 0.967605 0.931492 0.477993
C6    C     C_R   0.070502 0.467605 0.931491 0.477980
C7    C     C_R   0.435976 0.044433 0.926826 0.165836
C8    C     C_R   0.935972 0.544433 0.926828 0.165882
C9    C     C_3   0.338137 0.031478 0.918627 -0.483387
C10   C     C_3   0.838126 0.531477 0.918641 -0.483391
C11   C     C_3   0.337853 0.029996 0.072268 -0.492711
C12   C     C_R   0.379219 0.118842 0.499362 0.875853
C13   C     C_3   0.837848 0.530004 0.072281 -0.492734
C14   C     C_R   0.621266 0.118650 0.499991 0.898032
C15   C     C_R   0.619916 0.880152 0.500941 0.906201
C16   C     C_R   0.121269 0.618648 0.499992 0.898021
C17   C     C_R   0.119913 0.380148 0.500941 0.906251
C18   C     C_R   0.303129 0.235659 0.611525 0.068749
C19   C     C_R   0.288268 0.775256 0.622689 0.120343
C20   C     C_R   0.803220 0.735760 0.611430 0.068782
C21   C     C_R   0.788285 0.275239 0.622686 0.120390
C22   C     C_R   0.309092 0.180511 0.501223 -0.068615
C23   C     C_R   0.881795 0.378298 0.500170 0.878011
C24   C     C_R   0.324982 0.803688 0.501382 -0.109272
C25   C     C_R   0.809096 0.680516 0.501225 -0.068581
C26   C     C_R   0.824972 0.303696 0.501377 -0.109271
C27   C     C_R   0.243911 0.182198 0.399518 -0.206166
C28   C     C_R   0.307849 0.757439 0.382284 -0.202071
C29   C     C_R   0.743777 0.682060 0.399696 -0.206194
C30   C     C_R   0.807800 0.257487 0.382265 -0.202069
C31   C     C_R   0.679560 0.747409 0.400801 -0.196848
C32   C     C_R   0.742597 0.193350 0.382145 -0.151486
C33   C     C_R   0.179699 0.247543 0.400623 -0.196882
C34   C     C_R   0.879221 0.618844 0.499363 0.875825
C35   C     C_R   0.242645 0.693299 0.382163 -0.151467
C36   C     C_R   0.681896 0.810187 0.503417 -0.068988
C37   C     C_R   0.695507 0.176172 0.501189 -0.137095
C38   C     C_R   0.181897 0.310184 0.503415 -0.069011
C39   C     C_R   0.195518 0.676161 0.501196 -0.137085
C40   C     C_R   0.740947 0.801113 0.612082 0.105364
C41   C     C_R   0.724073 0.211834 0.623004 0.145741
C42   C     C_R   0.240852 0.301016 0.612186 0.105353
C43   C     C_R   0.224060 0.711850 0.623012 0.145734
C44   C     C_3   0.805931 0.864954 0.672746 -0.024418
C45   C     C_3   0.373885 0.291081 0.673603 -0.502027
C46   C     C_3   0.671704 0.257386 0.729330 -0.005888
C47   C     C_3   0.305831 0.364810 0.672977 -0.024381
C48   C     C_3   0.171680 0.757416 0.729331 -0.005855
C49   C     C_3   0.243433 0.827183 0.729182 -0.522329
C50   C     C_3   0.873992 0.791220 0.673384 -0.502084
C51   C     C_3   0.743455 0.327153 0.729189 -0.522366
C52   C     C_R   0.435866 0.044310 0.068842 0.220480
H1    H     H_    0.244099 0.135127 0.318623 0.154596
H2    H     H_    0.725842 0.161376 0.288100 0.198595
H3    H     H_    0.130570 0.250845 0.319743 0.167029
H4    H     H_    0.225920 0.661289 0.288127 0.198559
H5    H     H_    0.788294 0.884118 0.776703 0.208126
H6    H     H_    0.606144 0.281889 0.691447 0.141609
H7    H     H_    0.288185 0.383926 0.776937 0.208230
H8    H     H_    0.106118 0.781918 0.691437 0.141581
H9    H     H_    0.431033 0.302277 0.605141 0.215815
H10   H     H_    0.283837 0.827946 0.823689 0.228121
H11   H     H_    0.931111 0.802384 0.604858 0.215797
H12   H     H_    0.340328 0.774272 0.288274 0.179324
H13   H     H_    0.783854 0.327911 0.823696 0.228128
H14   H     H_    0.392447 0.267353 0.776919 0.203603
H15   H     H_    0.219697 0.892582 0.691899 0.187438
H16   H     H_    0.892584 0.767535 0.776701 0.203651
H17   H     H_    0.719721 0.392555 0.691922 0.187440
H18   H     H_    0.624574 0.937397 0.130584 0.184483
H19   H     H_    0.124579 0.437394 0.130583 0.184431
H20   H     H_    0.303529 0.089743 0.873593 0.213619
H21   H     H_    0.319974 0.967863 0.873360 0.211144
H22   H     H_    0.803513 0.589738 0.873606 0.213651
H23   H     H_    0.743847 0.634859 0.318954 0.154546
H24   H     H_    0.819959 0.467857 0.873388 0.211129
H25   H     H_    0.656744 0.983525 0.794978 0.380387
H26   H     H_    0.156743 0.483549 0.794974 0.380436
H27   H     H_    0.840246 0.274351 0.288246 0.179347
H28   H     H_    0.302223 0.087152 0.114588 0.202933
H29   H     H_    0.319756 0.964939 0.116725 0.216399
H30   H     H_    0.802223 0.587166 0.114606 0.203018
H31   H     H_    0.819748 0.464948 0.116746 0.216369
H32   H     H_    0.630315 0.750602 0.320068 0.166959
I1    I     I_    0.841857 0.972791 0.541796 -0.378956
I2    I     I_    0.668186 0.185164 0.916478 -0.401031
I3    I     I_    0.341811 0.472691 0.542184 -0.378989
I4    I     I_    0.168156 0.685216 0.916516 -0.400966
N1    N     N_R   0.499140 0.000000 0.142800 -0.148141
N2    N     N_R   0.999140 0.500000 0.142800 -0.148134
N3    N     N_R   0.499160 0.000000 0.857150 -0.160828
N4    N     N_R   0.999160 0.500000 0.857150 -0.160842
O1    O     O_R   0.408400 0.908380 0.614690 -0.613319
O2    O     O_R   0.591610 0.908390 0.614650 -0.604085
O3    O     O_R   0.091610 0.591610 0.614650 -0.619282
O4    O     O_R   0.091610 0.408390 0.614650 -0.604074
O5    O     O_R   0.591590 0.091600 0.385310 -0.605502
O6    O     O_R   0.591590 0.908400 0.385310 -0.630192
O7    O     O_R   0.091590 0.591600 0.385310 -0.605497
O8    O     O_R   0.091590 0.408400 0.385310 -0.630250
O9    O     O_3   0.647067 0.941474 0.870481 -0.774943
O10   O     O_3   0.147074 0.441495 0.870480 -0.775018
O11   O     O_R   0.408400 0.091620 0.614690 -0.616832
O12   O     O_R   0.908400 0.408380 0.614690 -0.613322
O13   O     O_R   0.908400 0.591620 0.614690 -0.616832
O14   O     O_R   0.408370 0.908370 0.385350 -0.629000
O15   O     O_R   0.408370 0.091630 0.385350 -0.615060
O16   O     O_R   0.908370 0.408370 0.385350 -0.629011
O17   O     O_R   0.908370 0.591630 0.385350 -0.615017
O18   O     O_R   0.591610 0.091610 0.614650 -0.619290
Zn1   Zn    Zn3+2 0.500010 0.000000 0.653130 0.971915
Zn2   Zn    Zn3+2 0.000010 0.500000 0.653130 0.971925
Zn3   Zn    Zn3+2 0.499980 0.000000 0.346870 0.961116
Zn4   Zn    Zn3+2 0.999980 0.500000 0.346870 0.961110

loop_
_geom_bond_atom_site_label_1
_geom_bond_atom_site_label_2
_ccdc_geom_bond_type
C33   H3    S    
C21   C26   A    
H26   O10   S    
H25   O9    S    
C9    H20   S    
O7    Zn4   S    
C11   H29   S    
O4    Zn2   S    
C7    C52   A    
C38   C42   A    
O3    Zn2   S    
C18   C42   A    
C20   C40   A    
C20   C25   A    
N3    Zn1   S    
C12   C22   S    
O2    Zn1   S    
O11   Zn1   S    
C51   H13   S    
C23   C26   S    
O16   Zn4   S    
C2    N2    A    
C2    C13   S    
O18   Zn1   S    
O15   Zn3   S    
C20   C50   S    
C11   C52   S    
C10   H24   S    
C28   C35   A    
C41   C46   S    
C48   I4    S    
C8    N4    A    
C43   C48   S    
C1    O14   A    
C17   C38   S    
N2    Zn4   S    
C46   H6    S    
C50   H11   S    
C52   N1    A    
C9    H21   S    
C15   O2    A    
C32   H2    S    
C19   C43   A    
C48   H8    S    
C4    N2    A    
C45   C47   S    
C25   C29   A    
N1    Zn3   S    
O14   Zn3   S    
C36   C40   A    
C3    H18   S    
O8    Zn4   S    
C12   O11   A    
C4    C6    A    
O12   Zn2   S    
N4    Zn2   S    
O6    Zn3   S    
C39   C43   A    
C46   C51   S    
C27   C33   A    
C31   H32   S    
C47   I3    S    
C35   C39   A    
C19   C49   S    
C23   O12   A    
C44   H5    S    
C7    N3    A    
C17   O4    A    
C32   C37   A    
C9    C11   S    
C5    N3    A    
O17   Zn4   S    
O1    Zn1   S    
C21   C41   A    
C30   H27   S    
C28   H12   S    
C8    C10   S    
C48   C49   S    
O13   Zn2   S    
C26   C30   A    
C22   C27   A    
C15   O6    A    
O5    Zn3   S    
C44   I1    S    
C18   C45   S    
C15   C36   S    
C21   C51   S    
C14   O5    A    
C44   C50   S    
C14   O18   A    
C13   H31   S    
C16   O3    A    
C49   H10   S    
C49   H15   S    
C35   H4    S    
C18   C22   A    
C34   O13   A    
C2    C8    A    
C24   C28   A    
C3    C5    A    
C10   C13   S    
C12   O15   A    
C27   H1    S    
C16   O7    A    
C29   H23   S    
C25   C34   S    
C33   C38   A    
C5    O9    S    
C3    N1    A    
C19   C24   A    
C29   C31   A    
C14   C37   S    
C30   C32   A    
C10   H22   S    
C6    N4    A    
C23   O16   A    
C13   H30   S    
C45   H9    S    
C42   C47   S    
C6    O10   S    
C37   C41   A    
C17   O8    A    
C11   H28   S    
C16   C39   S    
C47   H7    S    
C7    C9    S    
C40   C44   S    
C1    C24   S    
C1    O1    A    
C45   H14   S    
C34   O17   A    
C31   C36   A    
C51   H17   S    
C50   H16   S    
C4    H19   S    
C46   I2    S    
