data_mof_unit_54484.cif
_audit_creation_date              2012-12-10T21:28:51-0500
_audit_creation_method            fapswitch 2.2
_symmetry_space_group_name_H-M    P1
_symmetry_Int_Tables_number       1
_space_group_crystal_system       triclinic
_cell_length_a                    10.8336
_cell_length_b                    16.119997
_cell_length_c                    16.893545
_cell_angle_alpha                 87.049414
_cell_angle_beta                  91.665378
_cell_angle_gamma                 90.761463
_cell_volume                      2944.88693782

loop_
_atom_site_label
_atom_site_type_symbol
_atom_type_description
_atom_site_fract_x
_atom_site_fract_y
_atom_site_fract_z
_atom_type_partial_charge
C1    C     C_R   0.492905 0.489206 0.653259 0.945993
C2    C     C_R   0.936019 0.428923 0.546520 0.049626
C3    C     C_R   0.873788 0.497131 0.506885 -0.164980
C4    C     C_R   0.940288 0.568031 0.478516 -0.152718
C5    C     C_R   0.064394 0.574497 0.499096 0.346623
C6    C     C_R   0.129195 0.501663 0.520890 -0.176326
C7    C     C_R   0.483365 0.487495 0.740607 -0.171939
C8    C     C_R   0.443895 0.561413 0.774953 -0.050163
C9    C     C_R   0.479818 0.576396 0.853804 -0.060199
C10   C     C_R   0.549617 0.516087 0.897783 0.151229
C11   C     C_R   0.574501 0.440237 0.866626 -0.111911
C12   C     C_R   0.740414 0.498828 0.500080 0.999877
C13   C     C_R   0.535632 0.422995 0.789913 -0.028250
C14   C     C_R   0.580647 0.473522 0.138846 0.438447
C15   C     C_R   0.594569 0.476011 0.221522 -0.230206
C16   C     C_R   0.492528 0.524933 0.097785 0.017080
C17   C     C_R   0.505845 0.519223 0.262308 -0.328685
C18   C     C_R   0.412731 0.565224 0.221452 0.310833
C19   C     C_R   0.412959 0.574083 0.138483 0.336333
C20   C     C_R   0.452304 0.769152 0.456489 0.026202
C21   C     C_R   0.464277 0.855724 0.461289 -0.309519
C22   C     C_R   0.540694 0.889945 0.520201 0.197241
C23   C     C_R   0.502884 0.511404 0.347692 0.976035
C24   C     C_R   0.608083 0.835358 0.571974 0.404229
C25   C     C_R   0.591750 0.748595 0.566500 -0.109987
C26   C     C_R   0.521448 0.151076 0.562410 -0.155832
C27   C     C_R   0.526423 0.238836 0.556335 -0.063941
C28   C     C_R   0.483127 0.108024 0.494747 0.150775
C29   C     C_R   0.438372 0.242040 0.426517 0.017114
C30   C     C_R   0.443791 0.154622 0.426215 0.336130
C31   C     C_R   0.260579 0.500560 0.506727 0.937033
C32   C     C_R   0.874870 0.361483 0.587002 -0.071865
C33   C     C_R   0.932707 0.283428 0.594173 -0.151805
C34   C     C_R   0.061697 0.280831 0.586865 -0.053242
C35   C     C_R   0.125883 0.357262 0.583200 0.074494
C36   C     C_R   0.065421 0.428778 0.548555 -0.004428
H1    H     H_    0.559095 0.272365 0.606064 0.149613
H2    H     H_    0.640312 0.706248 0.607827 0.166262
H3    H     H_    0.413871 0.896312 0.419091 0.227616
H4    H     H_    0.617368 0.392411 0.905056 0.188744
N1    N     N_2   0.573692 0.522948 0.979188 -0.129197
N2    N     N_2   0.475247 0.523414 0.015199 -0.121744
N3    N     N_R   0.515300 0.716920 0.509720 -0.162408
N4    N     N_2   0.556013 0.978117 0.526026 -0.174036
N5    N     N_2   0.469625 0.019542 0.493909 -0.147239
N6    N     N_R   0.484690 0.283070 0.490290 -0.132858
O1    O     O_R   0.494530 0.422540 0.612660 -0.660053
O2    O     O_R   0.504350 0.561840 0.618900 -0.627299
O3    O     O_R   0.678320 0.430330 0.496880 -0.661434
O4    O     O_R   0.688140 0.569640 0.503120 -0.593231
O5    O     O_R   0.495650 0.438160 0.381100 -0.641061
O6    O     O_R   0.505470 0.577460 0.387340 -0.599330
O7    O     O_R   0.311860 0.430360 0.496880 -0.578136
O8    O     O_R   0.321680 0.569670 0.503120 -0.617650
Zn1   Zn    Zn3+2 0.493440 0.406980 0.495830 0.965998
Zn2   Zn    Zn3+2 0.506560 0.593020 0.504170 0.986118
C37   C     C_2   0.886556 0.634241 0.423328 0.420586
H5    H     H_    0.922369 0.697382 0.423442 0.098581
O9    O     O_2   0.807508 0.617739 0.373354 -0.584263
C38   C     C_2   0.541090 0.336147 0.766161 0.439317
H6    H     H_    0.482614 0.315264 0.718355 0.078610
O10   O     O_2   0.607668 0.285668 0.802224 -0.523372
O11   O     O_3   0.319995 0.600618 0.262421 -0.623961
C39   C     C_3   0.220744 0.543248 0.270263 0.088084
H7    H     H_    0.239322 0.499443 0.322063 0.179737
H8    H     H_    0.203805 0.506953 0.216359 0.167635
C40   C     C_3   0.103382 0.590147 0.284449 -0.735732
H9    H     H_    0.077016 0.629238 0.230742 0.256265
H10   H     H_    0.027091 0.545424 0.297989 0.233461
H11   H     H_    0.118291 0.630794 0.334917 0.272247
C41   C     C_2   0.444066 0.652738 0.892836 0.554589
H12   H     H_    0.508075 0.680733 0.934580 0.047033
O12   O     O_2   0.341089 0.681922 0.882574 -0.531077
O13   O     O_3   0.328555 0.623749 0.094902 -0.582034
C42   C     C_3   0.329147 0.705761 0.121586 0.175795
H13   H     H_    0.420346 0.725044 0.147646 0.142295
H14   H     H_    0.256909 0.711215 0.166234 0.216592
C43   C     C_3   0.297555 0.766798 0.052604 -0.762659
H15   H     H_    0.211416 0.746874 0.021345 0.288540
H16   H     H_    0.283822 0.829505 0.074985 0.208320
H17   H     H_    0.374377 0.770718 0.010594 0.260001
C44   C     C_2   0.364998 0.621759 0.727379 0.547413
H18   H     H_    0.292898 0.598803 0.688030 0.070636
O14   O     O_2   0.385192 0.696456 0.727542 -0.555852
C45   C     C_2   0.546556 0.107282 0.640656 0.483863
H19   H     H_    0.519996 0.042786 0.651421 0.124811
O15   O     O_2   0.595013 0.143516 0.695359 -0.527220
O16   O     O_3   0.682096 0.867673 0.631287 -0.584521
C46   C     C_3   0.806663 0.847947 0.619554 0.049354
H20   H     H_    0.832762 0.860332 0.556569 0.130687
H21   H     H_    0.824037 0.781665 0.637442 0.138133
C47   C     C_3   0.889170 0.901660 0.670908 -0.690609
H22   H     H_    0.867439 0.889932 0.734380 0.266638
H23   H     H_    0.987517 0.886791 0.662643 0.192609
H24   H     H_    0.874505 0.968381 0.653959 0.276543
C48   C     C_2   0.375895 0.286641 0.358688 0.531066
H25   H     H_    0.394017 0.270382 0.298618 0.018310
O17   O     O_2   0.297057 0.337853 0.369217 -0.559414
C49   C     C_2   0.777529 0.377459 0.643815 0.465963
H26   H     H_    0.724223 0.326438 0.669227 0.084247
O18   O     O_2   0.763411 0.446857 0.667623 -0.594352
O19   O     O_3   0.397279 0.113958 0.361418 -0.597228
C50   C     C_3   0.496750 0.094710 0.313645 0.058131
H27   H     H_    0.563426 0.052786 0.346726 0.162914
H28   H     H_    0.546200 0.152262 0.292183 0.116966
C51   C     C_3   0.447062 0.050367 0.241875 -0.751725
H29   H     H_    0.381264 0.090961 0.206889 0.252797
H30   H     H_    0.524461 0.035112 0.203680 0.206047
H31   H     H_    0.398898 0.991896 0.261383 0.272240
C52   C     C_2   0.368123 0.736067 0.395002 0.515143
H32   H     H_    0.338483 0.672209 0.398329 0.176882
O20   O     O_2   0.328622 0.780768 0.339659 -0.602270
C53   C     C_2   0.858961 0.208203 0.616241 0.379464
H33   H     H_    0.769529 0.199245 0.587842 0.074250
O21   O     O_2   0.894601 0.158152 0.668345 -0.538532
C54   C     C_2   0.128985 0.200823 0.586497 0.409698
H34   H     H_    0.081616 0.141781 0.595942 0.130681
O22   O     O_2   0.238291 0.199570 0.571316 -0.605895
C55   C     C_2   0.229149 0.366609 0.641336 0.438412
H35   H     H_    0.292548 0.316354 0.655155 0.106387
O23   O     O_2   0.238185 0.429164 0.678869 -0.650893
O24   O     O_3   0.124583 0.650687 0.491272 -0.632785
C56   C     C_3   0.099090 0.695615 0.558660 0.094274
H36   H     H_    0.112875 0.657129 0.614957 0.159127
H37   H     H_    0.002420 0.718207 0.555175 0.111885
C57   C     C_3   0.185353 0.770428 0.562373 -0.756030
H38   H     H_    0.178586 0.809024 0.506073 0.254343
H39   H     H_    0.160315 0.808679 0.612112 0.216701
H40   H     H_    0.281582 0.749215 0.573010 0.269054
C58   C     C_2   0.700500 0.434115 0.265270 0.511597
H41   H     H_    0.714026 0.439617 0.328589 0.064081
O25   O     O_2   0.776283 0.394555 0.231260 -0.533436
O26   O     O_3   0.652964 0.421061 0.097916 -0.532674
C59   C     C_3   0.589676 0.344262 0.092023 0.117761
H42   H     H_    0.510625 0.350896 0.048684 0.141759
H43   H     H_    0.554713 0.320164 0.150431 0.121402
C60   C     C_3   0.677643 0.280212 0.063320 -0.708325
H44   H     H_    0.755122 0.270297 0.107141 0.273168
H45   H     H_    0.627766 0.220297 0.056271 0.200860
H46   H     H_    0.715653 0.301706 0.005408 0.262903

loop_
_geom_bond_atom_site_label_1
_geom_bond_atom_site_label_2
_ccdc_geom_bond_type
C57   H38   S    
N1    N2    D    
C35   C55   S    
C35   C36   A    
C25   N3    A    
C59   C60   S    
C12   O3    A    
C37   H5    S    
C7    C8    A    
C13   C38   S    
C45   H19   S    
C60   H45   S    
C26   C27   A    
C17   C23   S    
C8    C44   S    
C2    C32   A    
C18   C19   A    
C26   C45   S    
C5    C6    A    
C43   H16   S    
C18   O11   S    
C56   H37   S    
C51   H29   S    
C34   C54   S    
C54   H34   S    
C38   O10   D    
C34   C35   A    
C52   H32   S    
C3    C12   S    
C22   N4    S    
C6    C36   A    
C8    C9    A    
C48   O17   D    
C4    C37   S    
C14   C16   A    
C46   H21   S    
C9    C10   A    
O16   C46   S    
O7    Zn1   S    
C6    C31   S    
C21   C22   A    
C10   N1    S    
O19   C50   S    
C33   C34   A    
C55   O23   D    
C60   H46   S    
O8    Zn2   S    
C28   N5    S    
O13   C42   S    
C45   O15   D    
C40   H9    S    
C39   C40   S    
C56   H36   S    
C24   C25   A    
C41   O12   D    
C43   H15   S    
C1    O1    A    
C56   C57   S    
C59   H43   S    
C57   H40   S    
O3    Zn1   S    
C5    O24   S    
C47   H24   S    
O4    Zn2   S    
C38   H6    S    
C40   H10   S    
C39   H8    S    
N6    Zn1   S    
C58   O25   D    
C42   H13   S    
C29   C30   A    
C25   H2    S    
C24   O16   S    
C23   O5    A    
C49   H26   S    
C21   H3    S    
C48   H25   S    
C30   O19   S    
C47   H23   S    
C17   C18   A    
C50   H28   S    
C31   O7    A    
C46   C47   S    
C42   H14   S    
C20   C52   S    
C27   N6    A    
C49   O18   D    
C44   O14   D    
O26   C59   S    
C22   C24   A    
C3    C4    A    
C16   N2    S    
C20   N3    A    
N4    N5    D    
O1    Zn1   S    
C53   H33   S    
C2    C36   A    
O2    Zn2   S    
C57   H39   S    
C1    C7    S    
C33   C53   S    
C19   O13   S    
C9    C41   S    
C4    C5    A    
C29   C48   S    
C12   O4    A    
C55   H35   S    
C1    O2    A    
C15   C17   A    
C59   H42   S    
C14   O26   S    
C60   H44   S    
C26   C28   A    
C32   C49   S    
C29   N6    A    
C40   H11   S    
C32   C33   A    
C28   C30   A    
C58   H41   S    
O24   C56   S    
C41   H12   S    
C39   H7    S    
C11   C13   A    
C43   H17   S    
C23   O6    A    
C15   C58   S    
C51   H30   S    
C27   H1    S    
C16   C19   A    
C47   H22   S    
C54   O22   D    
C2    C3    A    
C50   C51   S    
O5    Zn1   S    
C31   O8    A    
C11   H4    S    
C42   C43   S    
C52   O20   D    
C37   O9    D    
C10   C11   A    
O11   C39   S    
N3    Zn2   S    
C7    C13   A    
C20   C21   A    
C44   H18   S    
C50   H27   S    
C14   C15   A    
C46   H20   S    
O6    Zn2   S    
C53   O21   D    
C51   H31   S    
