data_mof_unit_9702.cif
_audit_creation_date              2012-12-10T17:21:11-0500
_audit_creation_method            fapswitch 2.2
_symmetry_space_group_name_H-M    P1
_symmetry_Int_Tables_number       1
_space_group_crystal_system       triclinic
_cell_length_a                    10.15578
_cell_length_b                    10.665975
_cell_length_c                    10.841578
_cell_angle_alpha                 91.661552
_cell_angle_beta                  95.021725
_cell_angle_gamma                 80.803951
_cell_volume                      1154.69560612

loop_
_atom_site_label
_atom_site_type_symbol
_atom_type_description
_atom_site_fract_x
_atom_site_fract_y
_atom_site_fract_z
_atom_type_partial_charge
C1    C     C_R   0.444377 0.505505 0.267415 0.946178
C2    C     C_3   0.502452 0.877685 0.510581 -0.072179
C3    C     C_3   0.397868 0.948082 0.595675 -0.344688
C4    C     C_3   0.469327 0.925897 0.375566 0.013588
C5    C     C_2   0.412961 0.494303 0.135827 -0.265073
C6    C     C_2   0.512470 0.452989 0.065053 -0.206830
C7    C     C_2   0.582982 0.467294 0.863566 -0.375944
C8    C     C_2   0.487757 0.440780 0.932970 0.300505
C9    C     C_2   0.075012 0.482564 0.498020 0.028539
C10   C     C_2   0.928736 0.502525 0.516803 0.040550
C11   C     C_R   0.501277 0.257571 0.502351 0.899228
C12   C     C_R   0.554860 0.484959 0.732120 0.990070
C13   C     C_R   0.501831 0.741594 0.508252 0.943285
C14   C     C_3   0.648179 0.049133 0.549680 0.110593
C15   C     C_3   0.644302 0.905592 0.560133 0.058825
C16   C     C_3   0.409077 0.090016 0.602900 -0.402262
C17   C     C_3   0.449916 0.072069 0.375966 -0.256654
C18   C     C_3   0.504596 0.120708 0.506142 -0.061787
H1    H     H_    0.306657 0.145139 0.585682 0.217211
H2    H     H_    0.294811 0.936796 0.558123 0.246306
H3    H     H_    0.616101 0.433800 0.103719 0.199883
H4    H     H_    0.679084 0.486171 0.905981 0.165633
H5    H     H_    0.309607 0.517080 0.097823 0.214394
H6    H     H_    0.891345 0.564202 0.591324 0.180459
H7    H     H_    0.116267 0.405771 0.438319 0.158777
H8    H     H_    0.719158 0.057447 0.480691 0.123622
H9    H     H_    0.720467 0.855111 0.500406 0.141019
H10   H     H_    0.446792 0.115752 0.698214 0.225986
H11   H     H_    0.412876 0.907936 0.690316 0.217670
H12   H     H_    0.340041 0.106713 0.371797 0.204761
H13   H     H_    0.555067 0.886530 0.321048 0.151107
N1    N     N_2   0.157300 0.551950 0.551120 0.012775
N2    N     N_2   0.842730 0.448000 0.448950 -0.002311
O1    O     O_R   0.568940 0.489540 0.307530 -0.590523
O2    O     O_R   0.348880 0.522880 0.340350 -0.599780
O3    O     O_R   0.610030 0.298130 0.483570 -0.593016
O4    O     O_R   0.389960 0.331470 0.516390 -0.640412
O5    O     O_R   0.651120 0.477120 0.659650 -0.599992
O6    O     O_R   0.431060 0.510460 0.692470 -0.552104
O7    O     O_R   0.610040 0.668530 0.483610 -0.634419
O8    O     O_R   0.389970 0.701870 0.516430 -0.560960
Zn1   Zn    Zn3+2 0.646940 0.477740 0.478080 1.045285
Zn2   Zn    Zn3+2 0.353060 0.522260 0.521920 1.072939
Br1   Br    Br    0.731399 0.126817 0.697270 -0.450053
Br2   Br    Br    0.311246 0.866514 0.289569 -0.493111
Br3   Br    Br    0.319594 0.387274 0.869383 -0.483739
Br4   Br    Br    0.893552 0.344531 0.311400 -0.484487
Br5   Br    Br    0.097634 0.693827 0.651467 -0.328426
Br6   Br    Br    0.698587 0.834049 0.725821 -0.434381
C19   C     C_R   0.493386 0.116813 0.254603 0.052349
C20   C     C_R   0.403364 0.114203 0.148000 -0.074233
C21   C     C_R   0.445190 0.122563 0.029854 -0.073301
C22   C     C_R   0.575932 0.139709 0.015642 -0.084046
C23   C     C_R   0.664658 0.149747 0.119550 -0.100367
C24   C     C_R   0.624300 0.138106 0.238125 -0.121240
H14   H     H_    0.301425 0.099477 0.155602 0.184382
H15   H     H_    0.376177 0.114753 0.949126 0.175594
H16   H     H_    0.607602 0.147481 0.924209 0.196679
H17   H     H_    0.765653 0.165078 0.108098 0.192512
H18   H     H_    0.697534 0.145393 0.313771 0.175615

loop_
_geom_bond_atom_site_label_1
_geom_bond_atom_site_label_2
_ccdc_geom_bond_type
C17   C19   S    
C16   H10   S    
C2    C4    S    
C22   H16   S    
C11   C18   S    
O4    Zn2   S    
C17   H12   S    
C7    H4    S    
O2    Zn2   S    
C9    C10   S    
C14   C18   S    
O3    Zn1   S    
C19   C24   A    
O1    Zn1   S    
C17   C18   S    
C23   H17   S    
C12   O6    A    
O7    Zn1   S    
C19   C20   A    
C9    H7    S    
C3    H2    S    
C16   C18   S    
C24   H18   S    
C14   H8    S    
C2    C15   S    
N1    Br5   S    
C3    H11   S    
C5    C6    D    
C16   H1    S    
C1    C5    S    
C4    C17   S    
C13   O8    A    
C11   O3    A    
N1    Zn2   S    
C1    O1    A    
O5    Zn1   S    
C10   N2    D    
C2    C3    S    
C4    Br2   S    
C15   Br6   S    
C12   O5    A    
C7    C12   S    
N2    Br4   S    
C8    Br3   S    
C4    H13   S    
C21   H15   S    
N2    Zn1   S    
C20   C21   A    
C7    C8    D    
C21   C22   A    
C1    O2    A    
C14   Br1   S    
C20   H14   S    
O6    Zn2   S    
C11   O4    A    
C2    C13   S    
C23   C24   A    
C13   O7    A    
C6    C8    S    
C9    N1    D    
C10   H6    S    
C14   C15   S    
C6    H3    S    
C15   H9    S    
C3    C16   S    
O8    Zn2   S    
C22   C23   A    
C5    H5    S    
