data_mof_unit_46936.cif
_audit_creation_date              2013-03-05T15:45:33-0500
_audit_creation_method            fapswitch 2.2
_symmetry_space_group_name_H-M    P1
_symmetry_Int_Tables_number       1
_space_group_crystal_system       triclinic
_cell_length_a                    27.729361
_cell_length_b                    10.5136
_cell_length_c                    9.98828
_cell_angle_alpha                 90.469464
_cell_angle_beta                  89.91111
_cell_angle_gamma                 90.036134
_cell_volume                      2911.8354946

loop_
_atom_site_label
_atom_site_type_symbol
_atom_site_description
_atom_site_fract_x
_atom_site_fract_y
_atom_site_fract_z
_atom_type_partial_charge
O1    O     O_R   0.499990 0.319060 0.613040 -0.611297
O2    O     O_R   0.500010 0.319100 0.386900 -0.606129
C1    C     C_R   0.500101 0.261170 0.499144 0.951891
O3    O     O_R   0.428750 0.500000 0.613050 -0.619168
O4    O     O_R   0.428760 0.500040 0.386920 -0.625235
C2    C     C_R   0.406020 0.501161 0.500157 0.863716
Zn1   Zn    Zn3+2 0.499990 0.499970 0.650990 0.938962
Zn2   Zn    Zn3+2 0.500010 0.500030 0.349010 0.929657
O5    O     O_R   0.499990 0.680900 0.613100 -0.614938
O6    O     O_R   0.500010 0.680940 0.386960 -0.632406
O7    O     O_R   0.571240 0.499960 0.613080 -0.609419
O8    O     O_R   0.571250 0.500000 0.386950 -0.609422
C3    C     C_R   0.492398 0.736896 0.500224 0.894111
C4    C     C_R   0.594008 0.499933 0.499904 0.883150
C5    C     C_R   0.179185 0.394371 0.531227 0.481385
O9    O     O_2   0.206836 0.291965 0.556194 -0.592635
N1    N     N_R   0.201685 0.506237 0.501949 -0.349203
C6    C     C_R   0.177003 0.613537 0.471005 0.483350
C7    C     C_R   0.277799 0.484722 0.384136 -0.123232
C8    C     C_R   0.327728 0.482533 0.382717 -0.225571
C9    C     C_R   0.328642 0.533606 0.620381 -0.215106
C10   C     C_R   0.278067 0.536889 0.623184 0.206982
C11   C     C_R   0.253070 0.510588 0.503191 0.281394
C12   C     C_R   0.101927 0.499130 0.502276 -0.066667
C13   C     C_R   0.128089 0.387074 0.534397 -0.070278
C14   C     C_R   0.102341 0.274380 0.569728 0.105553
C15   C     C_R   0.126838 0.612308 0.470382 -0.005920
C16   C     C_R   0.353394 0.505556 0.500989 -0.095534
H1    H     H_    0.349164 0.553144 0.710098 0.177303
C17   C     C_R   0.646705 0.499316 0.499512 -0.049014
C18   C     C_R   0.974640 0.382542 0.512903 0.055055
C19   C     C_R   0.974430 0.615310 0.485824 0.045241
C20   C     C_R   0.949275 0.498747 0.499059 0.074683
C21   C     C_R   0.948001 0.267631 0.512642 -0.224132
C22   C     C_R   0.897995 0.268017 0.509277 -0.135324
C23   C     C_R   0.872753 0.382669 0.504488 -0.021863
C24   C     C_R   0.898239 0.498388 0.498328 -0.054642
C25   C     C_R   0.872605 0.613774 0.491433 -0.021554
C26   C     C_R   0.822192 0.611250 0.491722 0.504510
N2    N     N_R   0.798400 0.497789 0.498082 -0.359774
C27   C     C_R   0.822323 0.384581 0.504097 0.504998
C28   C     C_R   0.722256 0.490682 0.619946 -0.103549
C29   C     C_R   0.672156 0.491672 0.620666 -0.210916
C30   C     C_R   0.672040 0.506081 0.377862 -0.209946
C31   C     C_R   0.722132 0.505405 0.377590 -0.102577
C32   C     C_R   0.747116 0.497643 0.498518 0.326660
O10   O     O_2   0.797288 0.274575 0.509569 -0.547948
C33   C     C_R   0.025606 0.384781 0.525038 0.005267
C34   C     C_R   0.050850 0.499092 0.501410 0.067790
C35   C     C_R   0.025341 0.613853 0.476560 0.055133
C36   C     C_R   0.051769 0.276395 0.563585 -0.213939
H2    H     H_    0.653450 0.486268 0.715717 0.165236
H3    H     H_    0.741834 0.484892 0.713429 0.136213
H4    H     H_    0.879189 0.177648 0.510233 0.189895
H5    H     H_    0.964774 0.175144 0.510860 0.135439
H6    H     H_    0.032538 0.193367 0.594579 0.139000
O11   O     O_2   0.201246 0.721197 0.441397 -0.580880
C37   C     C_R   0.101414 0.722226 0.437732 -0.157069
H7    H     H_    0.346175 0.461115 0.289566 0.164378
H8    H     H_    0.258055 0.464906 0.292828 0.142296
H9    H     H_    0.119943 0.808790 0.409615 0.190160
C38   C     C_R   0.947673 0.729786 0.483180 -0.221627
C39   C     C_R   0.897674 0.728741 0.485723 -0.135241
O12   O     O_2   0.797032 0.720958 0.485970 -0.548508
C40   C     C_R   0.051638 0.723407 0.441224 -0.222400
H10   H     H_    0.964364 0.822393 0.482903 0.136377
H11   H     H_    0.653249 0.512174 0.283154 0.163836
H12   H     H_    0.878740 0.818818 0.483205 0.190092
H13   H     H_    0.741610 0.510885 0.283749 0.136088
H14   H     H_    0.034734 0.811040 0.411637 0.138433
C41   C     C_2   0.466616 0.935952 0.390686 0.097177
C42   C     C_2   0.469390 0.862315 0.502278 -0.110143
C43   C     C_2   0.464847 0.072998 0.411618 -0.165724
C44   C     C_2   0.496917 0.126405 0.494296 -0.375286
H15   H     H_    0.441297 0.130992 0.350210 0.153672
H16   H     H_    0.521205 0.070858 0.556010 0.147651
C45   C     C_2   0.521143 0.587227 0.925513 -0.138486
N3    N     N_2   0.500520 0.501330 0.852150 -0.192047
H17   H     H_    0.538344 0.666889 0.876281 0.162697
H18   H     H_    0.486979 0.421621 0.897361 0.163992
C46   C     C_2   0.524041 0.581916 0.075658 -0.132147
N4    N     N_2   0.500540 0.501360 0.147810 -0.193690
H19   H     H_    0.546594 0.651695 0.125962 0.158650
H20   H     H_    0.476673 0.440745 0.101633 0.158960
C47   C     C_3   0.475025 0.886746 0.247987 -0.363957
C48   C     C_3   0.462760 0.981816 0.136859 -0.375455
C49   C     C_3   0.470234 0.922620 0.998394 -0.897441
H21   H     H_    0.508458 0.893666 0.984831 0.259624
H22   H     H_    0.446599 0.838122 0.985013 0.264421
H23   H     H_    0.461062 0.993520 0.920760 0.253008
H24   H     H_    0.424455 0.011827 0.146272 0.223017
H25   H     H_    0.486315 0.067113 0.145452 0.236934
H26   H     H_    0.513578 0.859720 0.236765 0.212820
H27   H     H_    0.451753 0.801856 0.231545 0.223857
C50   C     C_3   0.442299 0.900383 0.630797 -0.440832
C51   C     C_3   0.387657 0.888913 0.609898 -0.314028
C52   C     C_3   0.360077 0.916292 0.739278 -0.864687
H28   H     H_    0.370499 0.847342 0.817763 0.252371
H29   H     H_    0.367787 0.014414 0.775410 0.265670
H30   H     H_    0.320744 0.907166 0.720750 0.265840
H31   H     H_    0.375745 0.957186 0.532276 0.237047
H32   H     H_    0.378677 0.791073 0.574932 0.220855
H33   H     H_    0.452340 0.838250 0.715532 0.227902
H34   H     H_    0.451130 0.997842 0.665442 0.217662
C53   C     C_3   0.249482 0.567006 0.749876 -0.397933
C54   C     C_3   0.279282 0.596091 0.875200 -0.893213
H35   H     H_    0.301747 0.512765 0.902290 0.259737
H36   H     H_    0.302479 0.680733 0.859132 0.262136
H37   H     H_    0.254655 0.617106 0.960324 0.262946
H38   H     H_    0.226092 0.650672 0.730586 0.219829
H39   H     H_    0.225643 0.484952 0.772553 0.220938
C55   C     C_3   0.128425 0.153474 0.615108 -0.324331
C56   C     C_3   0.097119 0.040223 0.659358 -0.443697
C57   C     C_3   0.128384 0.930085 0.707411 -0.824923
H40   H     H_    0.154035 0.899942 0.627812 0.284546
H41   H     H_    0.149059 0.958935 0.797870 0.262130
H42   H     H_    0.105077 0.847872 0.733197 0.254884
H43   H     H_    0.073111 0.069607 0.743316 0.234875
H44   H     H_    0.074904 0.005830 0.573807 0.224050
H45   H     H_    0.151188 0.118787 0.530716 0.248275
H46   H     H_    0.151672 0.179274 0.701794 0.238673

loop_
_geom_bond_atom_site_label_1
_geom_bond_atom_site_label_2
_geom_bond_distance
_ccdc_geom_bond_type
C53   H38   1.111496 S    
C51   H32   1.111831 S    
C50   C51   1.534365 S    
C43   C44   1.334959 D    
C7    C8    1.384754 A    
C12   C15   1.413873 A    
C49   H21   1.110743 S    
C57   H40   1.110346 S    
C47   C48   1.538357 S    
C50   H34   1.106223 S    
Zn1   O7    2.011098 S    
C26   O12   1.350062 S    
N1    C11   1.425645 S    
C44   H16   1.087330 S    
Zn2   N4    2.009837 S    
C23   C24   1.408326 A    
C46   N4    1.291976 D    
C25   C39   1.395503 A    
C48   H24   1.111865 S    
C28   H3    1.082988 S    
O4    C2    1.294052 A    
O7    C4    1.293927 A    
N3    H18   1.025907 S    
C29   H2    1.083037 S    
C5    C13   1.419197 A    
C54   H35   1.110792 S    
C40   H14   1.077654 S    
C5    N1    1.364619 A    
C21   C22   1.387114 A    
C28   C32   1.396567 A    
C1    C44   1.419995 S    
O5    C3    1.293749 A    
C6    O11   1.350727 S    
C46   H19   1.084482 S    
C56   H44   1.112060 S    
C42   C50   1.536655 S    
C47   H26   1.111605 S    
C33   C36   1.407891 A    
C2    C16   1.460052 S    
C22   C23   1.395464 A    
C18   C20   1.417952 A    
C45   N3    1.292036 D    
C37   H9    1.083639 S    
C53   H39   1.111091 S    
C21   H5    1.078149 S    
C41   C47   1.529898 S    
C51   H31   1.111594 S    
C22   H4    1.083605 S    
C43   H15   1.087332 S    
C17   C30   1.404896 A    
C23   C27   1.398572 A    
C4    C17   1.461280 S    
O3    Zn1   2.012037 S    
C55   C56   1.540387 S    
C52   H29   1.110874 S    
C50   H33   1.109314 S    
C52   H28   1.110783 S    
C45   H17   1.084567 S    
C38   H10   1.077798 S    
C31   H13   1.082985 S    
C12   C13   1.423087 A    
O3    C2    1.292805 A    
C26   N2    1.364689 A    
C55   H45   1.111552 S    
C48   C49   1.525850 S    
C8    C16   1.399422 A    
C13   C14   1.429382 A    
C31   C32   1.396364 A    
C9    H1    1.080506 S    
O6    C3    1.288039 A    
C20   C24   1.415245 A    
O1    C1    1.285800 A    
C7    C11   1.396663 A    
C24   C25   1.408639 A    
C47   H27   1.112274 S    
C37   C40   1.380710 A    
C45   C46   1.503466 S    
Zn2   O8    2.012040 S    
C51   C52   1.526060 S    
C38   C39   1.386675 A    
N1    C6    1.357911 A    
C27   O10   1.349981 S    
C18   C21   1.415651 A    
C8    H7    1.083170 S    
C19   C35   1.414705 A    
Zn1   N3    2.009253 S    
N2    C27   1.364761 A    
C9    C16   1.404323 A    
O8    C4    1.293571 A    
N4    H20   1.025887 S    
C18   C33   1.418797 A    
C49   H22   1.110939 S    
C17   C29   1.404719 A    
C28   C29   1.389274 A    
N2    C32   1.422081 S    
C14   C55   1.534956 S    
C52   H30   1.110507 S    
C30   C31   1.389035 A    
C41   C43   1.455083 S    
C56   C57   1.527911 S    
C12   C34   1.416369 A    
Zn1   O5    1.942547 S    
C39   H12   1.083605 S    
C33   C34   1.411791 A    
O1    Zn1   1.936371 S    
O2    Zn2   1.942548 S    
C6    C15   1.391116 A    
C36   H6    1.070295 S    
C15   C37   1.395262 A    
O4    Zn2   2.011095 S    
C57   H41   1.110816 S    
C3    C42   1.465180 S    
C7    H8    1.083156 S    
C10   C53   1.523310 S    
C53   C54   1.529659 S    
C19   C20   1.416737 A    
O2    C1    1.280262 A    
C19   C38   1.414734 A    
C55   H46   1.111964 S    
C48   H25   1.111915 S    
C14   C36   1.403939 A    
C25   C26   1.398140 A    
C54   H36   1.110289 S    
C35   C40   1.409883 A    
C57   H42   1.110671 S    
C56   H43   1.111817 S    
C41   C42   1.364598 D    
Zn2   O6    1.936370 S    
C34   C35   1.422761 A    
C49   H23   1.109927 S    
C10   C11   1.410765 A    
C30   H11   1.083071 S    
C9    C10   1.403084 A    
C5    O9    1.347329 S    
C54   H37   1.110566 S    
