data_mof_unit_18143.cif
_audit_creation_date              2012-12-10T17:46:28-0500
_audit_creation_method            fapswitch 2.2
_symmetry_space_group_name_H-M    P1
_symmetry_Int_Tables_number       1
_space_group_crystal_system       triclinic
_cell_length_a                    20.793793
_cell_length_b                    21.131699
_cell_length_c                    14.737611
_cell_angle_alpha                 89.96991
_cell_angle_beta                  127.655447
_cell_angle_gamma                 89.915267
_cell_volume                      5126.89041027

loop_
_atom_site_label
_atom_site_type_symbol
_atom_type_description
_atom_site_fract_x
_atom_site_fract_y
_atom_site_fract_z
_atom_type_partial_charge
C1    C     C_R   0.603901 0.914553 0.632800 0.802444
C2    C     C_R   0.668131 0.226997 0.074326 -0.243720
C3    C     C_R   0.747527 0.792699 0.992951 0.053851
C4    C     C_R   0.239843 0.710905 0.987043 0.069672
C5    C     C_R   0.760875 0.285921 0.016992 0.064633
C6    C     C_R   0.799464 0.741151 0.059560 0.064453
C7    C     C_R   0.246562 0.292523 0.992615 0.051537
C8    C     C_R   0.354384 0.777724 0.042825 -0.218527
C9    C     C_R   0.662203 0.206551 0.980135 -0.240450
C10   C     C_R   0.708035 0.825463 0.030232 -0.214236
C11   C     C_R   0.351427 0.217331 0.036679 -0.241932
C12   C     C_R   0.799287 0.319234 0.978559 -0.211524
C13   C     C_R   0.713891 0.804911 0.124474 -0.199765
C14   C     C_R   0.191602 0.684155 0.015147 -0.241762
C15   C     C_R   0.205023 0.323997 0.027883 -0.219969
C16   C     C_R   0.849730 0.715535 0.034025 -0.240918
C17   C     C_3   0.248007 0.085360 0.801879 0.037507
C18   C     C_3   0.156253 0.094298 0.731846 -0.319108
C19   C     C_3   0.134604 0.162505 0.737322 -0.900015
C20   C     C_3   0.767231 0.042791 0.184489 0.044529
C21   C     C_3   0.808810 0.020030 0.133376 -0.329935
C22   C     C_3   0.841893 0.075455 0.106828 -0.908518
C23   C     C_3   0.747562 0.583931 0.801983 0.040293
C24   C     C_R   0.346463 0.238546 0.943525 -0.245716
C25   C     C_3   0.655793 0.592548 0.732372 -0.320574
C26   C     C_3   0.633837 0.660674 0.737731 -0.900686
C27   C     C_3   0.271257 0.522520 0.181511 0.045064
C28   C     C_3   0.307960 0.491175 0.128933 -0.329113
C29   C     C_3   0.345079 0.540110 0.097137 -0.905195
C30   C     C_R   0.792356 0.299550 0.883244 -0.211455
C31   C     C_R   0.195805 0.706113 0.107303 -0.242353
C32   C     C_R   0.210695 0.303245 0.121856 -0.189050
C33   C     C_R   0.844268 0.736372 0.940291 -0.244711
C34   C     C_R   0.322944 0.009221 0.666717 -0.287771
C35   C     C_R   0.677461 0.995771 0.333520 -0.288346
C36   C     C_R   0.822886 0.508972 0.666649 -0.292402
C37   C     C_R   0.397749 0.086789 0.369213 0.803888
C38   C     C_R   0.177008 0.490698 0.333199 -0.287025
C39   C     C_R   0.352392 0.004869 0.603745 0.047993
C40   C     C_R   0.647758 0.997270 0.396364 0.045055
C41   C     C_R   0.852394 0.504974 0.603717 0.047146
C42   C     C_R   0.147556 0.494717 0.396197 0.045170
C43   C     C_R   0.487595 0.998241 0.774808 0.031493
C44   C     C_R   0.512423 0.001900 0.225169 0.028284
C45   C     C_R   0.987505 0.497557 0.774796 0.029730
C46   C     C_R   0.012460 0.502457 0.225211 0.029449
C47   C     C_R   0.461504 0.001723 0.844728 -0.059645
C48   C     C_R   0.397641 0.913373 0.369089 0.804450
C49   C     C_R   0.538718 0.001119 0.155393 -0.062565
C50   C     C_R   0.961277 0.500166 0.844611 -0.059198
C51   C     C_R   0.038535 0.499261 0.155260 -0.061713
C52   C     C_R   0.376901 0.008183 0.787278 0.064598
C53   C     C_R   0.623600 0.997324 0.212953 0.067542
C54   C     C_R   0.876753 0.507251 0.787189 0.064040
C55   C     C_R   0.123145 0.492437 0.212623 0.070584
C56   C     C_R   0.515817 0.999981 0.968280 0.010091
C57   C     C_R   0.484409 0.003843 0.031899 0.006873
C58   C     C_R   0.015432 0.497030 0.968080 0.013460
C59   C     C_R   0.602684 0.086275 0.631282 0.803142
C60   C     C_R   0.984209 0.502108 0.031788 0.009781
C61   C     C_R   0.399816 0.010856 0.970035 -0.308854
C62   C     C_R   0.600509 0.994472 0.030186 -0.323066
C63   C     C_R   0.899684 0.509768 0.969957 -0.320159
C64   C     C_R   0.099628 0.487898 0.029653 -0.327266
C65   C     C_R   0.347021 0.014627 0.850385 0.435138
C66   C     C_R   0.654048 0.995545 0.150159 0.434180
C67   C     C_R   0.846867 0.513528 0.850306 0.429654
C68   C     C_R   0.153381 0.487397 0.149772 0.432336
C69   C     C_R   0.657189 0.138661 0.700188 -0.048078
C70   C     C_R   0.103965 0.414611 0.632888 0.802925
C71   C     C_R   0.343245 0.860683 0.300424 -0.056554
C72   C     C_R   0.344876 0.140644 0.302143 -0.052864
C73   C     C_R   0.667094 0.868743 0.712087 -0.051908
C74   C     C_R   0.167227 0.630617 0.712807 -0.050367
C75   C     C_R   0.836270 0.366233 0.292161 -0.054888
C76   C     C_R   0.844961 0.640717 0.302152 -0.052814
C77   C     C_R   0.167431 0.369086 0.712619 -0.051292
C78   C     C_R   0.742900 0.225800 0.728705 -0.193540
C79   C     C_R   0.246559 0.780437 0.261637 -0.200318
C80   C     C_R   0.257900 0.227261 0.273262 -0.192017
C81   C     C_R   0.897710 0.586773 0.369158 0.803439
C82   C     C_R   0.778417 0.799239 0.768143 -0.213559
C83   C     C_R   0.286712 0.692178 0.780279 -0.192497
C84   C     C_R   0.730142 0.292776 0.242040 -0.202708
C85   C     C_R   0.760081 0.728585 0.275141 -0.193544
C86   C     C_R   0.280621 0.301207 0.771148 -0.213345
C87   C     C_R   0.697112 0.172836 0.666568 -0.191732
C88   C     C_R   0.295348 0.831883 0.325920 -0.192070
C89   C     C_R   0.302696 0.173377 0.333736 -0.191454
C90   C     C_R   0.718948 0.842634 0.691311 -0.196842
C91   C     C_R   0.225564 0.650929 0.700415 -0.191255
C92   C     C_R   0.896821 0.414085 0.368126 0.805144
C93   C     C_R   0.786195 0.338867 0.315003 -0.193844
C94   C     C_R   0.804056 0.674290 0.334971 -0.192223
C95   C     C_R   0.220617 0.344048 0.693478 -0.197340
C96   C     C_R   0.664724 0.157000 0.797156 -0.257198
C97   C     C_R   0.342289 0.837345 0.210984 -0.252008
C98   C     C_R   0.341400 0.161961 0.209555 -0.250532
C99   C     C_R   0.676496 0.852242 0.811368 -0.259620
C100  C     C_R   0.170952 0.651512 0.805790 -0.261620
C101  C     C_R   0.828627 0.348157 0.194944 -0.257551
C102  C     C_R   0.840687 0.661435 0.208628 -0.249620
C103  C     C_R   0.103813 0.585404 0.632749 0.804586
C104  C     C_R   0.175895 0.351977 0.810968 -0.259894
C105  C     C_R   0.706754 0.212067 0.857564 0.085659
C106  C     C_R   0.296383 0.783938 0.148162 0.090088
C107  C     C_R   0.300089 0.217788 0.150920 0.089437
C108  C     C_R   0.737470 0.810052 0.891781 0.091631
C109  C     C_R   0.233740 0.691057 0.889854 0.080412
C110  C     C_R   0.770569 0.303605 0.117756 0.091958
C111  C     C_R   0.800298 0.717659 0.150656 0.090072
C112  C     C_R   0.237339 0.310363 0.892231 0.091142
C113  C     C_R   0.747686 0.245843 0.823391 0.162407
C114  C     C_R   0.351537 0.754738 0.952319 -0.219249
C115  C     C_R   0.246185 0.756617 0.172501 0.169862
C116  C     C_R   0.256091 0.249600 0.182063 0.151626
C117  C     C_R   0.787236 0.782042 0.867113 0.171261
C118  C     C_R   0.290911 0.712714 0.874262 0.168372
C119  C     C_R   0.722651 0.274419 0.144548 0.171915
C120  C     C_R   0.757869 0.750510 0.183382 0.153877
C121  C     C_R   0.288635 0.283516 0.869332 0.171868
C122  C     C_R   0.709816 0.233949 0.951365 0.064680
C123  C     C_R   0.297222 0.758312 0.059716 0.068350
C124  C     C_R   0.299686 0.241764 0.060458 0.065018
Cu1   Cu    Cu3+1 0.526640 1.000000 0.436960 0.933082
Cu2   Cu    Cu3+1 0.473360 0.000000 0.563040 0.933945
Cu3   Cu    Cu3+1 0.026640 0.500000 0.436960 0.934590
Cu4   Cu    Cu3+1 0.973360 0.500000 0.563040 0.933076
H1    H     H_    0.396471 0.770768 0.942454 0.145896
H2    H     H_    0.627826 0.989560 0.987903 0.135912
H3    H     H_    0.871872 0.513169 0.011881 0.141373
H4    H     H_    0.126007 0.480153 0.986670 0.134534
H5    H     H_    0.376493 0.862694 0.189992 0.153473
H6    H     H_    0.637645 0.126935 0.824328 0.146427
H7    H     H_    0.633651 0.871366 0.822372 0.149839
H8    H     H_    0.370460 0.133451 0.183466 0.144590
H9    H     H_    0.870504 0.368252 0.183052 0.152941
H10   H     H_    0.122865 0.637365 0.809369 0.155604
H11   H     H_    0.132016 0.370239 0.820566 0.150073
H12   H     H_    0.630520 0.204801 0.093214 0.140981
H13   H     H_    0.868595 0.632235 0.181548 0.143521
H14   H     H_    0.295452 0.849109 0.395208 0.157809
H15   H     H_    0.692055 0.159226 0.591599 0.154980
H16   H     H_    0.712940 0.855106 0.615158 0.155820
H17   H     H_    0.304850 0.157716 0.405538 0.153699
H18   H     H_    0.791131 0.352345 0.389930 0.156516
H19   H     H_    0.223934 0.635054 0.629175 0.153435
H20   H     H_    0.215357 0.357018 0.618080 0.155701
H21   H     H_    0.806788 0.659073 0.407447 0.153480
H22   H     H_    0.330782 0.708036 0.768619 0.134480
H23   H     H_    0.682745 0.831316 0.150306 0.157415
H24   H     H_    0.692981 0.271172 0.262189 0.134530
H25   H     H_    0.728425 0.753811 0.301279 0.134818
H26   H     H_    0.320185 0.281317 0.753806 0.136214
H27   H     H_    0.773546 0.251700 0.701692 0.135115
H28   H     H_    0.209035 0.759275 0.281517 0.135766
H29   H     H_    0.225091 0.251742 0.298251 0.135939
H30   H     H_    0.816836 0.778467 0.749451 0.135741
H31   H     H_    0.403994 0.809256 0.100376 0.145526
H32   H     H_    0.617708 0.170237 0.929785 0.145782
H33   H     H_    0.674009 0.868489 0.990349 0.144359
H34   H     H_    0.386836 0.218348 0.927873 0.139890
H35   H     H_    0.398194 0.182803 0.090357 0.144844
H36   H     H_    0.833206 0.362191 0.017966 0.148602
H37   H     H_    0.151717 0.644525 0.969913 0.139124
H38   H     H_    0.169326 0.366138 0.986565 0.141544
H39   H     H_    0.895706 0.680310 0.086684 0.145190
H40   H     H_    0.449172 0.003306 0.188740 0.121883
H41   H     H_    0.550698 0.995012 0.810974 0.116894
H42   H     H_    0.949367 0.506003 0.188973 0.119376
H43   H     H_    0.050695 0.494832 0.811159 0.118588
H44   H     H_    0.689615 0.995851 0.488999 0.127510
H45   H     H_    0.822565 0.326496 0.856555 0.152499
H46   H     H_    0.310536 0.006457 0.511123 0.126942
H47   H     H_    0.189387 0.492723 0.488802 0.125517
H48   H     H_    0.810591 0.506966 0.511116 0.127327
H49   H     H_    0.258022 0.013944 0.620676 0.178616
H50   H     H_    0.742579 0.993312 0.379728 0.180069
H51   H     H_    0.757994 0.513973 0.620602 0.178463
H52   H     H_    0.241940 0.486014 0.379323 0.179883
H53   H     H_    0.270610 0.117504 0.766862 0.139235
H54   H     H_    0.276945 0.098396 0.892511 0.152466
H55   H     H_    0.126415 0.081603 0.640982 0.218771
H56   H     H_    0.158200 0.684060 0.126325 0.142327
H57   H     H_    0.132820 0.062344 0.765522 0.228036
H58   H     H_    0.162966 0.175940 0.827345 0.264980
H59   H     H_    0.067688 0.167256 0.686215 0.252396
H60   H     H_    0.155698 0.195185 0.701427 0.264860
H61   H     H_    0.813085 0.066687 0.267346 0.161042
H62   H     H_    0.720561 0.079396 0.127038 0.134570
H63   H     H_    0.859659 0.987631 0.195024 0.232259
H64   H     H_    0.764807 0.993395 0.053049 0.210732
H65   H     H_    0.791576 0.107304 0.042532 0.263127
H66   H     H_    0.872498 0.057370 0.071268 0.258527
H67   H     H_    0.178094 0.328768 0.146227 0.161416
H68   H     H_    0.886588 0.102689 0.186011 0.257194
H69   H     H_    0.769824 0.616269 0.766740 0.139757
H70   H     H_    0.776620 0.596889 0.892679 0.152157
H71   H     H_    0.625780 0.579771 0.641490 0.218763
H72   H     H_    0.632752 0.560488 0.766472 0.227473
H73   H     H_    0.662514 0.674260 0.827794 0.264561
H74   H     H_    0.566932 0.665150 0.687142 0.252393
H75   H     H_    0.654367 0.693422 0.701164 0.265090
H76   H     H_    0.320855 0.545407 0.263350 0.161922
H77   H     H_    0.229097 0.561279 0.124275 0.134889
H78   H     H_    0.883483 0.715263 0.923271 0.140522
H79   H     H_    0.355731 0.456974 0.191313 0.232875
H80   H     H_    0.260321 0.464693 0.050578 0.212257
H81   H     H_    0.297360 0.572878 0.030783 0.262714
H82   H     H_    0.372928 0.515774 0.062037 0.259163
H83   H     H_    0.392796 0.567690 0.173833 0.256970
H84   H     H_    0.372064 0.014404 0.012039 0.142538
N1    N     N_R   0.433280 1.000000 0.657760 -0.173973
N2    N     N_R   0.566720 0.000000 0.342240 -0.174374
N3    N     N_R   0.933280 0.500000 0.657760 -0.173884
N4    N     N_R   0.066720 0.500000 0.342240 -0.173399
O1    O     O_R   0.600040 0.935040 0.546740 -0.587170
O2    O     O_R   0.444990 0.064930 0.346780 -0.589558
O3    O     O_R   0.444990 0.935070 0.346780 -0.587956
O4    O     O_R   0.555010 0.064930 0.653220 -0.587974
O5    O     O_R   0.055010 0.435070 0.653220 -0.589877
O6    O     O_R   0.944990 0.564930 0.346780 -0.589280
O7    O     O_R   0.944990 0.435070 0.346780 -0.587263
O8    O     O_R   0.055010 0.564930 0.653220 -0.589318
O9    O     O_3   0.264466 0.021462 0.794381 -0.612627
O10   O     O_3   0.737035 0.989909 0.207150 -0.620151
O11   O     O_3   0.764282 0.520151 0.794297 -0.614734
O12   O     O_R   0.399960 0.064960 0.453260 -0.587727
O13   O     O_3   0.235581 0.475715 0.206956 -0.621279
O14   O     O_R   0.399960 0.935040 0.453260 -0.584368
O15   O     O_R   0.600040 0.064960 0.546740 -0.586948
O16   O     O_R   0.100040 0.435040 0.546740 -0.587753
O17   O     O_R   0.899960 0.564960 0.453260 -0.588144
O18   O     O_R   0.899960 0.435040 0.453260 -0.584920
O19   O     O_R   0.100040 0.564960 0.546740 -0.585348
O20   O     O_R   0.555010 0.935070 0.653220 -0.589905

loop_
_geom_bond_atom_site_label_1
_geom_bond_atom_site_label_2
_ccdc_geom_bond_type
C44   C49   A    
C78   C87   A    
C96   C105  A    
C82   C117  A    
C33   C117  A    
C79   C115  A    
C31   H56   S    
C35   C53   A    
C6    C111  A    
C62   H2    S    
C11   C124  A    
C17   H53   S    
C97   H5    S    
C7    C124  A    
C4    C109  A    
C3    C6    A    
C59   O15   A    
Cu4   O8    S    
C91   H19   S    
C55   C68   A    
C36   C41   A    
C49   C57   A    
C29   H82   S    
C72   C98   A    
C7    C112  A    
C94   H21   S    
C89   H17   S    
C81   O6    A    
C71   C97   A    
C23   H70   S    
C50   C54   A    
C60   C63   A    
C44   N2    A    
C64   C68   A    
C83   C118  A    
C105  C113  A    
C28   C29   S    
Cu2   O14   S    
C73   C90   A    
C38   C42   A    
C42   H47   S    
C39   H46   S    
C19   H58   S    
C20   H62   S    
C16   C33   A    
C49   C53   A    
C78   H27   S    
C21   H63   S    
C5    C110  A    
C16   H39   S    
C58   C60   A    
C98   H8    S    
C11   C24   A    
C70   O5    A    
C20   O10   S    
C56   C57   A    
C18   C19   S    
C44   H40   S    
C31   C115  A    
C80   C89   A    
C96   H6    S    
C24   C121  A    
Cu3   O6    S    
C19   H59   S    
C79   H28   S    
C17   O9    S    
C17   H54   S    
C27   O13   S    
C37   O12   A    
C38   C55   A    
C80   C116  A    
C106  C123  A    
C4    C14   A    
C103  O19   A    
C15   H38   S    
C102  H13   S    
C63   H3    S    
Cu2   O20   S    
C14   C31   A    
C30   H45   S    
C51   C55   A    
C69   C87   A    
C103  O8    A    
C8    C114  A    
C83   H22   S    
C48   O14   A    
Cu1   O2    S    
C69   C96   A    
C35   H50   S    
C7    C15   A    
C110  C119  A    
C100  C109  A    
C21   C22   S    
C70   C77   S    
Cu4   O18   S    
C22   H68   S    
C102  C111  A    
C36   H51   S    
C107  C124  A    
C32   H67   S    
C45   H43   S    
C88   H14   S    
C79   C88   A    
Cu2   O4    S    
C109  C118  A    
C29   H83   S    
C58   C64   A    
C63   C67   A    
C33   H78   S    
C38   H52   S    
C39   N1    A    
C65   O9    S    
C27   H76   S    
C50   C58   A    
C64   H4    S    
C15   C32   A    
C26   H73   S    
C42   N4    A    
C13   H23   S    
C5    C12   A    
Cu3   O7    S    
C37   O2    A    
C20   H61   S    
C104  C112  A    
C62   C66   A    
C25   H71   S    
C21   H64   S    
C74   C100  A    
C54   C67   A    
C74   C103  S    
C9    H32   S    
C25   C26   S    
C5    C122  A    
C77   C95   A    
C98   C107  A    
C34   C39   A    
C4    C123  A    
C111  C120  A    
C27   H77   S    
C61   H84   S    
C74   C91   A    
Cu4   O5    S    
C85   C120  A    
C99   C108  A    
Cu2   N1    S    
C61   C65   A    
C19   H60   S    
C12   H36   S    
Cu1   N2    S    
C67   O11   S    
C66   O10   S    
C86   C121  A    
C11   H35   S    
C17   C18   S    
C99   H7    S    
C93   H18   S    
C22   H65   S    
C82   H30   S    
C85   H25   S    
C32   C116  A    
C14   H37   S    
C29   H81   S    
C53   C66   A    
C114  C118  A    
C100  H10   S    
C75   C92   S    
C59   C69   S    
C97   C106  A    
C84   H24   S    
C41   H48   S    
C10   H33   S    
C46   N4    A    
C43   H41   S    
Cu1   Cu2   S    
C28   H80   S    
C114  H1    S    
C81   O17   A    
C78   C113  A    
C48   C71   S    
C9    C122  A    
Cu3   Cu4   S    
C43   N1    A    
Cu1   O3    S    
C40   H44   S    
C13   C120  A    
C68   O13   S    
C75   C93   A    
C75   C101  A    
Cu4   O17   S    
C73   C99   A    
C101  H9    S    
C12   C30   A    
C34   C52   A    
C108  C117  A    
C92   O7    A    
Cu2   O12   S    
C95   H20   S    
Cu1   O15   S    
C10   C13   A    
C76   C81   S    
C34   H49   S    
C23   O11   S    
C2    C119  A    
C8    C123  A    
C57   C61   A    
C47   C52   A    
C51   C60   A    
C76   C94   A    
C3    C108  A    
C83   C91   A    
C23   H69   S    
C18   H57   S    
Cu3   O19   S    
C82   C90   A    
C104  H11   S    
C106  C115  A    
C59   O4    A    
C1    C73   S    
C26   H75   S    
C101  C110  A    
C2    H12   S    
C112  C121  A    
C3    C10   A    
C45   C50   A    
C72   C89   A    
C2    C9    A    
C80   H29   S    
C43   C47   A    
C18   H55   S    
C84   C119  A    
C41   N3    A    
C46   C51   A    
C92   O18   A    
Cu3   O16   S    
C45   N3    A    
C105  C122  A    
C35   C40   A    
C56   C62   A    
C84   C93   A    
C23   C25   S    
C86   H26   S    
Cu3   N4    S    
C70   O16   A    
C107  C116  A    
C36   C54   A    
C86   C95   A    
Cu4   N3    S    
C6    C16   A    
C71   C88   A    
C46   H42   S    
C20   C21   S    
C26   H74   S    
C37   C72   S    
C40   N2    A    
C27   C28   S    
C25   H72   S    
C28   H79   S    
C22   H66   S    
C77   C104  A    
C1    O1    A    
C85   C94   A    
C1    O20   A    
C76   C102  A    
C87   H15   S    
C8    H31   S    
C24   H34   S    
C48   O3    A    
C90   H16   S    
C52   C65   A    
C47   C56   A    
C30   C113  A    
Cu1   O1    S    
