data_mof_unit_17645.cif
_audit_creation_date              2012-12-10T18:56:23-0500
_audit_creation_method            fapswitch 2.2
_symmetry_space_group_name_H-M    P1
_symmetry_Int_Tables_number       1
_space_group_crystal_system       triclinic
_cell_length_a                    10.714325
_cell_length_b                    9.82134
_cell_length_c                    18.855281
_cell_angle_alpha                 90.09778
_cell_angle_beta                  90.109906
_cell_angle_gamma                 89.983317
_cell_volume                      1984.11628352

loop_
_atom_site_label
_atom_site_type_symbol
_atom_type_description
_atom_site_fract_x
_atom_site_fract_y
_atom_site_fract_z
_atom_type_partial_charge
C1    C     C_R   0.872560 0.499974 0.500053 -0.014992
C2    C     C_R   0.127390 0.500035 0.499930 -0.013286
C3    C     C_R   0.629121 0.630923 0.963527 0.116619
C4    C     C_R   0.648986 0.378359 0.036938 0.115373
C5    C     C_R   0.628550 0.629323 0.038445 0.124194
C6    C     C_R   0.649794 0.379904 0.962015 0.122522
C7    C     C_R   0.630332 0.502312 0.073883 -0.071167
C8    C     C_R   0.631611 0.505327 0.926457 -0.068285
C9    C     C_R   0.259801 0.500016 0.499951 0.861115
C10   C     C_R   0.740182 0.499986 0.500045 0.854717
C11   C     C_R   0.500765 0.499878 0.365209 0.843961
C12   C     C_R   0.501138 0.500164 0.634798 0.848456
C13   C     C_R   0.063882 0.379526 0.484112 -0.199519
C14   C     C_R   0.936054 0.620475 0.515887 -0.201727
C15   C     C_R   0.936014 0.379499 0.484173 -0.201513
C16   C     C_R   0.063922 0.620523 0.515788 -0.200339
C17   C     C_R   0.442985 0.468954 0.760077 -0.224184
C18   C     C_R   0.438170 0.497672 0.239481 -0.233841
C19   C     C_R   0.657973 0.501085 0.271923 -0.176273
C20   C     C_R   0.655349 0.531705 0.728676 -0.188669
C21   C     C_R   0.476234 0.471040 0.831358 -0.188361
C22   C     C_R   0.471313 0.497536 0.168253 -0.181417
C23   C     C_R   0.691122 0.500777 0.200808 -0.186365
C24   C     C_R   0.689197 0.531174 0.799748 -0.184754
C25   C     C_R   0.599079 0.503185 0.851141 0.174677
C26   C     C_R   0.597730 0.498217 0.149034 0.168157
C27   C     C_R   0.582180 0.072121 0.541402 -0.072894
C28   C     C_R   0.417826 0.927880 0.458600 -0.072606
C29   C     C_R   0.417824 0.071911 0.458600 -0.071929
C30   C     C_R   0.582178 0.928083 0.541404 -0.071577
C31   C     C_R   0.532400 0.500926 0.709082 0.001564
C32   C     C_R   0.531744 0.499534 0.290998 0.005996
H1    H     H_    0.647792 0.126924 0.574479 0.129034
H2    H     H_    0.352207 0.873081 0.425528 0.126655
H3    H     H_    0.352200 0.126542 0.425531 0.122648
H4    H     H_    0.647787 0.873440 0.574484 0.122831
H5    H     H_    0.112639 0.286023 0.471257 0.151147
H6    H     H_    0.887289 0.713958 0.528775 0.151271
H7    H     H_    0.887216 0.285986 0.471356 0.156444
H8    H     H_    0.112712 0.714053 0.528580 0.156076
H9    H     H_    0.348179 0.444076 0.744768 0.130545
H10   H     H_    0.340574 0.496787 0.254389 0.125303
H11   H     H_    0.730377 0.502679 0.312154 0.127593
H12   H     H_    0.724932 0.554976 0.688835 0.126062
H13   H     H_    0.406760 0.447951 0.871242 0.134634
H14   H     H_    0.399033 0.497100 0.127988 0.133549
H15   H     H_    0.788744 0.502196 0.186019 0.126580
H16   H     H_    0.784407 0.554519 0.814881 0.124689
N1    N     N_R   0.500000 0.857200 0.500000 -0.077225
N2    N     N_R   0.500000 0.142800 0.500000 -0.077604
O1    O     O_R   0.316770 0.614620 0.500000 -0.626965
O2    O     O_R   0.683230 0.385380 0.500000 -0.625857
O3    O     O_R   0.683230 0.614620 0.500000 -0.626444
O4    O     O_R   0.316770 0.385380 0.500000 -0.626171
O5    O     O_R   0.500030 0.614710 0.398180 -0.607392
O6    O     O_R   0.499970 0.385290 0.601820 -0.607113
O7    O     O_R   0.499970 0.614710 0.601820 -0.610783
O8    O     O_R   0.500030 0.385290 0.398180 -0.609457
Zn1   Zn    Zn3+2 0.500000 0.653120 0.500000 0.946141
Zn2   Zn    Zn3+2 0.500000 0.346880 0.500000 0.947070
C33   C     C_3   0.622089 0.765279 0.922857 -0.390014
C34   C     C_3   0.487242 0.810070 0.910237 -0.879311
H17   H     H_    0.439737 0.739347 0.873111 0.272097
H18   H     H_    0.433989 0.813113 0.960620 0.248357
H19   H     H_    0.486429 0.913422 0.886440 0.245821
H20   H     H_    0.673738 0.847332 0.950621 0.207396
H21   H     H_    0.670199 0.758015 0.871081 0.206690
C35   C     C_3   0.664755 0.245369 0.077942 -0.387594
C36   C     C_3   0.540324 0.171811 0.088110 -0.882086
H22   H     H_    0.476546 0.233402 0.121428 0.269300
H23   H     H_    0.493935 0.151457 0.036538 0.248318
H24   H     H_    0.556738 0.073323 0.115335 0.250297
H25   H     H_    0.732497 0.176750 0.051521 0.206163
H26   H     H_    0.707058 0.263694 0.130790 0.207790
C37   C     C_3   0.624666 0.761875 0.081196 -0.395305
C38   C     C_3   0.756299 0.811738 0.098280 -0.883899
H27   H     H_    0.806393 0.735864 0.131300 0.261659
H28   H     H_    0.810207 0.829107 0.048913 0.251235
H29   H     H_    0.751117 0.909081 0.128166 0.250941
H30   H     H_    0.572858 0.843198 0.053266 0.210826
H31   H     H_    0.572618 0.750205 0.131563 0.215678
C39   C     C_3   0.670346 0.249295 0.919213 -0.394472
C40   C     C_3   0.807963 0.231846 0.900635 -0.885355
H32   H     H_    0.865619 0.227243 0.949565 0.251609
H33   H     H_    0.821007 0.135722 0.870449 0.248159
H34   H     H_    0.840533 0.317971 0.867443 0.262913
H35   H     H_    0.637813 0.157314 0.947416 0.211525
H36   H     H_    0.614862 0.248501 0.869548 0.214347

loop_
_geom_bond_atom_site_label_1
_geom_bond_atom_site_label_2
_ccdc_geom_bond_type
C6    C39   S    
O5    Zn1   S    
C9    O1    A    
C38   H29   S    
C10   O2    A    
O3    Zn1   S    
O4    Zn2   S    
C27   H1    S    
C7    C26   S    
C28   C29   A    
C38   H28   S    
C18   H10   S    
O7    Zn1   S    
C35   H26   S    
C39   H35   S    
C23   C26   A    
C36   H23   S    
C10   O3    A    
C34   H18   S    
O2    Zn2   S    
C33   H20   S    
C20   C24   A    
C35   C36   S    
C1    C15   A    
C11   O8    A    
C2    C16   A    
C37   H30   S    
C13   H5    S    
C27   N2    A    
C28   H2    S    
C27   C30   A    
C8    C25   S    
C36   H22   S    
C4    C7    A    
C19   C32   A    
C20   H12   S    
C19   H11   S    
C21   H13   S    
C29   N2    A    
C3    C33   S    
C23   H15   S    
C24   H16   S    
C38   H27   S    
C4    C6    A    
C3    C8    A    
C5    C7    A    
C37   H31   S    
C6    C8    A    
C35   H25   S    
C17   C21   A    
O6    Zn2   S    
C5    C37   S    
C36   H24   S    
C19   C23   A    
C37   C38   S    
C34   H17   S    
C14   H6    S    
C28   N1    A    
C33   H21   S    
C40   H32   S    
C24   C25   A    
C2    C13   A    
C15   H7    S    
C12   O6    A    
C16   H8    S    
C12   O7    A    
C40   H33   S    
C30   N1    A    
C11   C32   S    
C13   C15   A    
C12   C31   S    
C17   C31   A    
C14   C16   A    
O1    Zn1   S    
C11   O5    A    
C4    C35   S    
C21   C25   A    
C34   H19   S    
C22   H14   S    
C18   C22   A    
C1    C10   S    
C3    C5    A    
C9    O4    A    
C29   H3    S    
N1    Zn1   S    
C30   H4    S    
N2    Zn2   S    
C39   H36   S    
C33   C34   S    
C17   H9    S    
C40   H34   S    
C18   C32   A    
C39   C40   S    
C22   C26   A    
C1    C14   A    
C2    C9    S    
O8    Zn2   S    
C20   C31   A    
