data_mof_unit_63909.cif
_audit_creation_date              2013-03-05T16:10:53-0500
_audit_creation_method            fapswitch 2.2
_symmetry_space_group_name_H-M    P1
_symmetry_Int_Tables_number       1
_space_group_crystal_system       triclinic
_cell_length_a                    37.209051
_cell_length_b                    30.415296
_cell_length_c                    21.555032
_cell_angle_alpha                 89.999955
_cell_angle_beta                  54.789047
_cell_angle_gamma                 90.0
_cell_volume                      19931.0330321

loop_
_atom_site_label
_atom_site_type_symbol
_atom_site_description
_atom_site_fract_x
_atom_site_fract_y
_atom_site_fract_z
_atom_type_partial_charge
O1    O     O_R   0.935720 0.537180 0.564270 -0.586410
O2    O     O_R   0.064280 0.537180 0.435730 -0.586410
O3    O     O_R   0.435720 0.037180 0.564270 -0.586409
O4    O     O_R   0.564280 0.037180 0.435730 -0.586410
O5    O     O_R   0.935680 0.462770 0.564310 -0.585117
O6    O     O_R   0.064320 0.462770 0.435690 -0.585118
O7    O     O_R   0.435680 0.962770 0.564310 -0.585116
O8    O     O_R   0.564320 0.962770 0.435690 -0.585118
C1    C     C_R   0.914856 0.499986 0.585237 0.785980
C2    C     C_R   0.085143 0.499986 0.414763 0.785979
C3    C     C_R   0.414856 0.999986 0.585237 0.785977
C4    C     C_R   0.585143 0.999986 0.414763 0.785979
O9    O     O_R   0.999990 0.537180 0.408860 -0.588457
O10   O     O_R   0.000010 0.537180 0.591140 -0.588458
O11   O     O_R   0.499990 0.037180 0.408860 -0.588455
O12   O     O_R   0.500010 0.037180 0.591140 -0.588461
O13   O     O_R   0.999950 0.462770 0.408890 -0.587107
O14   O     O_R   0.000050 0.462770 0.591110 -0.587107
O15   O     O_R   0.499950 0.962770 0.408890 -0.587109
O16   O     O_R   0.500050 0.962770 0.591110 -0.587105
C5    C     C_R   0.998629 0.499964 0.381258 0.780864
C6    C     C_R   0.001371 0.499964 0.618742 0.780864
C7    C     C_R   0.498629 0.999964 0.381258 0.780864
C8    C     C_R   0.501371 0.999964 0.618742 0.780864
Cu1   Cu    Cu3+1 1.000000 0.544030 0.500000 0.964252
Cu2   Cu    Cu3+1 0.500000 0.044030 0.500000 0.964252
Cu3   Cu    Cu3+1 1.000000 0.455920 0.500000 0.971077
Cu4   Cu    Cu3+1 0.500000 0.955920 0.500000 0.971077
C9    C     C_3   0.980557 0.543835 0.303993 -0.373303
C10   C     C_3   0.019443 0.543835 0.696006 -0.373303
C11   C     C_3   0.480557 0.043835 0.303992 -0.373301
C12   C     C_3   0.519443 0.043834 0.696006 -0.373302
H1    H     H_    0.001314 0.571778 0.299305 0.202431
H2    H     H_    0.998687 0.571778 0.700694 0.202432
H3    H     H_    0.501314 0.071778 0.299304 0.202431
H4    H     H_    0.498688 0.071778 0.700694 0.202430
H5    H     H_    0.946560 0.549638 0.355170 0.176397
H6    H     H_    0.053440 0.549637 0.644830 0.176396
H7    H     H_    0.446561 0.049638 0.355169 0.176399
H8    H     H_    0.553441 0.049637 0.644829 0.176396
C13   C     C_3   0.980393 0.543048 0.232640 -0.424303
C14   C     C_3   0.019608 0.543047 0.767359 -0.424304
C15   C     C_3   0.480393 0.043048 0.232640 -0.424302
C16   C     C_3   0.519608 0.043047 0.767359 -0.424303
H9    H     H_    0.946024 0.547024 0.250004 0.220362
H10   H     H_    0.053977 0.547023 0.749995 0.220362
H11   H     H_    0.446024 0.047024 0.250004 0.220362
H12   H     H_    0.553977 0.047023 0.749995 0.220361
H13   H     H_    0.999826 0.571315 0.195249 0.203105
H14   H     H_    0.000175 0.571315 0.804750 0.203106
H15   H     H_    0.499826 0.071315 0.195249 0.203105
H16   H     H_    0.500175 0.071315 0.804749 0.203106
H17   H     H_    0.068063 0.519140 0.238969 0.175000
H18   H     H_    0.931937 0.519141 0.761031 0.175000
H19   H     H_    0.568063 0.019139 0.238968 0.174999
H20   H     H_    0.431937 0.019141 0.761031 0.174997
H21   H     H_    0.067539 0.523689 0.134097 0.192341
H22   H     H_    0.932461 0.523690 0.865903 0.192340
H23   H     H_    0.567540 0.023689 0.134097 0.192341
H24   H     H_    0.432461 0.023690 0.865903 0.192339
C17   C     C_3   0.046201 0.493147 0.241438 -0.403332
C18   C     C_3   0.953798 0.493148 0.758562 -0.403333
C19   C     C_3   0.546202 0.993147 0.241438 -0.403333
C20   C     C_3   0.453798 0.993148 0.758562 -0.403331
C21   C     C_3   0.969608 0.461547 0.316069 -0.415127
C22   C     C_3   0.030391 0.461547 0.683932 -0.415124
C23   C     C_3   0.469608 0.961548 0.316069 -0.415128
C24   C     C_3   0.530391 0.961547 0.683932 -0.415124
C25   C     C_3   0.998595 0.499724 0.312333 0.087734
C26   C     C_3   0.001405 0.499724 0.687667 0.087734
C27   C     C_3   0.498595 0.999724 0.312333 0.087734
C28   C     C_3   0.501405 0.999724 0.687667 0.087734
H25   H     H_    0.981244 0.429461 0.323077 0.203824
H26   H     H_    0.018754 0.429461 0.676924 0.203824
H27   H     H_    0.481244 0.929461 0.323078 0.203823
H28   H     H_    0.518754 0.929461 0.676925 0.203824
H29   H     H_    0.935141 0.465862 0.366735 0.145150
H30   H     H_    0.064859 0.465861 0.633266 0.145149
H31   H     H_    0.435141 0.965862 0.366735 0.145147
H32   H     H_    0.564859 0.965861 0.633266 0.145149
C29   C     C_3   0.999972 0.499213 0.189177 0.046880
C30   C     C_3   0.000028 0.499213 0.810823 0.046881
C31   C     C_3   0.499972 0.999213 0.189177 0.046881
C32   C     C_3   0.500028 0.999213 0.810823 0.046881
C33   C     C_3   0.047412 0.494931 0.168813 -0.360645
C34   C     C_3   0.952588 0.494932 0.831187 -0.360645
C35   C     C_3   0.547412 0.994931 0.168813 -0.360645
C36   C     C_3   0.452588 0.994932 0.831187 -0.360646
C37   C     C_3   0.970540 0.460997 0.243216 0.252823
C38   C     C_3   0.029460 0.460997 0.756784 0.252823
C39   C     C_3   0.470539 0.960997 0.243216 0.252824
C40   C     C_3   0.529460 0.960997 0.756784 0.252822
H33   H     H_    0.936243 0.466457 0.260957 0.161124
H34   H     H_    0.063756 0.466457 0.739044 0.161123
H35   H     H_    0.436243 0.966458 0.260957 0.161123
H36   H     H_    0.563756 0.966457 0.739044 0.161123
H37   H     H_    0.059145 0.460868 0.244664 0.176228
H38   H     H_    0.940854 0.460869 0.755336 0.176228
H39   H     H_    0.559145 0.960868 0.244664 0.176229
H40   H     H_    0.440854 0.960869 0.755337 0.176230
H41   H     H_    0.064151 0.465147 0.133815 0.180867
H42   H     H_    0.935848 0.465148 0.866185 0.180867
H43   H     H_    0.564151 0.965147 0.133815 0.180867
H44   H     H_    0.435848 0.965148 0.866185 0.180867
C41   C     C_R   0.797343 0.460232 0.703927 -0.145919
C42   C     C_R   0.202657 0.460232 0.296073 -0.145919
C43   C     C_R   0.297409 0.039924 0.703050 -0.141254
C44   C     C_R   0.702590 0.039923 0.296986 -0.141251
H45   H     H_    0.780027 0.429111 0.720908 0.148258
H46   H     H_    0.219973 0.429111 0.279092 0.148258
H47   H     H_    0.280147 0.071073 0.720784 0.150757
H48   H     H_    0.719852 0.071073 0.279280 0.150751
C45   C     C_R   0.843155 0.460178 0.657812 -0.176518
C46   C     C_R   0.156845 0.460178 0.342188 -0.176517
C47   C     C_R   0.343218 0.039899 0.657002 -0.178601
C48   C     C_R   0.656782 0.039899 0.343035 -0.178602
H49   H     H_    0.860228 0.428931 0.640795 0.166256
H50   H     H_    0.139772 0.428931 0.359205 0.166256
H51   H     H_    0.360339 0.071120 0.639650 0.165443
H52   H     H_    0.639660 0.071119 0.360416 0.165444
C49   C     C_R   0.866497 0.500019 0.633894 -0.045306
C50   C     C_R   0.133503 0.500019 0.366106 -0.045306
C51   C     C_R   0.366497 0.000019 0.633895 -0.045305
C52   C     C_R   0.633503 0.000019 0.366106 -0.045306
C53   C     C_R   0.843218 0.539898 0.656964 -0.178601
C54   C     C_R   0.156782 0.539899 0.343036 -0.178602
C55   C     C_R   0.343154 0.960177 0.657775 -0.176516
C56   C     C_R   0.656845 0.960178 0.342190 -0.176517
H53   H     H_    0.860340 0.571118 0.639581 0.165444
H54   H     H_    0.139660 0.571118 0.360419 0.165444
H55   H     H_    0.360227 0.928929 0.640728 0.166255
H56   H     H_    0.639772 0.928931 0.359208 0.166256
C57   C     C_R   0.797410 0.539923 0.703012 -0.141251
C58   C     C_R   0.202590 0.539923 0.296988 -0.141252
C59   C     C_R   0.297342 0.960231 0.703892 -0.145918
C60   C     C_R   0.702657 0.960232 0.296075 -0.145920
H57   H     H_    0.780147 0.571073 0.720716 0.150751
H58   H     H_    0.219852 0.571073 0.279283 0.150751
H59   H     H_    0.280025 0.929110 0.720845 0.148264
H60   H     H_    0.719973 0.929111 0.279095 0.148258
C61   C     C_R   0.774135 0.500098 0.726806 0.144128
C62   C     C_R   0.225865 0.500099 0.273194 0.144129
C63   C     C_R   0.274134 0.000098 0.726807 0.144121
C64   C     C_R   0.725865 0.000098 0.273194 0.144128
C65   C     C_R   0.702613 0.528053 0.758115 -0.201712
C66   C     C_R   0.297386 0.528053 0.241885 -0.201711
C67   C     C_R   0.202614 0.028062 0.758128 -0.201706
C68   C     C_R   0.797387 0.028054 0.241883 -0.201712
H61   H     H_    0.720514 0.549714 0.709397 0.182941
H62   H     H_    0.279486 0.549714 0.290603 0.182941
H63   H     H_    0.220515 0.049730 0.709419 0.182949
H64   H     H_    0.779486 0.049716 0.290600 0.182941
C69   C     C_R   0.656639 0.528879 0.803780 0.309877
C70   C     C_R   0.343361 0.528879 0.196219 0.309877
C71   C     C_R   0.156639 0.028887 0.803791 0.309872
C72   C     C_R   0.843361 0.028880 0.196218 0.309876
C73   C     C_R   0.633215 0.500101 0.866966 -0.248608
C74   C     C_R   0.366785 0.500101 0.133034 -0.248609
C75   C     C_R   0.133215 0.000101 0.866966 -0.248610
C76   C     C_R   0.866785 0.000101 0.133034 -0.248609
C77   C     C_R   0.656587 0.471173 0.883365 0.304240
C78   C     C_R   0.343413 0.471173 0.116635 0.304240
C79   C     C_R   0.156587 0.971165 0.883353 0.304230
C80   C     C_R   0.843413 0.971172 0.116637 0.304239
C81   C     C_R   0.702560 0.472123 0.837902 -0.199745
C82   C     C_R   0.297440 0.472123 0.162098 -0.199746
C83   C     C_R   0.202559 0.972114 0.837890 -0.199743
C84   C     C_R   0.797440 0.972123 0.162099 -0.199746
H65   H     H_    0.720403 0.450318 0.850907 0.181807
H66   H     H_    0.279597 0.450318 0.149094 0.181808
H67   H     H_    0.220403 0.950302 0.850883 0.181816
H68   H     H_    0.779597 0.950317 0.149096 0.181808
C85   C     C_R   0.725695 0.500149 0.775122 -0.031971
C86   C     C_R   0.274305 0.500149 0.224877 -0.031971
C87   C     C_R   0.225695 0.000149 0.775123 -0.031986
C88   C     C_R   0.774305 0.000150 0.224877 -0.031972
O17   O     O_R   0.962770 0.564220 0.037230 -0.538949
O18   O     O_R   0.037230 0.564220 0.962770 -0.538949
O19   O     O_R   0.462770 0.064220 0.037230 -0.538950
O20   O     O_R   0.537230 0.064220 0.962770 -0.538949
C89   C     C_R   1.000000 0.585139 0.000000 0.910446
C90   C     C_R   0.500000 0.085139 1.000000 0.910446
O21   O     O_R   0.962780 0.499950 0.128370 -0.573693
O22   O     O_R   0.037220 0.499950 0.871630 -0.573693
O23   O     O_R   0.462780 0.999950 0.128370 -0.573693
O24   O     O_R   0.537220 0.999950 0.871630 -0.573693
O25   O     O_R   0.037180 0.500000 0.053970 -0.600411
O26   O     O_R   0.962820 0.500000 0.946030 -0.600411
O27   O     O_R   0.537180 0.000000 0.053970 -0.600411
O28   O     O_R   0.462820 0.000000 0.946030 -0.600411
C91   C     C_R   0.000082 0.499552 0.120061 0.815636
C92   C     C_R   0.999918 0.499552 0.879938 0.815636
C93   C     C_R   0.500082 0.999552 0.120061 0.815635
C94   C     C_R   0.499918 0.999552 0.879938 0.815637
Cu5   Cu    Cu3+1 0.955920 0.499940 0.044070 1.051994
Cu6   Cu    Cu3+1 0.044080 0.499940 0.955930 1.051994
Cu7   Cu    Cu3+1 0.455920 0.999940 0.044070 1.051993
Cu8   Cu    Cu3+1 0.544080 0.999940 0.955930 1.051994
O29   O     O_R   0.962780 0.435670 0.037210 -0.586954
O30   O     O_R   0.037220 0.435670 0.962790 -0.586953
O31   O     O_R   0.462780 0.935670 0.037210 -0.586953
O32   O     O_R   0.537220 0.935670 0.962790 -0.586953
C95   C     C_R   1.000000 0.414852 1.000000 0.872770
C96   C     C_R   0.500000 0.914852 0.000000 0.872770
O33   O     O_R   0.499930 0.435710 0.947300 -0.584873
O34   O     O_R   0.500070 0.435710 0.052700 -0.584874
O35   O     O_R   0.999930 0.935710 0.947300 -0.584873
O36   O     O_R   0.000070 0.935710 0.052700 -0.584878
C97   C     C_R   0.500000 0.414966 0.000000 0.844280
C98   C     C_R   1.000000 0.914966 0.000000 0.844304
O37   O     O_R   0.564240 0.499990 0.883000 -0.569991
O38   O     O_R   0.435760 0.499990 0.117000 -0.569991
O39   O     O_R   0.064240 0.999990 0.883000 -0.569995
O40   O     O_R   0.935760 0.999990 0.117000 -0.569992
O41   O     O_R   0.564250 0.499990 0.988510 -0.535064
O42   O     O_R   0.435750 0.499990 0.011490 -0.535064
O43   O     O_R   0.064250 0.999990 0.988510 -0.535076
O44   O     O_R   0.935750 0.999990 0.011490 -0.535066
C99   C     C_R   0.584903 0.500081 0.915157 0.908494
C100  C     C_R   0.415097 0.500081 0.084843 0.908496
C101  C     C_R   0.084903 0.000081 0.915157 0.908519
C102  C     C_R   0.915097 0.000081 0.084843 0.908494
Cu9   Cu    Cu3+1 0.499970 0.499990 0.937550 1.144136
Cu10  Cu    Cu3+1 0.500030 0.499990 0.062450 1.144136
Cu11  Cu    Cu3+1 0.999970 0.999990 0.937550 1.144131
Cu12  Cu    Cu3+1 0.000030 0.999990 0.062450 1.144127
O45   O     O_R   0.500010 0.564260 0.947230 -0.539455
O46   O     O_R   0.499990 0.564260 0.052770 -0.539455
O47   O     O_R   0.000010 0.064260 0.947230 -0.539455
O48   O     O_R   0.999990 0.064260 0.052770 -0.539454
C103  C     C_R   0.500000 0.584999 1.000000 0.933754
C104  C     C_R   1.000000 0.084999 0.000000 0.933762
C105  C     C_R   0.033770 0.703629 0.935620 0.284139
C106  C     C_R   0.966229 0.703629 0.064380 0.284137
C107  C     C_R   0.533770 0.203629 0.935620 0.284139
C108  C     C_R   0.466230 0.203629 0.064380 0.284138
C109  C     C_R   0.034149 0.657222 0.935806 0.204356
C110  C     C_R   0.965851 0.657222 0.064194 0.204357
C111  C     C_R   0.534149 0.157222 0.935805 0.204356
C112  C     C_R   0.465851 0.157222 0.064194 0.204357
C113  C     C_R   1.000000 0.633842 0.000000 -0.345921
C114  C     C_R   0.500000 0.133842 1.000000 -0.345921
C115  C     C_R   1.000000 0.726279 0.000000 -0.096215
C116  C     C_R   0.500000 0.226279 1.000000 -0.096216
C117  C     C_R   0.495789 0.297622 0.948254 -0.081691
C118  C     C_R   0.504211 0.297622 0.051746 -0.081691
C119  C     C_R   0.995789 0.797622 0.948254 -0.081691
C120  C     C_R   0.004211 0.797622 0.051746 -0.081689
H69   H     H_    0.492292 0.280090 0.908261 0.157377
H70   H     H_    0.507708 0.280090 0.091739 0.157378
H71   H     H_    0.992292 0.780090 0.908261 0.157378
H72   H     H_    0.007708 0.780090 0.091739 0.157378
C121  C     C_R   0.495841 0.343396 0.948147 -0.147185
C122  C     C_R   0.504159 0.343396 0.051853 -0.147185
C123  C     C_R   0.995841 0.843396 0.948147 -0.147183
C124  C     C_R   0.004159 0.843396 0.051854 -0.147176
H73   H     H_    0.492430 0.360486 0.907733 0.181169
H74   H     H_    0.507569 0.360486 0.092267 0.181169
H75   H     H_    0.992431 0.860486 0.907733 0.181167
H76   H     H_    0.007569 0.860486 0.092268 0.181165
C125  C     C_R   0.500000 0.366674 0.000000 -0.016934
C126  C     C_R   1.000000 0.866674 0.000000 -0.016922
C127  C     C_R   0.500000 0.274598 1.000000 0.247436
C128  C     C_R   1.000000 0.774598 0.000000 0.247435
C129  C     C_R   0.961008 0.297578 0.053873 0.412571
C130  C     C_R   0.038992 0.297578 0.946125 0.412571
C131  C     C_R   0.461008 0.797578 0.053876 0.412570
C132  C     C_R   0.538991 0.797578 0.946124 0.412570
C133  C     C_R   0.961434 0.343383 0.052140 -0.147906
C134  C     C_R   0.038566 0.343383 0.947859 -0.147906
C135  C     C_R   0.461435 0.843383 0.052142 -0.147905
C136  C     C_R   0.538565 0.843383 0.947858 -0.147905
H77   H     H_    0.931462 0.360918 0.093290 0.198630
H78   H     H_    0.068537 0.360918 0.906709 0.198630
H79   H     H_    0.431463 0.860918 0.093294 0.198630
H80   H     H_    0.568537 0.860918 0.906706 0.198630
C137  C     C_R   1.000000 0.366534 1.000000 -0.208407
C138  C     C_R   0.500000 0.866534 1.000000 -0.208408
C139  C     C_R   1.000000 0.274090 0.999999 -0.095666
C140  C     C_R   0.500000 0.774090 1.000000 -0.095666
C141  C     C_R   0.476460 0.702910 0.978221 -0.185873
C142  C     C_R   0.523540 0.702910 0.021778 -0.185873
C143  C     C_R   0.976462 0.202910 0.978216 -0.185874
C144  C     C_R   0.023536 0.202910 0.021784 -0.185873
H81   H     H_    0.457822 0.721071 0.962412 0.200203
H82   H     H_    0.542178 0.721072 0.037588 0.200202
H83   H     H_    0.957826 0.221071 0.962402 0.200201
H84   H     H_    0.042172 0.221072 0.037598 0.200201
C145  C     C_R   0.475340 0.656970 0.979445 0.311379
C146  C     C_R   0.524660 0.656970 0.020555 0.311379
C147  C     C_R   0.975342 0.156970 0.979440 0.311380
C148  C     C_R   0.024656 0.156971 0.020562 0.311388
C149  C     C_R   0.500000 0.633445 1.000000 -0.231794
C150  C     C_R   1.000000 0.133445 0.000000 -0.231789
C151  C     C_R   0.500000 0.725760 1.000000 -0.081176
C152  C     C_R   1.000000 0.225760 1.000000 -0.081177
O49   O     O_3   0.983864 0.419845 0.206527 -0.725240
H85   H     H_    0.012204 0.411816 0.198055 0.335572
O50   O     O_3   0.016135 0.419845 0.793474 -0.725241
H86   H     H_    0.987795 0.411816 0.801947 0.335572
O51   O     O_3   0.483863 0.919845 0.206528 -0.725241
H87   H     H_    0.512204 0.911816 0.198055 0.335572
O52   O     O_3   0.516135 0.919845 0.793474 -0.725241
H88   H     H_    0.487794 0.911816 0.801947 0.335573
N1    N     N_R   0.634544 0.559881 0.786131 0.143275
O53   O     O_R   0.602226 0.583526 0.839540 -0.330827
O54   O     O_R   0.650907 0.569384 0.715690 -0.320641
N2    N     N_R   0.365456 0.559881 0.213868 0.143275
O55   O     O_R   0.397774 0.583526 0.160460 -0.330827
O56   O     O_R   0.349093 0.569385 0.284309 -0.320641
N3    N     N_R   0.134544 0.059895 0.786151 0.143272
O57   O     O_R   0.102221 0.083531 0.839568 -0.330846
O58   O     O_R   0.150911 0.069412 0.715713 -0.320638
N4    N     N_R   0.865456 0.059883 0.213865 0.143274
O59   O     O_R   0.897775 0.083527 0.160455 -0.330833
O60   O     O_R   0.849093 0.069389 0.284306 -0.320640
N5    N     N_R   0.634376 0.439443 0.943774 0.140225
O61   O     O_R   0.602734 0.415621 0.952404 -0.375910
O62   O     O_R   0.650245 0.429318 0.982199 -0.320014
N6    N     N_R   0.365624 0.439443 0.056226 0.140225
O63   O     O_R   0.397266 0.415621 0.047597 -0.375910
O64   O     O_R   0.349754 0.429318 0.017802 -0.320014
N7    N     N_R   0.134375 0.939428 0.943751 0.140219
O65   O     O_R   0.102730 0.915614 0.952378 -0.375925
O66   O     O_R   0.150247 0.929290 0.982168 -0.320018
N8    N     N_R   0.865624 0.939441 0.056229 0.140225
O67   O     O_R   0.897266 0.915621 0.047599 -0.375914
O68   O     O_R   0.849754 0.929315 0.017804 -0.320014
O69   O     O_3   0.065875 0.728107 0.873929 -0.691940
H89   H     H_    0.083669 0.709029 0.828863 0.377603
O70   O     O_3   0.934125 0.728107 0.126071 -0.691944
H90   H     H_    0.916330 0.709029 0.171137 0.377603
O71   O     O_3   0.565875 0.228107 0.873928 -0.691944
H91   H     H_    0.583669 0.209029 0.828862 0.377603
O72   O     O_3   0.434125 0.228107 0.126071 -0.691943
H92   H     H_    0.416331 0.209029 0.171137 0.377603
N9    N     N_R   0.068871 0.634022 0.870378 0.137682
O73   O     O_R   0.060631 0.611540 0.828615 -0.393235
O74   O     O_R   0.109028 0.636667 0.850940 -0.313923
N10   N     N_R   0.931129 0.634022 0.129622 0.137682
O75   O     O_R   0.939369 0.611540 0.171385 -0.393236
O76   O     O_R   0.890972 0.636666 0.149060 -0.313924
N11   N     N_R   0.568871 0.134022 0.870378 0.137682
O77   O     O_R   0.560631 0.111540 0.828615 -0.393236
O78   O     O_R   0.609028 0.136667 0.850940 -0.313924
N12   N     N_R   0.431129 0.134022 0.129622 0.137682
O79   O     O_R   0.439369 0.111540 0.171385 -0.393235
O80   O     O_R   0.390972 0.136666 0.149060 -0.313925
O81   O     O_3   0.921952 0.277567 0.109588 -0.692407
H93   H     H_    0.926900 0.246046 0.113305 0.353699
O82   O     O_3   0.078047 0.277567 0.890411 -0.692405
H94   H     H_    0.073099 0.246046 0.886694 0.353700
O83   O     O_3   0.421954 0.777567 0.109593 -0.692407
H95   H     H_    0.426902 0.746046 0.113310 0.353699
O84   O     O_3   0.578046 0.777567 0.890407 -0.692407
H96   H     H_    0.573098 0.746046 0.886689 0.353699
N13   N     N_R   0.447755 0.635054 0.962409 0.146281
O85   O     O_R   0.420422 0.604696 0.007570 -0.320403
O86   O     O_R   0.444452 0.650426 0.909547 -0.313160
N14   N     N_R   0.552245 0.635054 0.037591 0.146280
O87   O     O_R   0.579578 0.604697 0.992430 -0.320403
O88   O     O_R   0.555548 0.650426 0.090452 -0.313160
N15   N     N_R   0.947759 0.135054 0.962400 0.146280
O89   O     O_R   0.920424 0.104698 0.007561 -0.320399
O90   O     O_R   0.944460 0.150424 0.909534 -0.313160
N16   N     N_R   0.052238 0.135055 0.037606 0.146282
O91   O     O_R   0.079574 0.104698 0.992447 -0.320388
O92   O     O_R   0.055535 0.150426 0.090474 -0.313163

loop_
_geom_bond_atom_site_label_1
_geom_bond_atom_site_label_2
_geom_bond_distance
_ccdc_geom_bond_type
C98   C126  1.468800 S    
C76   C102  1.468736 S    
C57   H57   1.083131 S    
N13   O85   1.301075 A    
C124  C126  1.404979 A    
C146  C149  1.420926 A    
C134  H78   1.083591 S    
Cu9   Cu10  2.693514 S    
C63   C87   1.472601 S    
C60   H60   1.083107 S    
C20   C28   1.546442 S    
N9    O73   1.300079 A    
C37   O49   1.409152 S    
O71   H91   0.988435 S    
C59   H59   1.083119 S    
C145  N13   1.437838 S    
C103  C149  1.473512 S    
C72   N4    1.438880 S    
C142  C151  1.394531 A    
C9    H1    1.113114 S    
C140  C151  1.469968 S    
C18   C26   1.546441 S    
C105  C109  1.411579 A    
O40   C102  1.298500 A    
C66   H62   1.083456 S    
C105  C115  1.403010 A    
C122  C125  1.404978 A    
C89   C113  1.481328 S    
O35   C98   1.300726 A    
C1    C49   1.470228 S    
N8    O67   1.301216 A    
O4    C4    1.296955 A    
C67   C71   1.397911 A    
O43   Cu12  1.964268 S    
Cu10  O46   1.965984 S    
C13   H13   1.113370 S    
O20   C90   1.298411 A    
C42   C62   1.402903 A    
C9    C25   1.556255 S    
C81   H65   1.083435 S    
C3    C51   1.470234 S    
C82   C86   1.398405 A    
C47   C51   1.404328 A    
N7    O65   1.301222 A    
C80   C84   1.397939 A    
C23   H31   1.113356 S    
N10   O75   1.300080 A    
H23   C35   1.113397 S    
C22   C38   1.550713 S    
C54   H54   1.082891 S    
C83   H67   1.083436 S    
O16   Cu4   1.975965 S    
N4    O59   1.300837 A    
O51   H87   0.991434 S    
C117  C121  1.392231 A    
O33   Cu9   1.966267 S    
O13   C5    1.292552 A    
O7    Cu4   1.966476 S    
O15   C7    1.292552 A    
O84   H96   0.988169 S    
C66   C70   1.397908 A    
C24   C28   1.554973 S    
O37   Cu9   1.964402 S    
O9    C5    1.293271 A    
C116  C127  1.469625 S    
O48   C104  1.300461 A    
C17   C33   1.540879 S    
C35   H43   1.111683 S    
C19   C27   1.546441 S    
C120  H72   1.083391 S    
O8    Cu4   1.966475 S    
C43   C63   1.402883 A    
C44   C64   1.402877 A    
C121  C125  1.404981 A    
C136  C138  1.399407 A    
O17   Cu5   1.966154 S    
O3    Cu2   1.965269 S    
C32   C36   1.559497 S    
N10   O76   1.301041 A    
C2    C50   1.470228 S    
C70   C74   1.418389 A    
C31   C39   1.560828 S    
C79   N7    1.438388 S    
C17   C25   1.546440 S    
C148  C150  1.420930 A    
C22   C26   1.554977 S    
C66   C86   1.398347 A    
C24   C40   1.550715 S    
H21   C33   1.113397 S    
C55   H55   1.082905 S    
O3    C3    1.296956 A    
Cu5   Cu6   2.680170 S    
O49   H85   0.991436 S    
C53   H53   1.082893 S    
C54   C58   1.392660 A    
C112  N12   1.433493 S    
O23   Cu7   1.975306 S    
C15   H11   1.112736 S    
O46   C103  1.300463 A    
C77   C81   1.397939 A    
C16   H12   1.112732 S    
O28   Cu7   1.976385 S    
C120  C128  1.400205 A    
C110  N10   1.433495 S    
O45   C103  1.300464 A    
C71   N3    1.438884 S    
O81   H93   0.988170 S    
C15   C31   1.548828 S    
O82   H94   0.988169 S    
H24   C36   1.113398 S    
C49   C53   1.404314 A    
C18   C34   1.540879 S    
C10   H6    1.113123 S    
C68   C88   1.398349 A    
C11   C15   1.541729 S    
C12   H4    1.113116 S    
C134  C137  1.399406 A    
C41   C45   1.392774 A    
O47   C104  1.300465 A    
C106  C110  1.411579 A    
Cu9   O45   1.965984 S    
C22   H26   1.112700 S    
C131  C140  1.421615 A    
C40   H36   1.113374 S    
C77   N5    1.438386 S    
C29   C91   1.487464 S    
C19   H39   1.113238 S    
O36   Cu12  1.966268 S    
C106  O70   1.384824 S    
O5    Cu3   1.966476 S    
H17   C17   1.113374 S    
C142  C146  1.397689 A    
C132  C136  1.393522 A    
C32   C94   1.487464 S    
N1    O54   1.301393 A    
H19   C19   1.113376 S    
Cu8   O32   1.965881 S    
H20   C20   1.113374 S    
N12   O80   1.301040 A    
C16   H16   1.113370 S    
C11   C27   1.556256 S    
O72   H92   0.988435 S    
O39   C101  1.298498 A    
C109  N9    1.433494 S    
H22   C34   1.113397 S    
N14   O87   1.301073 A    
C36   H44   1.111683 S    
N2    O56   1.301392 A    
Cu5   O29   1.965882 S    
C10   H2    1.113113 S    
C71   C75   1.418394 A    
O13   Cu3   1.975968 S    
C72   C76   1.418387 A    
O20   Cu8   1.966155 S    
Cu12  O48   1.965984 S    
O18   Cu6   1.966155 S    
C146  N14   1.437835 S    
C48   H52   1.082891 S    
C5    C25   1.486426 S    
N7    O66   1.301363 A    
N6    O64   1.301363 A    
C31   C93   1.487464 S    
C67   H63   1.083458 S    
O5    C1    1.296942 A    
C51   C55   1.404353 A    
C84   H68   1.083432 S    
O8    C4    1.296940 A    
C64   C88   1.472610 S    
C133  C137  1.399407 A    
O15   Cu4   1.975968 S    
C144  C148  1.397689 A    
C14   H14   1.113369 S    
C45   H49   1.082891 S    
C82   H66   1.083434 S    
C47   H51   1.082902 S    
N3    O58   1.301398 A    
C23   H27   1.112701 S    
C117  C127  1.400203 A    
C129  O81   1.382742 S    
C8    C28   1.486428 S    
C83   C87   1.398406 A    
O38   Cu10  1.964402 S    
C84   C88   1.398408 A    
C41   H45   1.083109 S    
C13   H9    1.112732 S    
C9    C13   1.541731 S    
O14   C6    1.292552 A    
C43   H47   1.083138 S    
O24   C94   1.293070 A    
C10   C14   1.541731 S    
C68   H64   1.083456 S    
O1    Cu1   1.965269 S    
C97   C125  1.468800 S    
C119  H71   1.083394 S    
C130  C139  1.421612 A    
C24   H28   1.112701 S    
O37   C99   1.298498 A    
C21   C37   1.550713 S    
C109  C113  1.416821 A    
O26   C92   1.291284 A    
O10   C6    1.293268 A    
N11   O78   1.301039 A    
C141  C151  1.394531 A    
O17   C89   1.298413 A    
C124  H76   1.082873 S    
C37   H33   1.113374 S    
Cu7   Cu8   2.680170 S    
O39   Cu11  1.964402 S    
C39   H35   1.113375 S    
O27   C93   1.291286 A    
C45   C49   1.404341 A    
C39   O51   1.409154 S    
N8    O68   1.301364 A    
C32   C40   1.560827 S    
C6    C26   1.486426 S    
C29   C33   1.559496 S    
C34   H42   1.111684 S    
C38   O50   1.409153 S    
C31   C35   1.559497 S    
O25   Cu6   1.976385 S    
N11   O77   1.300081 A    
O41   Cu10  1.964268 S    
O83   H95   0.988169 S    
C12   C28   1.556252 S    
C110  C113  1.416820 A    
O32   C96   1.296652 A    
C76   C80   1.417704 A    
C55   C59   1.392777 A    
C56   C60   1.392774 A    
C118  H70   1.083392 S    
C67   C87   1.398346 A    
C144  C152  1.394526 A    
N4    O60   1.301393 A    
C14   H10   1.112732 S    
N5    O62   1.301356 A    
C129  C133  1.393522 A    
N16   O91   1.301071 A    
C132  O84   1.382742 S    
C117  H69   1.083395 S    
C10   C26   1.556254 S    
C78   C82   1.397939 A    
C131  C135  1.393522 A    
O26   Cu5   1.976385 S    
O21   Cu5   1.975306 S    
N15   O89   1.301076 A    
O22   C92   1.293070 A    
C52   C56   1.404339 A    
O19   C90   1.298413 A    
C29   C37   1.560829 S    
N13   O86   1.301331 A    
O29   C95   1.296650 A    
N9    O74   1.301040 A    
C38   H34   1.113371 S    
C141  H81   1.083858 S    
C22   H30   1.113357 S    
C107  O71   1.384822 S    
C143  H83   1.083860 S    
C7    C27   1.486426 S    
C144  H84   1.083860 S    
C21   H29   1.113357 S    
O43   C101  1.299756 A    
H18   C18   1.113374 S    
C143  C147  1.397690 A    
O22   Cu6   1.975306 S    
Cu11  O47   1.965984 S    
C44   H48   1.083131 S    
C135  H79   1.083595 S    
O50   H86   0.991435 S    
O41   C99   1.299756 A    
C58   C62   1.402877 A    
O42   C100  1.299754 A    
O38   C100  1.298500 A    
C96   C138  1.469588 S    
C136  H80   1.083592 S    
C13   C29   1.548831 S    
C23   C39   1.550711 S    
O1    C1    1.296953 A    
C111  N11   1.433494 S    
C40   O52   1.409152 S    
C11   H3    1.113115 S    
C73   C77   1.417704 A    
C48   C52   1.404317 A    
C30   C92   1.487464 S    
C107  C111  1.411579 A    
C17   H37   1.113242 S    
C16   C32   1.548831 S    
O6    C2    1.296940 A    
O4    Cu2   1.965263 S    
C118  C122  1.392234 A    
C132  C140  1.421615 A    
C57   C61   1.402877 A    
C30   C38   1.560829 S    
C133  H77   1.083591 S    
C44   C48   1.392660 A    
O42   Cu9   1.964268 S    
C60   C64   1.402903 A    
O70   H90   0.988435 S    
C75   C101  1.468736 S    
C30   C34   1.559498 S    
C15   H15   1.113372 S    
C95   C137  1.469588 S    
C108  O72   1.384823 S    
C21   C25   1.554974 S    
C78   N6    1.438386 S    
O2    Cu1   1.965263 S    
C23   C27   1.554976 S    
O10   Cu1   1.975755 S    
C69   C73   1.418388 A    
C145  C149  1.420929 A    
C107  C116  1.403010 A    
O18   C89   1.298411 A    
C147  N15   1.437834 S    
C104  C150  1.473515 S    
C20   H40   1.113241 S    
N1    O53   1.300837 A    
C9    H5    1.113123 S    
O24   Cu8   1.975306 S    
C68   C72   1.397908 A    
C20   C36   1.540879 S    
C65   H61   1.083454 S    
C119  C123  1.392231 A    
O27   Cu8   1.976385 S    
C24   H32   1.113358 S    
N3    O57   1.300836 A    
O69   H89   0.988436 S    
C14   C30   1.548831 S    
Cu6   O30   1.965881 S    
N14   O88   1.301334 A    
C62   C86   1.472610 S    
O7    C3    1.296945 A    
C42   C46   1.392774 A    
C41   C61   1.402903 A    
C69   N1    1.438882 S    
C122  H74   1.082874 S    
C81   C85   1.398408 A    
C139  C152  1.469968 S    
C73   C99   1.468736 S    
C21   H25   1.112698 S    
C18   H38   1.113238 S    
O35   Cu11  1.966267 S    
C135  C138  1.399406 A    
O16   C8    1.292552 A    
Cu7   O31   1.965882 S    
O44   Cu11  1.964268 S    
O25   C91   1.291286 A    
C119  C128  1.400202 A    
C106  C115  1.403010 A    
C65   C69   1.397908 A    
O11   C7    1.293271 A    
O12   C8    1.293268 A    
O52   H88   0.991433 S    
C61   C85   1.472610 S    
N15   O90   1.301332 A    
O9    Cu1   1.975758 S    
C90   C114  1.481328 S    
O44   C102  1.299754 A    
C123  H75   1.082873 S    
C147  C150  1.420930 A    
C130  C134  1.393525 A    
O34   Cu10  1.966268 S    
C74   C78   1.417704 A    
C129  C139  1.421614 A    
O11   Cu2   1.975758 S    
O19   Cu7   1.966154 S    
C108  C112  1.411579 A    
C50   C54   1.404317 A    
C79   C83   1.397942 A    
C121  H73   1.082874 S    
O6    Cu3   1.966475 S    
C4    C52   1.470228 S    
C123  C126  1.404982 A    
O33   C97   1.300727 A    
C143  C152  1.394530 A    
C112  C114  1.416820 A    
Cu11  Cu12  2.693514 S    
C12   C16   1.541731 S    
C43   C47   1.392666 A    
C46   H50   1.082894 S    
C74   C100  1.468736 S    
C65   C85   1.398343 A    
C142  H82   1.083860 S    
C148  N16   1.437836 S    
O31   C96   1.296653 A    
C75   C79   1.417709 A    
C115  C128  1.469625 S    
O2    C2    1.296955 A    
C105  O69   1.384823 S    
C33   H41   1.111683 S    
N2    O55   1.300835 A    
C42   H46   1.083108 S    
C53   C57   1.392663 A    
C56   H56   1.082894 S    
C19   C35   1.540879 S    
O14   Cu3   1.975965 S    
O23   C93   1.293070 A    
O12   Cu2   1.975755 S    
O21   C91   1.293070 A    
C58   H58   1.083128 S    
C120  C124  1.392234 A    
C70   N2    1.438881 S    
Cu1   Cu3   2.679889 S    
Cu2   Cu4   2.679889 S    
C131  O83   1.382742 S    
N6    O63   1.301219 A    
C108  C116  1.403011 A    
O34   C97   1.300725 A    
N12   O79   1.300080 A    
C80   N8    1.438386 S    
C130  O82   1.382744 S    
O30   C95   1.296655 A    
C59   C63   1.402911 A    
C11   H7    1.113122 S    
C111  C114  1.416821 A    
C12   H8    1.113125 S    
N5    O61   1.301221 A    
O40   Cu12  1.964402 S    
N16   O92   1.301333 A    
O28   C94   1.291284 A    
C46   C50   1.404339 A    
O36   C98   1.300726 A    
C118  C127  1.400202 A    
C141  C145  1.397689 A    
