data_mof_unit_19284.cif
_audit_creation_date              2012-10-26T21:11:07-0400
_audit_creation_method            fapswitch 2.2
_symmetry_space_group_name_H-M    P1
_symmetry_Int_Tables_number       1
_space_group_crystal_system       triclinic
_cell_length_a                    10.897383
_cell_length_b                    10.898146
_cell_length_c                    13.121021
_cell_angle_alpha                 90.368844
_cell_angle_beta                  90.129335
_cell_angle_gamma                 90.121257
_cell_volume                      1558.2293336

loop_
_atom_site_label
_atom_site_type_symbol
_atom_type_description
_atom_site_fract_x
_atom_site_fract_y
_atom_site_fract_z
_atom_type_partial_charge
C1    C     C_R   0.492251 0.259649 0.499442 0.552538
C2    C     C_R   0.686393 0.822471 0.692832 -0.061420
C3    C     C_R   0.426509 0.115748 0.311719 0.047778
C4    C     C_R   0.573491 0.884252 0.688281 0.047778
C5    C     C_R   0.497798 0.104431 0.223077 -0.097555
C6    C     C_R   0.502202 0.895569 0.776923 -0.097555
C7    C     C_R   0.457521 0.155973 0.131600 -0.118682
C8    C     C_R   0.542479 0.844027 0.868400 -0.118682
C9    C     C_R   0.345483 0.217988 0.127821 -0.104082
C10   C     C_R   0.654517 0.782012 0.872179 -0.104082
C11   C     C_R   0.479301 0.932774 0.410839 -0.161367
C12   C     C_R   0.507749 0.740351 0.500558 0.552538
C13   C     C_R   0.520698 0.067226 0.589161 -0.161367
C14   C     C_R   0.508780 0.873031 0.501596 -0.007757
C15   C     C_R   0.491220 0.126969 0.498404 -0.007757
C16   C     C_R   0.259666 0.506901 0.499689 0.552558
C17   C     C_R   0.740334 0.493099 0.500311 0.552558
C18   C     C_R   0.532022 0.940756 0.591726 -0.034070
C19   C     C_R   0.467978 0.059244 0.408274 -0.034070
C20   C     C_1   0.500017 0.500070 0.173574 0.129072
C21   C     C_1   0.499983 0.499930 0.826426 0.129072
C22   C     C_1   0.500009 0.500044 0.050683 -0.073456
C23   C     C_R   0.872924 0.492228 0.501082 -0.009487
C24   C     C_1   0.499990 0.499956 0.949317 -0.073456
C25   C     C_R   0.237344 0.753787 0.235667 -0.103945
C26   C     C_R   0.762656 0.246213 0.764333 -0.103945
C27   C     C_R   0.184983 0.705255 0.323978 -0.059285
C28   C     C_R   0.815017 0.294745 0.676022 -0.059285
C29   C     C_R   0.117853 0.595051 0.319173 0.052100
C30   C     C_R   0.882147 0.404948 0.680826 0.052100
C31   C     C_R   0.102618 0.535414 0.224731 -0.096819
C32   C     C_R   0.897382 0.464586 0.775269 -0.096819
C33   C     C_R   0.156577 0.583366 0.136957 -0.115193
C34   C     C_R   0.127076 0.507772 0.498918 -0.009487
C35   C     C_R   0.843422 0.416634 0.863043 -0.115193
C36   C     C_R   0.223948 0.692448 0.142433 -0.102631
C37   C     C_R   0.776052 0.307551 0.857567 -0.102631
C38   C     C_R   0.933152 0.534242 0.413964 -0.157436
C39   C     C_R   0.066848 0.465758 0.586036 -0.157436
C40   C     C_R   0.940035 0.456114 0.588044 -0.035875
C41   C     C_R   0.059965 0.543886 0.411956 -0.035875
C42   C     C_R   0.273551 0.228503 0.215472 -0.098773
C43   C     C_R   0.726449 0.771497 0.784528 -0.098773
C44   C     C_R   0.313607 0.177529 0.307168 -0.061420
Cu1   Cu    Cu3+1 0.499990 0.499990 0.592680 0.985023
Cu2   Cu    Cu3+1 0.500010 0.500010 0.407320 0.985023
H1    H     H_    0.265164 0.729826 0.074333 0.105556
H2    H     H_    0.712327 0.160672 0.760810 0.101814
H3    H     H_    0.196139 0.753613 0.395802 0.096633
H4    H     H_    0.803861 0.246387 0.604198 0.096633
H5    H     H_    0.049377 0.451625 0.219301 0.091889
H6    H     H_    0.950623 0.548375 0.780699 0.091889
H7    H     H_    0.880929 0.563602 0.348008 0.132051
H8    H     H_    0.119070 0.436398 0.651992 0.132051
H9    H     H_    0.314355 0.257792 0.056980 0.108550
H10   H     H_    0.685645 0.742208 0.943020 0.108550
H11   H     H_    0.186457 0.275562 0.212255 0.100732
H12   H     H_    0.734836 0.270174 0.925667 0.105556
H13   H     H_    0.813542 0.724438 0.787745 0.100732
H14   H     H_    0.256783 0.185897 0.374482 0.096996
H15   H     H_    0.743217 0.814103 0.625518 0.096996
H16   H     H_    0.145620 0.536284 0.064606 0.101792
H17   H     H_    0.854380 0.463715 0.935394 0.101792
H18   H     H_    0.584635 0.056331 0.225059 0.102062
H19   H     H_    0.415365 0.943669 0.774941 0.102062
H20   H     H_    0.513058 0.147699 0.063611 0.102859
H21   H     H_    0.486942 0.852301 0.936389 0.102859
H22   H     H_    0.461430 0.880394 0.341935 0.126078
H23   H     H_    0.538570 0.119606 0.658065 0.126078
H24   H     H_    0.287673 0.839328 0.239189 0.101814
N1    N     N_1   0.500030 0.500030 0.268070 -0.168474
N2    N     N_1   0.499970 0.499970 0.731930 -0.168474
O1    O     O_R   0.499980 0.319630 0.578260 -0.506935
O2    O     O_R   0.500020 0.680370 0.421740 -0.506935
O3    O     O_R   0.500000 0.319650 0.421740 -0.482575
O4    O     O_R   0.500000 0.680350 0.578260 -0.482575
O5    O     O_R   0.319630 0.500000 0.578260 -0.506517
O6    O     O_R   0.680370 0.500000 0.421740 -0.506517
O7    O     O_R   0.319650 0.500020 0.421740 -0.483749
O8    O     O_R   0.680350 0.499980 0.578260 -0.483749

loop_
_geom_bond_atom_site_label_1
_geom_bond_atom_site_label_2
_ccdc_geom_bond_type
C12   O2    A    
C27   C29   A    
C14   C18   A    
Cu1   Cu2   S    
C15   C19   A    
C11   C19   A    
C9    C42   A    
C17   C23   S    
C13   C18   A    
Cu1   O4    S    
C35   C37   A    
Cu2   O7    S    
C11   C14   A    
C39   H8    S    
C23   C40   A    
C33   C36   A    
C36   H1    S    
Cu1   O1    S    
C16   O5    A    
C32   H6    S    
C16   C34   S    
C28   H4    S    
C6    H19   S    
C33   H16   S    
C31   C33   A    
C20   N1    T    
C3    C19   S    
C1    C15   S    
C10   H10   S    
C37   H12   S    
C2    H15   S    
C26   H2    S    
C4    C18   S    
Cu1   N2    S    
C34   C41   A    
C42   C44   A    
C42   H11   S    
Cu2   O3    S    
C3    C44   A    
C21   N2    T    
C34   C39   A    
C1    O3    A    
C32   C35   A    
C38   C41   A    
C4    C6    A    
C31   H5    S    
C39   C40   A    
Cu2   O6    S    
C6    C8    A    
C17   O8    A    
C5    H18   S    
C2    C4    A    
C2    C43   A    
C30   C40   S    
Cu2   N1    S    
C9    H9    S    
C12   C14   S    
C13   C15   A    
C12   O4    A    
C22   C24   T    
Cu2   O2    S    
C11   H22   S    
C5    C7    A    
C7    C9    A    
C29   C41   S    
C10   C43   A    
C20   C22   S    
C3    C5    A    
C35   H17   S    
C26   C37   A    
C43   H13   S    
C25   C27   A    
C23   C38   A    
C26   C28   A    
C16   O7    A    
C1    O1    A    
C28   C30   A    
C29   C31   A    
C7    H20   S    
C30   C32   A    
C38   H7    S    
C13   H23   S    
C44   H14   S    
C17   O6    A    
Cu1   O8    S    
C25   C36   A    
C8    H21   S    
C8    C10   A    
C21   C24   S    
Cu1   O5    S    
C25   H24   S    
C27   H3    S    
