data_mof_unit_41732.cif
_audit_creation_date              2012-12-10T20:31:56-0500
_audit_creation_method            fapswitch 2.2
_symmetry_space_group_name_H-M    P1
_symmetry_Int_Tables_number       1
_space_group_crystal_system       triclinic
_cell_length_a                    9.879783
_cell_length_b                    10.664375
_cell_length_c                    15.39006
_cell_angle_alpha                 90.308517
_cell_angle_beta                  67.287758
_cell_angle_gamma                 89.986663
_cell_volume                      1495.75666087

loop_
_atom_site_label
_atom_site_type_symbol
_atom_type_description
_atom_site_fract_x
_atom_site_fract_y
_atom_site_fract_z
_atom_type_partial_charge
C1    C     C_R   0.499513 0.739795 0.500498 0.949126
C2    C     C_R   0.394381 0.441897 0.919482 0.128068
C3    C     C_R   0.252626 0.488640 0.974955 0.142512
C4    C     C_R   0.491282 0.406060 0.962834 0.008760
C5    C     C_R   0.457180 0.441531 0.057170 0.090599
C6    C     C_R   0.312670 0.482516 0.112287 -0.174964
C7    C     C_R   0.210923 0.502641 0.071803 -0.165666
C8    C     C_R   0.619906 0.335390 0.915272 -0.279140
C9    C     C_R   0.720595 0.310003 0.956514 0.388718
C10   C     C_R   0.699924 0.365884 0.044162 -0.053414
C11   C     C_R   0.568175 0.433523 0.093563 0.054817
C12   C     C_R   0.407857 0.498064 0.676490 0.908844
C13   C     C_R   0.805372 0.355308 0.084927 -0.216885
C14   C     C_R   0.777624 0.404846 0.174464 0.574284
C15   C     C_R   0.551022 0.493542 0.177931 -0.300421
C16   C     C_R   0.403480 0.936203 0.472383 0.127056
C17   C     C_R   0.492583 0.871606 0.508169 -0.251576
C18   C     C_R   0.565391 0.934747 0.557381 -0.254090
C19   C     C_R   0.564817 0.064504 0.558704 0.647485
C20   C     C_R   0.491068 0.128548 0.510557 -0.246512
C21   C     C_R   0.402866 0.064184 0.473622 0.012206
C22   C     C_3   0.400750 0.073241 0.377289 -0.496473
C23   C     C_R   0.498719 0.260270 0.502022 0.941868
C24   C     C_3   0.403265 0.931230 0.375238 0.468198
C25   C     C_R   0.890291 0.570878 0.563824 0.162419
C26   C     C_R   0.962882 0.422170 0.442249 -0.050553
C27   C     C_R   0.106809 0.422303 0.442108 -0.105038
C28   C     C_R   0.032286 0.570114 0.564923 0.144015
C29   C     C_3   0.029242 0.709970 0.575994 0.256665
C30   C     C_3   0.876844 0.709538 0.573665 -0.542326
C31   C     C_R   0.592115 0.497297 0.323387 0.889403
C32   C     C_R   0.348346 0.488247 0.778961 -0.076116
C33   C     C_R   0.647643 0.471847 0.222072 -0.178903
C34   C     C_R   0.156652 0.525052 0.932222 -0.135404
C35   C     C_R   0.204612 0.524928 0.834379 -0.135538
C36   C     C_R   0.440233 0.443564 0.821531 -0.199072
H1    H     H_    0.101965 0.535696 0.115623 0.188214
H2    H     H_    0.907859 0.306135 0.049623 0.237888
H3    H     H_    0.625940 0.884303 0.591644 0.193127
H4    H     H_    0.296454 0.114433 0.378817 0.243140
H5    H     H_    0.502214 0.116080 0.325379 0.161655
H6    H     H_    0.504401 0.889344 0.321694 0.067406
H7    H     H_    0.937547 0.361148 0.394225 0.189323
H8    H     H_    0.189930 0.361427 0.393901 0.153406
H9    H     H_    0.458908 0.555113 0.212838 0.186934
H10   H     H_    0.112498 0.758408 0.515242 0.178610
H11   H     H_    0.786665 0.737830 0.640692 0.245724
H12   H     H_    0.873448 0.755221 0.509772 0.204679
H13   H     H_    0.046768 0.557945 0.974200 0.154490
H14   H     H_    0.130981 0.556409 0.802216 0.215149
H15   H     H_    0.551152 0.417782 0.776892 0.174020
H16   H     H_    0.274366 0.496501 0.187525 0.156925
H17   H     H_    0.639451 0.293262 0.847589 0.204996
N1    N     N_R   0.856900 0.500860 0.500610 -0.105176
N2    N     N_R   0.142540 0.500820 0.500610 -0.129998
O1    O     O_R   0.385310 0.683210 0.499990 -0.571666
O2    O     O_R   0.614650 0.683240 0.500000 -0.636283
O3    O     O_R   0.319830 0.499970 0.632240 -0.581048
O4    O     O_R   0.549170 0.500000 0.632250 -0.609833
O5    O     O_R   0.385350 0.316760 0.500000 -0.615155
O6    O     O_R   0.614690 0.316790 0.500010 -0.564875
O7    O     O_R   0.450830 0.500000 0.367750 -0.630885
O8    O     O_R   0.680170 0.500030 0.367760 -0.566399
Zn1   Zn    Zn3+2 0.346870 0.499980 0.499990 1.004892
Zn2   Zn    Zn3+2 0.653130 0.500020 0.500010 1.012843
F1    F     F_    0.640019 0.126457 0.603168 -0.627278
F2    F     F_    0.274508 0.881202 0.374601 -0.651122
S1    S     S_3+6 0.026799 0.760902 0.687726 0.053401
O9    O     O_2   0.971073 0.893572 0.705286 -0.191713
O10   O     O_2   0.927252 0.678261 0.764765 -0.322746
O11   O     O_3   0.197232 0.756113 0.686874 -0.569908
H18   H     H_    0.189148 0.796391 0.746822 0.383380
F3    F     F_    0.873919 0.381769 0.215886 -0.679214
S2    S     S_3+6 0.867310 0.205004 0.897321 0.055448
O12   O     O_2   0.874595 0.106338 0.964751 -0.239117
O13   O     O_2   0.846031 0.141475 0.816059 -0.223790
O14   O     O_3   0.026541 0.283761 0.856672 -0.543577
H19   H     H_    0.025270 0.330557 0.801565 0.361178

loop_
_geom_bond_atom_site_label_1
_geom_bond_atom_site_label_2
_ccdc_geom_bond_type
C8    C9    A    
O8    Zn2   S    
C16   C21   A    
C24   H6    S    
C19   C20   A    
C4    C8    A    
C14   C33   A    
N1    Zn2   S    
O14   H19   S    
C25   C28   A    
C26   C27   A    
S2    O13   D    
C32   C36   A    
C30   H12   S    
C28   C29   S    
C1    O1    A    
C5    C11   A    
C3    C7    A    
C5    C6    A    
C27   N2    A    
C22   H5    S    
C19   F1    S    
C34   C35   A    
O7    Zn1   S    
C24   F2    S    
S1    O9    D    
C12   O4    A    
C11   C15   A    
C27   H8    S    
C16   C17   A    
S2    O14   S    
O1    Zn1   S    
C9    C10   A    
C12   O3    A    
C16   C24   S    
C21   C22   S    
C12   C32   S    
C31   O7    A    
C26   N1    A    
C28   N2    A    
C26   H7    S    
O3    Zn1   S    
C23   O5    A    
S2    O12   D    
C14   F3    S    
C31   O8    A    
C30   H11   S    
C25   N1    A    
C18   C19   A    
C3    C34   A    
C2    C4    A    
C18   H3    S    
C32   C35   A    
C29   C30   S    
C1    O2    A    
C29   S1    S    
C20   C23   S    
C22   H4    S    
N2    Zn1   S    
C35   H14   S    
C31   C33   S    
C17   C18   A    
C7    H1    S    
C13   H2    S    
C36   H15   S    
C22   C24   S    
C9    S2    S    
C15   H9    S    
C2    C36   A    
C25   C30   S    
C34   H13   S    
O2    Zn2   S    
C4    C5    A    
C10   C13   A    
C8    H17   S    
C6    C7    A    
C1    C17   S    
C29   H10   S    
O5    Zn1   S    
C2    C3    A    
O11   H18   S    
O4    Zn2   S    
S1    O11   S    
C10   C11   A    
O6    Zn2   S    
C23   O6    A    
C20   C21   A    
S1    O10   D    
C6    H16   S    
C13   C14   A    
C15   C33   A    
