data_mof_unit_30639.cif
_audit_creation_date              2012-12-11T14:42:11-0500
_audit_creation_method            fapswitch 2.2
_symmetry_space_group_name_H-M    P1
_symmetry_Int_Tables_number       1
_space_group_crystal_system       triclinic
_cell_length_a                    18.878494
_cell_length_b                    10.975997
_cell_length_c                    18.695528
_cell_angle_alpha                 90.000346
_cell_angle_beta                  90.759261
_cell_angle_gamma                 90.000236
_cell_volume                      3873.5657104

loop_
_atom_site_label
_atom_site_type_symbol
_atom_type_description
_atom_site_fract_x
_atom_site_fract_y
_atom_site_fract_z
_atom_type_partial_charge
C1    C     C_R   0.728572 0.952044 0.852353 0.545848
C2    C     C_R   0.271426 0.952040 0.147650 0.546752
C3    C     C_R   0.228574 0.452040 0.852350 0.546753
C4    C     C_R   0.771429 0.452047 0.147646 0.545833
C5    C     C_R   0.685336 0.428234 0.045273 -0.140126
C6    C     C_R   0.314669 0.428210 0.954720 -0.140954
C7    C     C_R   0.185333 0.928227 0.045277 -0.140931
C8    C     C_R   0.814671 0.928206 0.954721 -0.140083
C9    C     C_R   0.747243 0.392673 0.081527 -0.000138
C10   C     C_R   0.252758 0.392663 0.918468 -0.001586
C11   C     C_R   0.247239 0.892663 0.081532 -0.001601
C12   C     C_R   0.752756 0.892667 0.918471 -0.000105
C13   C     C_R   0.793347 0.310202 0.049188 -0.120257
C14   C     C_R   0.206649 0.310208 0.950811 -0.120730
C15   C     C_R   0.293343 0.810196 0.049192 -0.120737
C16   C     C_R   0.706643 0.810219 0.950814 -0.120266
C17   C     C_R   0.785153 0.279695 0.977450 0.237736
C18   C     C_R   0.214838 0.279715 0.022551 0.237658
C19   C     C_R   0.285155 0.779706 0.977451 0.237656
C20   C     C_R   0.714831 0.779728 0.022553 0.237679
C21   C     C_R   0.727900 0.329669 0.937775 0.056549
C22   C     C_R   0.272096 0.329674 0.062224 0.055995
C23   C     C_R   0.227904 0.829680 0.937775 0.055989
C24   C     C_R   0.772094 0.829674 0.062224 0.056569
C25   C     C_R   0.459423 0.276703 0.550456 -0.126979
C26   C     C_R   0.441252 0.278986 0.478989 -0.130274
C27   C     C_R   0.058751 0.778986 0.521012 -0.130283
C28   C     C_R   0.040578 0.776704 0.449545 -0.126993
C29   C     C_R   0.443678 0.172068 0.438826 0.019201
C30   C     C_R   0.483909 0.168078 0.581587 0.022588
C31   C     C_R   0.016091 0.668079 0.418413 0.022592
C32   C     C_R   0.056323 0.672068 0.561173 0.019200
C33   C     C_R   0.457102 0.059839 0.472610 -0.122809
C34   C     C_R   0.478236 0.058048 0.544021 -0.131145
C35   C     C_R   0.021763 0.558049 0.455978 -0.131153
C36   C     C_R   0.042897 0.559839 0.527389 -0.122810
C37   C     C_R   0.791123 0.311543 0.528181 -0.060643
C38   C     C_R   0.205453 0.319274 0.469882 -0.063345
C39   C     C_R   0.294535 0.819250 0.530113 -0.063336
C40   C     C_R   0.708797 0.811694 0.471792 -0.060705
C41   C     C_R   0.790594 0.315510 0.454536 0.230882
C42   C     C_R   0.206674 0.321928 0.543419 0.224906
C43   C     C_R   0.293314 0.821913 0.456576 0.224915
C44   C     C_R   0.709329 0.815606 0.545435 0.230855
C45   C     C_R   0.529861 0.177598 0.850729 0.541537
C46   C     C_R   0.470127 0.177598 0.149264 0.554215
C47   C     C_R   0.029873 0.677598 0.850736 0.554213
C48   C     C_R   0.970139 0.677597 0.149271 0.541535
C49   C     C_R   0.748152 0.403513 0.419572 0.012560
C50   C     C_R   0.249749 0.408622 0.578622 0.013717
C51   C     C_R   0.250249 0.908624 0.421378 0.013717
C52   C     C_R   0.751833 0.903498 0.580425 0.012551
C53   C     C_R   0.696744 0.467482 0.458252 -0.157442
C54   C     C_R   0.299246 0.476226 0.539536 -0.167647
C55   C     C_R   0.200759 0.976240 0.460467 -0.167642
C56   C     C_R   0.803291 0.967379 0.541764 -0.157501
C57   C     C_R   0.693670 0.455015 0.532107 -0.136641
C58   C     C_R   0.301170 0.465890 0.465562 -0.158811
C59   C     C_R   0.198835 0.965898 0.534440 -0.158833
C60   C     C_R   0.806368 0.954936 0.467907 -0.136494
C61   C     C_R   0.743485 0.381953 0.567741 -0.023459
C62   C     C_R   0.253131 0.389528 0.430257 -0.024986
C63   C     C_R   0.246866 0.889520 0.569742 -0.024991
C64   C     C_R   0.756501 0.881998 0.432251 -0.023433
C65   C     C_R   0.723783 0.310273 0.859969 0.591384
C66   C     C_R   0.276216 0.310275 0.140031 0.593748
C67   C     C_R   0.223784 0.810277 0.859969 0.593748
C68   C     C_R   0.776215 0.810276 0.140030 0.591368
C69   C     C_R   0.729349 0.951540 0.649124 0.539318
C70   C     C_R   0.271019 0.952512 0.351350 0.527374
C71   C     C_R   0.228981 0.452510 0.648650 0.527378
C72   C     C_R   0.770650 0.451546 0.350876 0.539298
C73   C     C_R   0.526893 0.176247 0.646306 0.550216
C74   C     C_R   0.434437 0.180609 0.361876 0.568740
C75   C     C_R   0.065563 0.680609 0.638123 0.568741
C76   C     C_R   0.973107 0.676248 0.353694 0.550212
C77   C     C_R   0.737733 0.356179 0.643696 0.555293
C78   C     C_R   0.261241 0.359211 0.355199 0.541398
C79   C     C_R   0.238758 0.859207 0.644799 0.541397
C80   C     C_R   0.762264 0.856193 0.356299 0.555311
C81   C     C_2   0.497198 0.168152 0.920802 -0.109790
C82   C     C_2   0.502758 0.168148 0.079173 -0.110374
C83   C     C_2   0.997242 0.668149 0.920827 -0.110375
C84   C     C_2   0.002802 0.668152 0.079198 -0.109793
C85   C     C_2   0.491744 0.069216 0.038179 -0.151723
C86   C     C_2   0.508176 0.069208 0.961793 -0.150619
C87   C     C_2   0.991823 0.569208 0.038206 -0.150634
C88   C     C_2   0.008256 0.569217 0.961820 -0.151737
C89   C     C_R   0.675765 0.397397 0.973318 -0.190624
C90   C     C_R   0.324238 0.397382 0.026677 -0.191047
C91   C     C_R   0.175766 0.897399 0.973319 -0.191025
C92   C     C_R   0.824240 0.897371 0.026677 -0.190623
Cr1   Cr    Cr6+3 0.769270 0.163730 0.750710 1.051872
Cr2   Cr    Cr6+3 0.230730 0.163730 0.249290 1.036590
Cr3   Cr    Cr6+3 0.269270 0.663730 0.750710 1.036602
Cr4   Cr    Cr6+3 0.730730 0.663730 0.249290 1.051875
Cr5   Cr    Cr6+3 0.612620 0.009790 0.748780 1.032453
Cr6   Cr    Cr6+3 0.387380 0.009790 0.251220 1.030603
Cr7   Cr    Cr6+3 0.112620 0.509790 0.748780 1.030597
Cr8   Cr    Cr6+3 0.887380 0.509790 0.251220 1.032433
Cr9   Cr    Cr6+3 0.614160 0.322500 0.747710 1.020299
Cr10  Cr    Cr6+3 0.385840 0.322500 0.252290 1.014537
Cr11  Cr    Cr6+3 0.114160 0.822500 0.747710 1.014526
Cr12  Cr    Cr6+3 0.885840 0.822500 0.252290 1.020308
H1    H     H_    0.469028 0.986678 0.060290 0.162067
H2    H     H_    0.530876 0.986655 0.939684 0.162299
H3    H     H_    0.969124 0.486655 0.060315 0.162291
H4    H     H_    0.030971 0.486679 0.939709 0.162050
H5    H     H_    0.661512 0.531720 0.432040 0.145042
H6    H     H_    0.334387 0.540579 0.565730 0.141898
H7    H     H_    0.165625 0.040607 0.434276 0.141908
H8    H     H_    0.838569 0.031523 0.567995 0.144981
H9    H     H_    0.653299 0.503279 0.561299 0.183638
H10   H     H_    0.340587 0.515688 0.436080 0.177135
H11   H     H_    0.159424 0.015705 0.563924 0.177120
H12   H     H_    0.846784 0.003118 0.438731 0.183683
H13   H     H_    0.527271 0.249189 0.057034 0.105755
H14   H     H_    0.472697 0.249206 0.942940 0.105738
H15   H     H_    0.027303 0.749205 0.057061 0.105737
H16   H     H_    0.972729 0.749189 0.942967 0.105747
H17   H     H_    0.629388 0.430987 0.944882 0.136664
H18   H     H_    0.370618 0.430960 0.055112 0.136608
H19   H     H_    0.129390 0.930989 0.944883 0.136621
H20   H     H_    0.870625 0.930939 0.055109 0.136646
H21   H     H_    0.646265 0.483869 0.071509 0.171282
H22   H     H_    0.353747 0.483830 0.928481 0.170702
H23   H     H_    0.146260 0.983858 0.071513 0.170744
H24   H     H_    0.853751 0.983821 0.928482 0.171256
H25   H     H_    0.839282 0.275928 0.078130 0.124572
H26   H     H_    0.160711 0.275939 0.921871 0.124938
H27   H     H_    0.339278 0.775921 0.078135 0.124942
H28   H     H_    0.660700 0.775960 0.921877 0.124575
H29   H     H_    0.460979 0.362473 0.579132 0.139861
H30   H     H_    0.430140 0.365793 0.454060 0.137477
H31   H     H_    0.069866 0.865793 0.545941 0.137479
H32   H     H_    0.039022 0.862474 0.420869 0.139852
H33   H     H_    0.456390 0.975064 0.442966 0.168831
H34   H     H_    0.495228 0.972765 0.567824 0.151782
H35   H     H_    0.004771 0.472766 0.432175 0.151740
H36   H     H_    0.043609 0.475064 0.557032 0.168837
H37   H     H_    0.827099 0.248075 0.554019 0.157150
H38   H     H_    0.169361 0.255795 0.444235 0.156277
H39   H     H_    0.330618 0.755758 0.555757 0.156280
H40   H     H_    0.672765 0.748330 0.445940 0.157165
O1    O     O_R   0.784320 0.290430 0.830510 -0.437210
O2    O     O_R   0.215680 0.290430 0.169490 -0.437330
O3    O     O_R   0.284320 0.790430 0.830510 -0.437321
O4    O     O_R   0.715680 0.790430 0.169490 -0.437175
O5    O     O_R   0.554640 0.080370 0.673500 -0.493155
O6    O     O_R   0.445360 0.080370 0.326500 -0.493529
O7    O     O_R   0.054640 0.580370 0.673500 -0.493526
O8    O     O_R   0.945360 0.580370 0.326500 -0.493171
O9    O     O_R   0.543920 0.282180 0.666790 -0.520923
O10   O     O_R   0.456080 0.282180 0.333210 -0.509672
O11   O     O_R   0.043920 0.782180 0.666790 -0.509681
O12   O     O_R   0.956080 0.782180 0.333210 -0.520935
O13   O     O_R   0.679040 0.374160 0.674430 -0.491726
O14   O     O_R   0.320960 0.374160 0.325570 -0.514744
O15   O     O_R   0.179040 0.874160 0.674430 -0.514748
O16   O     O_R   0.820960 0.874160 0.325570 -0.491712
O17   O     O_3   0.665350 0.165340 0.749070 -0.277753
O18   O     O_3   0.334650 0.165340 0.250930 -0.301426
O19   O     O_3   0.165350 0.665340 0.749070 -0.301427
O20   O     O_3   0.834650 0.665340 0.250930 -0.277747
O21   O     O_R   0.762640 0.040960 0.825200 -0.488150
O22   O     O_R   0.237360 0.040960 0.174800 -0.486134
O23   O     O_R   0.262640 0.540960 0.825200 -0.486127
O24   O     O_R   0.737360 0.540960 0.174800 -0.488179
O25   O     O_R   0.667400 0.923970 0.829950 -0.532516
O26   O     O_R   0.332600 0.923970 0.170050 -0.530575
O27   O     O_R   0.167400 0.423970 0.829950 -0.530583
O28   O     O_R   0.832600 0.423970 0.170050 -0.532505
O29   O     O_R   0.553960 0.081340 0.821780 -0.496182
O30   O     O_R   0.446040 0.081340 0.178220 -0.488528
O31   O     O_R   0.053960 0.581340 0.821780 -0.488532
O32   O     O_R   0.946040 0.581340 0.178220 -0.496181
O33   O     O_R   0.543180 0.283240 0.826740 -0.528279
O34   O     O_R   0.456820 0.283240 0.173260 -0.521519
O35   O     O_R   0.043180 0.783240 0.826740 -0.521521
O36   O     O_R   0.956820 0.783240 0.173260 -0.528280
O37   O     O_R   0.678360 0.375140 0.822710 -0.517085
O38   O     O_R   0.321640 0.375140 0.177290 -0.516303
O39   O     O_R   0.178360 0.875140 0.822710 -0.516304
O40   O     O_R   0.821640 0.875140 0.177290 -0.517080
O41   O     O_R   0.785050 0.289380 0.670560 -0.523142
O42   O     O_R   0.214950 0.289380 0.329440 -0.524950
O43   O     O_R   0.285050 0.789380 0.670560 -0.524943
O44   O     O_R   0.714950 0.789380 0.329440 -0.523171
O45   O     O_R   0.763320 0.039990 0.676930 -0.515736
O46   O     O_R   0.236680 0.039990 0.323070 -0.518914
O47   O     O_R   0.263320 0.539990 0.676930 -0.518914
O48   O     O_R   0.736680 0.539990 0.323070 -0.515726
O49   O     O_R   0.668130 0.922920 0.670000 -0.484505
O50   O     O_R   0.331870 0.922920 0.330000 -0.496114
O51   O     O_R   0.168130 0.422920 0.670000 -0.496110
O52   O     O_R   0.831870 0.422920 0.330000 -0.484538
O53   O     O_3   0.834478 0.236310 0.418909 -0.710703
H41   H     H_    0.812649 0.218873 0.371474 0.333243
O54   O     O_3   0.162841 0.242481 0.578852 -0.715572
H42   H     H_    0.185879 0.221693 0.625250 0.333552
O55   O     O_3   0.337137 0.742456 0.421139 -0.715572
H43   H     H_    0.314100 0.721688 0.374737 0.333557
O56   O     O_3   0.665386 0.736474 0.581038 -0.710686
H44   H     H_    0.687224 0.718904 0.628453 0.333212
O57   O     O_3   0.834663 0.206677 0.944592 -0.690264
H45   H     H_    0.873117 0.185667 0.979113 0.302467
O58   O     O_3   0.165316 0.206725 0.055413 -0.690581
H46   H     H_    0.126872 0.185716 0.020891 0.302492
O59   O     O_3   0.334675 0.706709 0.944591 -0.690546
H47   H     H_    0.373083 0.685601 0.979134 0.302482
O60   O     O_3   0.665296 0.706763 0.055415 -0.690386
H48   H     H_    0.626871 0.685764 0.020903 0.302591

loop_
_geom_bond_atom_site_label_1
_geom_bond_atom_site_label_2
_ccdc_geom_bond_type
Cr2   O2    S    
O56   H44   S    
C49   C53   A    
C58   C62   A    
C23   C91   A    
C55   C59   A    
Cr8   O28   S    
C77   O41   A    
O55   H43   S    
C14   C18   A    
C19   C23   A    
C35   C36   A    
C84   C87   D    
C87   C88   S    
C3    O27   A    
Cr2   O22   S    
C32   C75   S    
C31   C76   S    
Cr3   O43   S    
C21   C89   A    
O57   H45   S    
Cr8   O8    S    
Cr3   O47   S    
C7    C11   A    
C74   O10   A    
C50   C54   A    
C37   H37   S    
Cr11  O39   S    
C32   C36   A    
C27   C28   A    
C42   O54   S    
C56   C60   A    
C38   C42   A    
Cr3   O19   S    
C92   H20   S    
C79   O15   A    
Cr6   O30   S    
C85   H1    S    
C80   O16   A    
Cr7   O27   S    
C76   O8    A    
C23   C67   S    
Cr7   O51   S    
C67   O39   A    
Cr5   O25   S    
Cr6   O50   S    
C20   O60   S    
Cr5   O49   S    
C46   O34   A    
C22   C66   S    
C9    C13   A    
C52   C69   S    
C35   H35   S    
C69   O49   A    
C46   C82   S    
C11   C15   A    
C78   O14   A    
C90   H18   S    
C12   C16   A    
C29   C33   A    
C61   C77   S    
C49   C72   S    
Cr8   O32   S    
C44   O56   S    
C47   O35   A    
Cr4   O24   S    
Cr1   O1    S    
C78   O42   A    
C51   C70   S    
C47   C83   S    
C18   C22   A    
C25   H29   S    
Cr10  O10   S    
C51   C55   A    
C81   C86   D    
C68   O4    A    
C70   O50   A    
C73   O5    A    
C44   C52   A    
C83   C88   D    
C66   O38   A    
Cr1   O21   S    
O54   H42   S    
C28   H32   S    
C38   H38   S    
Cr10  O14   S    
C86   H2    S    
C1    C12   S    
Cr12  O16   S    
C64   C80   S    
C2    C11   S    
C24   C92   A    
C41   C49   A    
Cr6   O18   S    
C8    H24   S    
O59   H47   S    
Cr8   O52   S    
C80   O44   A    
Cr4   O4    S    
Cr5   O29   S    
C30   C34   A    
C3    O23   A    
O58   H46   S    
Cr10  O38   S    
C20   C24   A    
Cr3   O3    S    
C6    H22   S    
C41   O53   S    
C10   C14   A    
C33   H33   S    
C30   C73   S    
C53   C57   A    
C65   O37   A    
C29   C74   S    
C1    O25   A    
C25   C26   A    
C6    C90   A    
Cr7   O7    S    
C81   H14   S    
C76   O12   A    
C17   C21   A    
Cr4   O20   S    
C38   C62   A    
C18   O58   S    
C54   H6    S    
C83   H16   S    
C15   C19   A    
C50   C71   S    
Cr2   O46   S    
C5    C9    A    
C26   H30   S    
C45   O29   A    
C71   O51   A    
O60   H48   S    
Cr9   O9    S    
C8    C12   A    
C7    C91   A    
C46   O30   A    
C33   C34   A    
C22   C90   A    
Cr7   O31   S    
Cr8   O20   S    
C16   C20   A    
Cr12  O12   S    
C36   H36   S    
C85   C86   S    
C79   O43   A    
C42   C50   A    
C8    C92   A    
Cr11  O11   S    
Cr12  O40   S    
C2    O26   A    
Cr1   O17   S    
Cr5   O17   S    
C40   H40   S    
C67   O3    A    
Cr10  O34   S    
Cr7   O19   S    
C60   H12   S    
C55   H7    S    
C56   H8    S    
C65   O1    A    
C48   O36   A    
Cr9   O37   S    
Cr10  O18   S    
C70   O46   A    
C73   O9    A    
Cr6   O6    S    
C53   H5    S    
C25   C30   A    
C14   H26   S    
C2    O22   A    
C68   O40   A    
C13   H25   S    
Cr1   O45   S    
C4    O28   A    
C21   C65   S    
C27   C32   A    
C19   O59   S    
C4    O24   A    
C59   C63   A    
C62   C78   S    
C28   C31   A    
C45   C81   S    
Cr2   O42   S    
C39   H39   S    
C69   O45   A    
C87   H3    S    
Cr3   O23   S    
C72   O52   A    
C57   H9    S    
C75   O11   A    
C57   C61   A    
C63   C79   S    
C45   O33   A    
C82   C85   D    
C39   C63   A    
Cr11  O19   S    
C40   C64   A    
C13   C17   A    
C60   C64   A    
C27   H31   S    
Cr4   O48   S    
Cr9   O17   S    
C37   C61   A    
C3    C10   S    
C71   O47   A    
Cr11  O15   S    
Cr12  O20   S    
Cr12  O36   S    
C89   H17   S    
C43   C51   A    
C84   H15   S    
C88   H4    S    
C31   C35   A    
C17   O57   S    
C34   H34   S    
C5    H21   S    
Cr11  O35   S    
C37   C41   A    
O53   H41   S    
C16   H28   S    
C5    C89   A    
C66   O2    A    
Cr9   O33   S    
C6    C10   A    
C24   C68   S    
Cr9   O13   S    
Cr6   O26   S    
C48   C84   S    
C40   C44   A    
C15   H27   S    
C1    O21   A    
C39   C43   A    
C26   C29   A    
C59   H11   S    
C54   C58   A    
C75   O7    A    
C58   H10   S    
Cr5   O5    S    
C43   O55   S    
C74   O6    A    
C91   H19   S    
C82   H13   S    
C7    H23   S    
C4    C9    S    
Cr4   O44   S    
C72   O48   A    
C47   O31   A    
Cr2   O18   S    
C52   C56   A    
C77   O13   A    
C48   O32   A    
Cr1   O41   S    
