data_mof_unit_55730.cif
_audit_creation_date              2013-03-05T16:33:10-0500
_audit_creation_method            fapswitch 2.2
_symmetry_space_group_name_H-M    P1
_symmetry_Int_Tables_number       1
_space_group_crystal_system       triclinic
_cell_length_a                    27.794223
_cell_length_b                    10.815826
_cell_length_c                    9.562269
_cell_angle_alpha                 89.94462
_cell_angle_beta                  89.191225
_cell_angle_gamma                 90.622699
_cell_volume                      2874.12727138

loop_
_atom_site_label
_atom_site_type_symbol
_atom_site_description
_atom_site_fract_x
_atom_site_fract_y
_atom_site_fract_z
_atom_type_partial_charge
O1    O     O_R   0.500000 0.319640 0.618810 -0.549667
O2    O     O_R   0.500010 0.319680 0.381230 -0.593745
C1    C     C_R   0.499406 0.262389 0.500000 0.807666
O3    O     O_R   0.430260 0.500000 0.618780 -0.529343
O4    O     O_R   0.430270 0.500040 0.381190 -0.584169
C2    C     C_R   0.407785 0.498417 0.500683 0.793188
Cu1   Cu    Cu3+1 0.500000 0.499980 0.640670 1.009418
Cu2   Cu    Cu3+1 0.500000 0.500020 0.359330 0.980738
O5    O     O_R   0.499990 0.680320 0.618770 -0.579177
O6    O     O_R   0.500000 0.680360 0.381190 -0.560219
O7    O     O_R   0.569730 0.499960 0.618810 -0.592345
O8    O     O_R   0.569740 0.500000 0.381220 -0.579791
C3    C     C_R   0.499267 0.737582 0.499930 0.820743
C4    C     C_R   0.592503 0.498304 0.499437 0.815402
C5    C     C_R   0.178384 0.399232 0.429528 0.553489
O9    O     O_2   0.203146 0.318128 0.349937 -0.531001
N1    N     N_R   0.202556 0.486358 0.506098 -0.462939
C6    C     C_R   0.178171 0.570743 0.585973 0.546262
C7    C     C_R   0.279605 0.594255 0.458605 -0.076150
C8    C     C_R   0.329759 0.596632 0.458016 -0.215454
C9    C     C_R   0.330147 0.384813 0.543638 -0.058223
C10   C     C_R   0.279854 0.383852 0.546439 -0.119193
C11   C     C_R   0.254340 0.488324 0.504028 0.319328
C12   C     C_R   0.102143 0.482271 0.510491 -0.047731
C13   C     C_R   0.127854 0.394454 0.432098 -0.036362
C14   C     C_R   0.102837 0.300944 0.362304 -0.175087
C15   C     C_R   0.127645 0.570908 0.588727 -0.019104
C16   C     C_R   0.355243 0.492942 0.501962 -0.053322
H1    H     H_    0.260346 0.301539 0.580278 0.159168
H2    H     H_    0.122435 0.227455 0.310390 0.193756
C17   C     C_R   0.645426 0.492906 0.499583 -0.053002
C18   C     C_R   0.975244 0.407712 0.412702 -0.022178
C19   C     C_R   0.974584 0.562275 0.601189 0.056729
C20   C     C_R   0.949603 0.485786 0.505359 0.082626
C21   C     C_R   0.949918 0.353130 0.301687 -0.244463
C22   C     C_R   0.899851 0.357792 0.293784 0.359926
C23   C     C_R   0.873365 0.419439 0.399524 -0.138199
C24   C     C_R   0.898552 0.488462 0.501028 -0.082936
C25   C     C_R   0.872695 0.561030 0.597887 0.003398
C26   C     C_R   0.822323 0.561437 0.594332 0.564188
N2    N     N_R   0.798323 0.486734 0.502848 -0.476274
C27   C     C_R   0.822587 0.414904 0.408139 0.586038
C28   C     C_R   0.722614 0.530361 0.385209 -0.082539
C29   C     C_R   0.672557 0.532224 0.382895 -0.168437
C30   C     C_R   0.669248 0.447710 0.617483 -0.251548
C31   C     C_R   0.719507 0.442842 0.619205 0.015677
C32   C     C_R   0.746527 0.486415 0.503013 0.285806
O10   O     O_2   0.797514 0.336841 0.326035 -0.456780
C33   C     C_R   0.025861 0.394402 0.427057 0.016566
C34   C     C_R   0.051054 0.481375 0.510914 0.066770
C35   C     C_R   0.025646 0.567202 0.595828 0.050748
C36   C     C_R   0.052650 0.297057 0.363448 -0.047659
H3    H     H_    0.655288 0.566288 0.290622 0.183154
H4    H     H_    0.743003 0.563531 0.295127 0.171257
H5    H     H_    0.968888 0.313634 0.213494 0.184716
O11   O     O_2   0.202725 0.653446 0.663788 -0.528161
C37   C     C_R   0.102314 0.657622 0.668052 -0.132828
H6    H     H_    0.348761 0.679528 0.423768 0.149951
H7    H     H_    0.260315 0.674851 0.423833 0.159502
H8    H     H_    0.121053 0.727796 0.727758 0.191885
C38   C     C_R   0.947462 0.632297 0.698250 -0.191651
C39   C     C_R   0.897519 0.631542 0.696385 -0.100942
O12   O     O_2   0.797438 0.635956 0.681656 -0.516484
C40   C     C_R   0.052335 0.656031 0.671677 -0.196493
H9    H     H_    0.963803 0.686537 0.779646 0.150273
H10   H     H_    0.648711 0.414308 0.707328 0.151833
H11   H     H_    0.878390 0.686610 0.773227 0.198505
H12   H     H_    0.035591 0.728247 0.732042 0.149712
C41   C     C_R   0.502142 0.063580 0.624124 0.218101
C42   C     C_R   0.495509 0.129090 0.500438 -0.105269
C43   C     C_R   0.482756 0.064187 0.378859 -0.180906
H13   H     H_    0.474759 0.112562 0.282850 0.178806
C44   C     C_R   0.482599 0.935166 0.378888 -0.137692
H14   H     H_    0.474562 0.886561 0.282891 0.193757
C45   C     C_R   0.495095 0.870654 0.500559 -0.106943
C46   C     C_R   0.501684 0.936352 0.624330 0.109985
C47   C     C_3   0.541968 0.930088 0.725543 -0.442052
C48   C     C_3   0.542863 0.070280 0.724339 -0.420573
H15   H     H_    0.529805 0.890638 0.827459 0.242765
H16   H     H_    0.574992 0.888363 0.679600 0.206328
H17   H     H_    0.532180 0.111115 0.826536 0.242717
H18   H     H_    0.576230 0.110373 0.676372 0.190283
C49   C     C_R   0.522919 0.592214 0.072376 0.203658
N3    N     N_R   0.500300 0.500930 0.147930 -0.240904
C50   C     C_R   0.472385 0.418871 0.076679 -0.114455
H19   H     H_    0.450453 0.352520 0.134389 0.173128
C51   C     C_R   0.471605 0.419728 0.928166 0.410123
N4    N     N_R   0.500310 0.500890 0.852020 -0.247938
C52   C     C_R   0.523601 0.590973 0.925203 0.147927
C53   C     C_3   0.575894 0.623217 0.917273 -0.518402
C54   C     C_3   0.574951 0.626941 0.076458 0.127146
H20   H     H_    0.597992 0.546336 0.875357 0.188589
H21   H     H_    0.582942 0.713964 0.866324 0.222311
H22   H     H_    0.597687 0.555424 0.124890 0.110560
C55   C     C_1   0.355122 0.272372 0.576930 0.322842
N5    N     N_1   0.375059 0.182026 0.603027 -0.219237
C56   C     C_1   0.742703 0.390840 0.739487 0.295085
N6    N     N_1   0.761326 0.349180 0.835944 -0.170145
N7    N     N_R   0.438794 0.338309 0.860349 0.140153
O13   O     O_R   0.394316 0.372759 0.850001 -0.352790
O14   O     O_R   0.447973 0.220744 0.858294 -0.385316
N8    N     N_R   0.582315 0.751476 0.132986 0.160005
O15   O     O_R   0.556128 0.843435 0.092038 -0.381429
O16   O     O_R   0.614155 0.770268 0.229165 -0.356817
N9    N     N_R   0.877320 0.307216 0.172021 0.165976
O17   O     O_R   0.890754 0.200382 0.123731 -0.314360
O18   O     O_R   0.851121 0.377767 0.094091 -0.299166
C57   C     C_1   0.030829 0.182940 0.315660 0.248864
N10   N     N_1   0.013563 0.091266 0.277730 -0.229542

loop_
_geom_bond_atom_site_label_1
_geom_bond_atom_site_label_2
_geom_bond_distance
_ccdc_geom_bond_type
C51   N4    1.380010 A    
C10   H1    1.084105 S    
N2    C27   1.368978 A    
C55   N5    1.157322 T    
C12   C15   1.408102 A    
C4    C17   1.472783 S    
C28   C29   1.392148 A    
C56   N6    1.157329 T    
Cu1   Cu2   2.690247 S    
C47   C48   1.516251 S    
Cu1   O7    1.946398 S    
N9    O18   1.301580 A    
N1    C11   1.439078 S    
C26   O12   1.349965 S    
C39   H11   1.083522 S    
C37   C40   1.389001 A    
C40   H12   1.077520 S    
C22   C23   1.414164 A    
C24   C25   1.408994 A    
O7    C4    1.297613 A    
C5    C13   1.404712 A    
C5    O9    1.349823 S    
C57   N10   1.157695 T    
C41   C46   1.375991 A    
N1    C6    1.369636 A    
C44   H14   1.083081 S    
C23   C27   1.412881 A    
Cu1   N4    2.021159 S    
O5    C3    1.294181 A    
O1    Cu1   1.961895 S    
C29   H3    1.076946 S    
C2    C16   1.460805 S    
N7    O13   1.300093 A    
C42   C43   1.406342 A    
C38   C39   1.388440 A    
C6    O11   1.349778 S    
C47   H15   1.110338 S    
Cu2   N3    2.021378 S    
C9    C10   1.397664 A    
C44   C45   1.405781 A    
C41   C48   1.494511 S    
N8    O15   1.302048 A    
O3    Cu1   1.952579 S    
C19   C20   1.418855 A    
C51   N7    1.424097 S    
C46   C47   1.492343 S    
C50   C51   1.420621 A    
C12   C34   1.419850 A    
C49   C52   1.407252 A    
C17   C29   1.401026 A    
C6    C15   1.404221 A    
C21   H5    1.079227 S    
C18   C21   1.408617 A    
C3    C45   1.445212 S    
C1    C42   1.444617 S    
N3    C50   1.361989 A    
O3    C2    1.298264 A    
C15   C37   1.396896 A    
C25   C26   1.400986 A    
C43   C44   1.395425 A    
C37   H8    1.083475 S    
C8    C16   1.400283 A    
C7    H7    1.082819 S    
C13   C14   1.396749 A    
C50   H19   1.082300 S    
O1    C1    1.294635 A    
C21   C22   1.396118 A    
C18   C20   1.415162 A    
C7    C11   1.402647 A    
C45   C46   1.394316 A    
C23   C24   1.413766 A    
C14   C36   1.394968 A    
C48   H18   1.112365 S    
C28   H4    1.083071 S    
C53   H20   1.110899 S    
C49   N3    1.365381 A    
Cu2   O8    1.952573 S    
C33   C36   1.427715 A    
C34   C35   1.421011 A    
N2    C32   1.439580 S    
C27   O10   1.348635 S    
C12   C13   1.405610 A    
N8    O16   1.299920 A    
C19   C38   1.413247 A    
C26   N2    1.367176 A    
N7    O14   1.299732 A    
C9    C16   1.409462 A    
O8    C4    1.303407 A    
C14   H2    1.085099 S    
C54   N8    1.465215 S    
C8    H6    1.083651 S    
C49   C54   1.491269 S    
C53   H21   1.109626 S    
C47   H16   1.112282 S    
Cu1   O5    1.961537 S    
C25   C39   1.397529 A    
C31   C32   1.410066 A    
C22   N9    1.435780 S    
C20   C24   1.420714 A    
C31   C56   1.443073 S    
O2    Cu2   1.961539 S    
C35   C40   1.414365 A    
O6    C3    1.293687 A    
O4    Cu2   1.946400 S    
C5    N1    1.370006 A    
C19   C35   1.419839 A    
C9    C55   1.444314 S    
N9    O17   1.301298 A    
C7    C8    1.393909 A    
O2    C1    1.293045 A    
C43   H13   1.083228 S    
C54   H22   1.109221 S    
C48   H17   1.110738 S    
C53   C54   1.522607 S    
O4    C2    1.294610 A    
C38   H9    1.077639 S    
C41   C42   1.393639 A    
C18   C33   1.424310 A    
C30   C31   1.398805 A    
N4    C52   1.363266 A    
C36   C57   1.446622 S    
Cu2   O6    1.961894 S    
C33   C34   1.421683 A    
C17   C30   1.405481 A    
C30   H10   1.084200 S    
C10   C11   1.403138 A    
C52   C53   1.491875 S    
C28   C32   1.401273 A    
