data_mof_unit_48035.cif
_audit_creation_date              2012-12-10T16:57:10-0500
_audit_creation_method            fapswitch 2.2
_symmetry_space_group_name_H-M    P1
_symmetry_Int_Tables_number       1
_space_group_crystal_system       triclinic
_cell_length_a                    7.835163
_cell_length_b                    8.560204
_cell_length_c                    16.837603
_cell_angle_alpha                 92.985172
_cell_angle_beta                  80.336406
_cell_angle_gamma                 93.685264
_cell_volume                      1110.00257736

loop_
_atom_site_label
_atom_site_type_symbol
_atom_type_description
_atom_site_fract_x
_atom_site_fract_y
_atom_site_fract_z
_atom_type_partial_charge
C1    C     C_R   0.545833 0.794479 0.498006 0.957053
C2    C     C_R   0.376882 0.418358 0.229947 -0.140106
C3    C     C_R   0.618548 0.605898 0.852082 -0.088616
C4    C     C_R   0.381443 0.393764 0.147947 -0.088627
C5    C     C_R   0.462007 0.581344 0.904287 0.177178
C6    C     C_R   0.537970 0.418325 0.095729 0.177174
C7    C     C_R   0.307341 0.544495 0.874823 -0.101066
C8    C     C_R   0.692636 0.455293 0.125179 -0.101100
C9    C     C_R   0.311244 0.522434 0.792297 -0.166147
C10   C     C_R   0.688740 0.477469 0.207699 -0.166103
C11   C     C_2   0.466615 0.564075 0.988575 0.211327
C12   C     C_R   0.454167 0.205520 0.501994 0.957037
C13   C     C_2   0.533321 0.435562 0.011442 0.211334
C14   C     C_2   0.569928 0.958046 0.496850 -0.340462
C15   C     C_2   0.430072 0.041954 0.503150 -0.340460
C16   C     C_R   0.478125 0.508090 0.653776 0.857619
C17   C     C_R   0.521874 0.491900 0.346224 0.857591
C18   C     C_R   0.470377 0.535620 0.739934 -0.040669
C19   C     C_R   0.529613 0.464286 0.260071 -0.040646
C20   C     C_R   0.623114 0.581427 0.770076 -0.140105
Cl1   Cl    Cl    0.614732 0.283664 0.943068 -0.573693
Cl2   Cl    Cl    0.385198 0.715973 0.056950 -0.573714
Cl3   Cl    Cl    0.048425 0.307712 0.418120 -0.521810
Cl4   Cl    Cl    0.951565 0.692270 0.581891 -0.521763
H1    H     H_    0.746649 0.595348 0.730683 0.202298
H2    H     H_    0.297878 0.991152 0.509178 0.218596
H3    H     H_    0.253353 0.404435 0.269347 0.202323
H4    H     H_    0.808240 0.510524 0.230167 0.176105
H5    H     H_    0.191741 0.489469 0.769817 0.176105
H6    H     H_    0.186391 0.524227 0.915709 0.159171
H7    H     H_    0.813574 0.475575 0.084282 0.159171
H8    H     H_    0.261630 0.366027 0.124740 0.156960
H9    H     H_    0.738359 0.633554 0.875300 0.156939
H10   H     H_    0.702122 0.008848 0.490821 0.218597
N1    N     N_2   0.953500 0.457650 0.478520 0.137506
N2    N     N_2   0.046500 0.542350 0.521480 0.137503
O1    O     O_R   0.388470 0.738640 0.505270 -0.597141
O2    O     O_R   0.611530 0.261360 0.494730 -0.597140
O3    O     O_R   0.679650 0.711510 0.491500 -0.576358
O4    O     O_R   0.320350 0.288490 0.508500 -0.576359
O5    O     O_R   0.337210 0.515200 0.623500 -0.609043
O6    O     O_R   0.662790 0.484800 0.376500 -0.609041
O7    O     O_R   0.628380 0.488060 0.609730 -0.592049
O8    O     O_R   0.371620 0.511940 0.390270 -0.592048
Zn1   Zn    Zn3+2 0.305580 0.518120 0.509190 1.093338
Zn2   Zn    Zn3+2 0.694420 0.481880 0.490810 1.093342

loop_
_geom_bond_atom_site_label_1
_geom_bond_atom_site_label_2
_ccdc_geom_bond_type
C12   O4    A    
C2    C4    A    
C3    H9    S    
C14   H10   S    
C2    H3    S    
C9    H5    S    
N1    Zn2   S    
C11   Cl2   S    
Cl3   N1    S    
N1    N2    D    
C12   C15   S    
C1    O1    A    
C10   C19   A    
C17   O8    A    
C13   Cl1   S    
N2    Zn1   S    
C7    H6    S    
Cl4   N2    S    
C6    C13   S    
C11   C13   D    
C16   O7    A    
C4    H8    S    
O3    Zn2   S    
C4    C6    A    
C17   C19   S    
C5    C11   S    
C18   C20   A    
C12   O2    A    
O4    Zn1   S    
O7    Zn2   S    
O2    Zn2   S    
C20   H1    S    
C1    O3    A    
O1    Zn1   S    
C7    C9    A    
C9    C18   A    
C3    C20   A    
O8    Zn1   S    
C8    C10   A    
O6    Zn2   S    
C10   H4    S    
C5    C7    A    
O5    Zn1   S    
C14   C15   D    
C15   H2    S    
C6    C8    A    
C1    C14   S    
C2    C19   A    
C17   O6    A    
C8    H7    S    
C16   O5    A    
C16   C18   S    
C3    C5    A    
