data_mof_unit_38894.cif
_audit_creation_date              2012-12-11T17:45:25-0500
_audit_creation_method            fapswitch 2.2
_symmetry_space_group_name_H-M    P1
_symmetry_Int_Tables_number       1
_space_group_crystal_system       triclinic
_cell_length_a                    15.009447
_cell_length_b                    14.989326
_cell_length_c                    15.234351
_cell_angle_alpha                 110.605634
_cell_angle_beta                  108.80591
_cell_angle_gamma                 108.679888
_cell_volume                      2648.18363085

loop_
_atom_site_label
_atom_site_type_symbol
_atom_type_description
_atom_site_fract_x
_atom_site_fract_y
_atom_site_fract_z
_atom_type_partial_charge
Br1   Br    Br    0.527126 0.096465 0.917646 -0.671204
Br2   Br    Br    0.720995 0.520636 0.279460 -0.626571
Br3   Br    Br    0.324977 0.791003 0.590544 -0.621466
Br4   Br    Br    0.655997 0.018896 0.354460 -0.657941
C1    C     C_R   0.972223 0.247707 0.060129 -0.105579
C2    C     C_R   0.701584 0.198755 0.789152 -0.158454
C3    C     C_R   0.776053 0.591294 0.025690 -0.104605
C4    C     C_R   0.313446 0.756995 0.224681 -0.134818
C5    C     C_R   0.946072 0.410717 0.686604 -0.134014
C6    C     C_R   0.674775 0.498939 0.951028 -0.019247
C7    C     C_R   0.964800 0.505184 0.680597 0.053556
C8    C     C_R   0.697528 0.142263 0.692852 0.059585
C9    C     C_R   0.059892 0.867754 0.070001 0.072921
C10   C     C_R   0.630245 0.299215 0.113289 -0.270215
C11   C     C_R   0.699192 0.374262 0.223088 0.328068
C12   C     C_R   0.319906 0.784183 0.324744 0.060184
C13   C     C_R   0.755365 0.343024 0.289224 0.009236
C14   C     C_R   0.730146 0.232856 0.247021 -0.230442
C15   C     C_R   0.657704 0.157311 0.137437 -0.158385
C16   C     C_R   0.208054 0.409623 0.900973 -0.221399
C17   C     C_R   0.610967 0.191806 0.069962 0.340237
C18   C     C_R   0.860584 0.431823 0.488150 -0.215362
C19   C     C_R   0.952862 0.514329 0.587085 0.052325
C20   C     C_R   0.038445 0.596736 0.592767 0.040784
C21   C     C_R   0.031761 0.589387 0.498576 -0.238003
C22   C     C_R   0.942904 0.505289 0.400066 0.086746
C23   C     C_R   0.297207 0.500380 0.925470 -0.039267
C24   C     C_R   0.853852 0.427603 0.393600 0.093286
C25   C     C_R   0.146123 0.785810 0.753840 -0.214818
C26   C     C_R   0.242061 0.870635 0.847217 -0.148701
C27   C     C_R   0.336005 0.862869 0.872996 -0.035695
C28   C     C_R   0.002174 0.591319 0.301667 -0.098848
C29   C     C_R   0.335450 0.771379 0.804159 0.359467
C30   C     C_R   0.236506 0.680714 0.716945 -0.122174
C31   C     C_R   0.140828 0.687145 0.692048 0.081423
C32   C     C_R   0.195805 0.017016 0.513591 -0.115564
C33   C     C_R   0.280291 0.011612 0.496336 -0.189322
C34   C     C_R   0.952143 0.500609 0.307504 0.093848
C35   C     C_R   0.316308 0.941204 0.515316 0.004660
C36   C     C_R   0.271239 0.881473 0.557637 0.350641
C37   C     C_R   0.182870 0.882885 0.568908 -0.191264
C38   C     C_R   0.144024 0.949006 0.544840 -0.167596
C39   C     C_R   0.507687 0.030980 0.594679 -0.172863
C40   C     C_R   0.295709 0.591252 0.990564 0.324010
C41   C     C_R   0.605553 0.041301 0.603271 0.065558
C42   C     C_R   0.610415 0.960907 0.524675 0.073024
C43   C     C_R   0.514299 0.871426 0.436882 -0.163478
C44   C     C_R   0.415728 0.863710 0.427115 0.094772
C45   C     C_R   0.686944 0.407811 0.934882 -0.124389
C46   C     C_R   0.413036 0.943792 0.508982 0.078146
C47   C     C_R   0.748265 0.006817 0.465698 0.318406
C48   C     C_R   0.856264 0.044465 0.490765 -0.210066
C49   C     C_R   0.928001 0.042244 0.574313 -0.173779
C50   C     C_R   0.891946 0.001592 0.632992 -0.086872
C51   C     C_R   0.785434 0.967749 0.611619 -0.162972
C52   C     C_R   0.917161 0.408956 0.213104 -0.145926
C53   C     C_R   0.713588 0.972590 0.529742 0.013151
C54   C     C_3   0.471964 0.383711 0.846478 -0.408509
C55   C     C_3   0.367748 0.387563 0.833929 -0.406906
C56   C     C_R   0.025234 0.593178 0.782902 -0.113263
C57   C     C_3   0.574484 0.529408 0.043612 -0.350524
C58   C     C_3   0.558365 0.580518 0.900033 -0.398952
C59   C     C_3   0.571905 0.497987 0.934118 0.361769
C60   C     C_3   0.395074 0.499575 0.922539 0.393614
C61   C     C_3   0.468366 0.521844 0.034493 -0.399567
C62   C     C_3   0.458930 0.588161 0.902721 -0.406813
C63   C     C_R   0.175349 0.058634 0.810100 -0.137803
C64   C     C_R   0.217487 0.745982 0.310464 -0.099149
C65   C     C_R   0.134131 0.056629 0.879554 -0.212516
C66   C     C_R   0.197139 0.135816 0.989378 0.105376
C67   C     C_R   0.789634 0.203809 0.695751 -0.102347
C68   C     C_R   0.301610 0.217406 0.029221 -0.153063
C69   C     C_R   0.342462 0.218790 0.959032 -0.105180
C70   C     C_R   0.280045 0.138692 0.849777 -0.043894
C71   C     C_R   0.164656 0.038931 0.081626 -0.217881
C72   C     C_R   0.092513 0.984200 0.107937 0.053980
C73   C     C_R   0.041807 0.037382 0.152306 0.021537
C74   C     C_R   0.054579 0.134023 0.154541 -0.227948
C75   C     C_R   0.094525 0.164482 0.092228 0.061496
C76   C     C_R   0.067576 0.251893 0.973047 -0.136258
C77   C     C_R   0.157900 0.121042 0.062296 0.032876
C78   C     C_R   0.999407 0.801613 0.095859 -0.145778
C79   C     C_R   0.852420 0.937276 0.113147 -0.161349
C80   C     C_R   0.778946 0.888559 0.141692 -0.125415
C81   C     C_R   0.816468 0.890812 0.239566 -0.054193
C82   C     C_R   0.927424 0.945656 0.310838 -0.139241
C83   C     C_R   0.000834 0.998787 0.284643 -0.182750
C84   C     C_R   0.963889 0.990534 0.183877 0.115578
C85   C     C_R   0.050314 0.222302 0.045833 0.053007
C86   C     C_3   0.441043 0.774557 0.821890 -0.969105
C87   C     C_3   0.349679 0.704100 0.009420 -1.101009
C88   C     C_R   0.091768 0.805265 0.007631 -0.146585
H1    H     H_    0.935645 0.233412 0.107361 0.094490
H2    H     H_    0.379872 0.777270 0.208711 0.149254
H3    H     H_    0.772711 0.207490 0.296769 0.179973
H4    H     H_    0.642711 0.073860 0.104171 0.163795
H5    H     H_    0.794912 0.370224 0.484716 0.152043
H6    H     H_    0.100009 0.647293 0.502074 0.167488
H7    H     H_    0.074485 0.794556 0.732601 0.129186
H8    H     H_    0.244427 0.943143 0.899403 0.154049
H9    H     H_    0.409947 0.929375 0.945277 0.158897
H10   H     H_    0.234649 0.607972 0.665069 0.128320
H11   H     H_    0.074883 0.948918 0.552218 0.120004
H12   H     H_    0.044666 0.676248 0.808640 0.117526
H13   H     H_    0.177579 0.325023 0.844314 0.120239
H14   H     H_    0.171136 0.074760 0.504292 0.107256
H15   H     H_    0.319279 0.063838 0.470846 0.133926
H16   H     H_    0.144387 0.833458 0.596538 0.153642
H17   H     H_    0.503685 0.093871 0.653949 0.137168
H18   H     H_    0.516434 0.810299 0.374123 0.138015
H19   H     H_    0.885448 0.079067 0.447749 0.160841
H20   H     H_    0.011910 0.073831 0.594674 0.114382
H21   H     H_    0.947349 0.000018 0.697649 0.115055
H22   H     H_    0.025390 0.674683 0.355463 0.113749
H23   H     H_    0.817002 0.183485 0.638450 0.120934
H24   H     H_    0.760273 0.942686 0.662061 0.135561
H25   H     H_    0.473973 0.321628 0.869522 0.157658
H26   H     H_    0.471217 0.357041 0.768092 0.162576
H27   H     H_    0.320842 0.374345 0.752845 0.160717
H28   H     H_    0.317960 0.319202 0.838875 0.155271
H29   H     H_    0.589252 0.474000 0.071180 0.192046
H30   H     H_    0.427366 0.455760 0.048051 0.170273
H31   H     H_    0.631265 0.662568 0.954379 0.148793
H32   H     H_    0.547380 0.553580 0.817477 0.171393
H33   H     H_    0.405115 0.578034 0.825931 0.166877
H34   H     H_    0.976238 0.823612 0.156089 0.129792
H35   H     H_    0.491217 0.670916 0.969371 0.179834
H36   H     H_    0.641104 0.614161 0.106066 0.178550
H37   H     H_    0.485746 0.599886 0.099580 0.168493
H38   H     H_    0.312606 0.138758 0.795899 0.137622
H39   H     H_    0.126817 0.995737 0.726557 0.120564
H40   H     H_    0.054576 0.991130 0.848801 0.122728
H41   H     H_    0.351787 0.277799 0.114223 0.135606
H42   H     H_    0.422577 0.281638 0.989452 0.120961
H43   H     H_    0.213231 0.006737 0.057894 0.126323
H44   H     H_    0.017586 0.174289 0.191423 0.128151
H45   H     H_    0.150712 0.833571 0.984070 0.097959
H46   H     H_    0.866689 0.324956 0.186759 0.112054
H47   H     H_    0.822805 0.932482 0.035808 0.124912
H48   H     H_    0.693089 0.847956 0.087496 0.118127
H49   H     H_    0.759638 0.850667 0.260443 0.137994
H50   H     H_    0.956467 0.946854 0.386220 0.129735
H51   H     H_    0.086487 0.040898 0.338912 0.118751
H52   H     H_    0.191451 0.745066 0.367465 0.122761
H53   H     H_    0.123020 0.247531 0.943777 0.128790
H54   H     H_    0.625661 0.322905 0.886257 0.118147
H55   H     H_    0.429024 0.697488 0.761047 0.251453
H56   H     H_    0.648793 0.168269 0.818025 0.166512
H57   H     H_    0.489959 0.842413 0.814941 0.310180
H58   H     H_    0.487241 0.790101 0.903842 0.224776
H59   H     H_    0.434388 0.750944 0.075691 0.261874
H60   H     H_    0.345775 0.698463 0.934279 0.260690
H61   H     H_    0.306322 0.748538 0.030413 0.265516
H62   H     H_    0.794728 0.675730 0.061308 0.104366
H63   H     H_    0.904050 0.327592 0.620644 0.114348
H64   H     H_    0.595424 0.325242 0.060415 0.147683
N1    N     N_R   0.947080 0.293830 0.002870 -0.040836
N2    N     N_R   0.153670 0.443180 0.946090 -0.050086
N3    N     N_R   0.002360 0.556820 0.208890 -0.048072
N4    N     N_R   0.210070 0.556820 0.002870 -0.049606
N5    N     N_R   0.945960 0.443180 0.152110 -0.040249
N6    N     N_R   0.151710 0.706170 0.208890 -0.049843
N7    N     N_R   0.004320 0.293830 0.946090 -0.043074
N8    N     N_R   0.789930 0.443180 0.997130 -0.030686
N9    N     N_R   0.054040 0.556820 0.847890 -0.041253
N10   N     N_R   0.848290 0.293830 0.791110 -0.045459
N11   N     N_R   0.995680 0.706170 0.053910 -0.044692
N12   N     N_R   0.052920 0.706170 0.997130 -0.042393
N13   N     N_R   0.791050 0.293830 0.847890 -0.042525
N14   N     N_R   0.846330 0.556820 0.053910 -0.034048
N15   N     N_R   0.997640 0.443180 0.791110 -0.041846
N16   N     N_R   0.208950 0.706170 0.152110 -0.044036
Ni1   Ni    Ni4+2 0.869690 0.369690 0.000000 0.238542
Ni2   Ni    Ni4+2 0.130310 0.630310 0.000000 0.213823
Ni3   Ni    Ni4+2 0.000970 0.369690 0.869780 0.216066
Ni4   Ni    Ni4+2 0.999030 0.630310 0.130220 0.227651

loop_
_geom_bond_atom_site_label_1
_geom_bond_atom_site_label_2
_ccdc_geom_bond_type
C34   C52   A    
N9    N15   A    
C3    C6    A    
C83   C84   A    
C33   H15   S    
Br1   C17   S    
C55   H28   S    
C37   H16   S    
C37   C38   A    
N2    Ni3   S    
C32   C38   A    
C6    C59   S    
C9    C88   A    
C86   H58   S    
N7    Ni3   S    
C38   H11   S    
C12   C44   S    
C79   H47   S    
N14   Ni4   S    
C81   C82   A    
N12   Ni2   S    
C55   C60   S    
C30   H10   S    
C27   H9    S    
C10   C17   A    
C32   C33   A    
C15   C17   A    
C2    H56   S    
C87   H61   S    
C2    C8    A    
C26   C27   A    
C71   H43   S    
N6    Ni4   S    
C51   H24   S    
C50   H21   S    
C26   H8    S    
C54   H26   S    
C14   C15   A    
C62   H35   S    
C57   H29   S    
C30   C31   A    
C69   C70   A    
C76   C85   A    
C57   C59   S    
C66   C77   S    
C78   H34   S    
C45   N8    A    
C42   C43   A    
N8    N14   A    
C23   C40   A    
C43   C44   A    
C73   C84   S    
C67   N10   A    
C19   C20   A    
C27   C29   A    
C47   C53   A    
C28   C34   A    
C64   N6    A    
N1    N7    A    
C28   N3    A    
C44   C46   A    
C79   C84   A    
C4    C12   A    
C18   H5    S    
C18   C24   A    
N2    N4    A    
C14   H3    S    
C86   H57   S    
C88   H45   S    
C58   H32   S    
C58   H31   S    
N16   Ni2   S    
C13   C14   A    
C78   N11   A    
C18   C19   A    
C86   H55   S    
C66   C68   A    
C25   H7    S    
Br4   C47   S    
C32   H14   S    
C47   C48   A    
C20   C31   S    
C80   C81   A    
C4    H2    S    
C20   C21   A    
C81   H49   S    
N11   N12   A    
C75   C77   A    
C58   C62   S    
C82   C83   A    
C22   C34   S    
C48   H19   S    
N9    Ni2   S    
C73   C74   A    
N15   Ni3   S    
C9    C78   A    
C54   H25   S    
C63   C65   A    
C60   C62   S    
C71   C72   A    
C76   N7    A    
C25   C26   A    
C57   C61   S    
C52   H46   S    
C88   N12   A    
C1    H1    S    
C79   C80   A    
C9    C72   S    
C58   C59   S    
N3    N5    A    
C29   C30   A    
N10   Ni3   S    
C67   H23   S    
N8    Ni1   S    
C63   C70   A    
C61   H30   S    
C72   C73   A    
Br2   C11   S    
C5    C7    A    
C5    H63   S    
C40   C87   S    
C12   C64   A    
C49   H20   S    
C76   H53   S    
C8    C67   A    
Br3   C36   S    
C1    N1    A    
N3    Ni4   S    
C70   H38   S    
C42   C53   S    
C40   N4    A    
C5    N15   A    
C7    C56   A    
C35   C36   A    
C48   C49   A    
C82   H50   S    
C16   H13   S    
C54   C59   S    
C11   C13   A    
C50   C51   A    
C36   C37   A    
C55   H27   S    
C10   H64   S    
C74   C75   A    
C13   C24   S    
N4    Ni2   S    
C63   H39   S    
N5    Ni1   S    
C68   C69   A    
C61   H37   S    
C39   C46   A    
C49   C50   A    
C8    C41   S    
C16   C23   A    
C71   C77   A    
C43   H18   S    
C25   C31   A    
C22   C24   A    
C56   N9    A    
C62   H33   S    
C83   H51   S    
C60   C61   S    
C51   C53   A    
C21   C22   A    
C39   C41   A    
C29   C86   S    
C87   H59   S    
C68   H41   S    
C87   H60   S    
C3    H62   S    
C65   H40   S    
C52   N5    A    
C7    C19   S    
C45   H54   S    
C64   H52   S    
C57   H36   S    
C65   C66   A    
C54   C55   S    
C75   C85   S    
C23   C60   S    
C41   C42   A    
C21   H6    S    
C35   C46   S    
N6    N16   A    
C69   H42   S    
C80   H48   S    
N10   N13   A    
C33   C35   A    
C3    N14   A    
N13   Ni1   S    
C10   C11   A    
C16   N2    A    
C39   H17   S    
C28   H22   S    
C56   H12   S    
C6    C45   A    
C74   H44   S    
C1    C85   A    
C15   H4    S    
C4    N16   A    
N1    Ni1   S    
N11   Ni4   S    
C2    N13   A    
