data_mof_unit_10849.cif
_audit_creation_date              2012-12-11T15:26:55-0500
_audit_creation_method            fapswitch 2.2
_symmetry_space_group_name_H-M    P1
_symmetry_Int_Tables_number       1
_space_group_crystal_system       triclinic
_cell_length_a                    14.00559
_cell_length_b                    14.009165
_cell_length_c                    27.369829
_cell_angle_alpha                 90.105864
_cell_angle_beta                  89.946119
_cell_angle_gamma                 119.432092
_cell_volume                      4677.05629406

loop_
_atom_site_label
_atom_site_type_symbol
_atom_type_description
_atom_site_fract_x
_atom_site_fract_y
_atom_site_fract_z
_atom_type_partial_charge
C1    C     C_R   0.233358 0.788521 0.567856 0.553258
C2    C     C_R   0.211718 0.444157 0.567560 0.565456
C3    C     C_R   0.554082 0.765987 0.568091 0.557631
C4    C     C_3   0.710864 0.738914 0.782080 0.153791
C5    C     C_3   0.265848 0.952297 0.785727 0.143754
C6    C     C_3   0.026939 0.269792 0.778431 0.145603
C7    C     C_3   0.658011 0.716546 0.729184 0.160640
C8    C     C_3   0.267031 0.955792 0.727761 0.180317
C9    C     C_3   0.054123 0.322331 0.725648 0.149576
C10   C     C_1   0.778762 0.880042 0.850256 0.049947
C11   C     C_1   0.137020 0.861131 0.856151 0.042218
C12   C     C_1   0.106032 0.214227 0.848952 0.041943
C13   C     C_1   0.645234 0.816483 0.654852 -0.004167
C14   C     C_1   0.179174 0.830661 0.654154 0.031542
C15   C     C_1   0.169393 0.340830 0.651766 0.014676
C16   C     C_1   0.609809 0.799441 0.613851 0.042302
C17   C     C_1   0.197644 0.812447 0.613129 0.070568
C18   C     C_1   0.188186 0.381546 0.611664 0.071644
C19   C     C_R   0.069246 0.159404 0.942157 0.513708
C20   C     C_R   0.839970 0.908551 0.942272 0.514792
C21   C     C_R   0.112570 0.894762 0.948394 0.554995
C22   C     C_R   0.601310 0.801649 0.382894 0.025365
C23   C     C_R   0.198334 0.798829 0.382747 0.025915
C24   C     C_R   0.201473 0.398496 0.382871 0.025940
C25   C     C_R   0.571310 0.867590 0.355498 -0.121344
C26   C     C_R   0.135691 0.703698 0.354869 -0.121520
C27   C     C_R   0.296606 0.429426 0.355027 -0.121318
C28   C     C_R   0.592749 0.881941 0.306000 -0.118643
C29   C     C_R   0.121895 0.711036 0.305325 -0.118699
C30   C     C_R   0.289190 0.408321 0.305443 -0.118598
C31   C     C_R   0.648199 0.834012 0.283113 0.036389
C32   C     C_R   0.167174 0.813762 0.282875 0.036235
C33   C     C_R   0.186384 0.352369 0.282943 0.036025
C34   C     C_R   0.234440 0.786227 0.431069 0.531542
C35   C     C_R   0.213882 0.447716 0.431087 0.530789
C36   C     C_R   0.552097 0.765518 0.431064 0.533029
C37   C     C_R   0.686320 0.775450 0.311277 -0.114436
C38   C     C_R   0.222510 0.909419 0.311460 -0.114639
C39   C     C_R   0.090774 0.313298 0.311547 -0.114792
C40   C     C_R   0.661313 0.757736 0.360838 -0.129789
C41   C     C_R   0.239620 0.901961 0.361081 -0.129056
C42   C     C_R   0.098301 0.337881 0.361187 -0.129547
C43   C     C_R   0.656770 0.752840 0.203735 -0.120477
C44   C     C_R   0.247946 0.904337 0.203962 -0.121263
C45   C     C_R   0.094977 0.343405 0.204103 -0.120384
C46   C     C_R   0.682504 0.763874 0.154546 -0.126534
C47   C     C_R   0.236873 0.919429 0.154820 -0.128060
C48   C     C_R   0.079804 0.317567 0.154902 -0.126182
C49   C     C_R   0.698475 0.944658 0.154256 0.247007
C50   C     C_R   0.058210 0.754799 0.153721 0.248971
C51   C     C_R   0.245484 0.302588 0.153517 0.246392
C52   C     C_R   0.678252 0.935175 0.204394 -0.090663
C53   C     C_R   0.067683 0.743518 0.203807 -0.090232
C54   C     C_R   0.256870 0.322999 0.203642 -0.090497
C55   C     C_R   0.662107 0.841306 0.229793 -0.021906
C56   C     C_R   0.160347 0.820887 0.229584 -0.021986
C57   C     C_R   0.179065 0.338664 0.229600 -0.022068
C58   C     C_R   0.713008 0.863127 0.130410 0.002009
C59   C     C_R   0.138426 0.850847 0.130316 0.002253
C60   C     C_R   0.148950 0.287489 0.130227 0.001929
C61   C     C_R   0.107233 0.223815 0.085064 0.598671
C62   C     C_R   0.776660 0.884326 0.085252 0.597853
C63   C     C_R   0.116158 0.892989 0.085267 0.584739
C64   C     C_3   0.612317 0.870921 0.736474 -0.190958
C65   C     C_3   0.167070 0.746091 0.733343 -0.206237
C66   C     C_3   0.255374 0.376204 0.733223 -0.195689
C67   C     C_3   0.800295 0.914043 0.710962 -0.299990
C68   C     C_3   0.062419 0.845443 0.720070 -0.303641
C69   C     C_3   0.120565 0.185630 0.709043 -0.295990
C70   C     C_3   0.833683 0.935865 0.765276 -0.312680
C71   C     C_3   0.059910 0.864798 0.775900 -0.313274
C72   C     C_3   0.118903 0.157407 0.763981 -0.302918
C73   C     C_1   0.807239 0.896389 0.892281 0.074364
C74   C     C_1   0.125247 0.870459 0.899046 0.082118
C75   C     C_1   0.091293 0.189383 0.891601 0.065877
C76   C     C_3   0.677558 0.828105 0.706581 -0.013612
C77   C     C_3   0.170193 0.845768 0.707119 -0.010886
C78   C     C_3   0.149383 0.306967 0.703485 -0.014877
C79   C     C_3   0.641034 0.877419 0.791763 -0.089660
C80   C     C_3   0.143818 0.744748 0.789006 -0.098641
C81   C     C_3   0.234315 0.353349 0.789082 -0.119508
C82   C     C_3   0.740427 0.857401 0.799163 -0.016710
C83   C     C_3   0.152163 0.855492 0.803202 -0.012272
C84   C     C_3   0.121485 0.248647 0.797015 -0.003540
Cr1   Cr    Cr6+3 0.164410 0.584450 0.499910 1.053411
Cr2   Cr    Cr6+3 0.415550 0.579960 0.499910 1.056629
Cr3   Cr    Cr6+3 0.420040 0.835590 0.499910 1.049939
Cr4   Cr    Cr6+3 0.156760 0.076070 0.017830 1.156756
Cr5   Cr    Cr6+3 0.923930 0.080690 0.017830 1.159133
Cr6   Cr    Cr6+3 0.919310 0.843240 0.017830 1.147228
H1    H     H_    0.523083 0.816518 0.731249 0.261518
H2    H     H_    0.246221 0.747269 0.727810 0.252040
H3    H     H_    0.287686 0.464076 0.725562 0.263593
H4    H     H_    0.569370 0.811876 0.811384 0.242109
H5    H     H_    0.206674 0.734248 0.809374 0.222199
H6    H     H_    0.230514 0.422862 0.806661 0.214580
H7    H     H_    0.789937 0.739677 0.776596 0.086889
H8    H     H_    0.271260 0.030141 0.798765 0.084555
H9    H     H_    0.956044 0.188516 0.771690 0.079689
H10   H     H_    0.523352 0.901389 0.371311 0.144585
H11   H     H_    0.104209 0.622619 0.370379 0.144627
H12   H     H_    0.377686 0.477899 0.370585 0.143765
H13   H     H_    0.636744 0.676397 0.221657 0.141532
H14   H     H_    0.323601 0.960650 0.222217 0.141670
H15   H     H_    0.038277 0.363031 0.222484 0.141576
H16   H     H_    0.685013 0.696687 0.136153 0.203868
H17   H     H_    0.303234 0.989181 0.136781 0.204948
H18   H     H_    0.009699 0.314753 0.136915 0.204724
H19   H     H_    0.560355 0.925635 0.285466 0.118889
H20   H     H_    0.080759 0.635825 0.284420 0.119136
H21   H     H_    0.364395 0.441345 0.284560 0.119091
H22   H     H_    0.678039 0.002662 0.223567 0.154886
H23   H     H_    0.001038 0.675670 0.222676 0.154966
H24   H     H_    0.325163 0.323657 0.222380 0.155036
H25   H     H_    0.732451 0.740467 0.294749 0.116399
H26   H     H_    0.255406 0.989914 0.295226 0.116316
H27   H     H_    0.010228 0.266760 0.295314 0.116308
H28   H     H_    0.630985 0.952599 0.722030 0.146303
H29   H     H_    0.102961 0.670557 0.715653 0.203936
H30   H     H_    0.317989 0.355246 0.720093 0.176192
H31   H     H_    0.685284 0.706905 0.381398 0.129253
H32   H     H_    0.287980 0.976113 0.382016 0.130430
H33   H     H_    0.024129 0.313216 0.382108 0.129268
H34   H     H_    0.850838 0.884075 0.691919 0.119350
H35   H     H_    0.056086 0.910612 0.699544 0.124070
H36   H     H_    0.039075 0.130977 0.692346 0.114502
H37   H     H_    0.817354 0.992322 0.693199 0.136199
H38   H     H_    0.990384 0.765670 0.709695 0.141234
H39   H     H_    0.181675 0.170357 0.689633 0.152570
H40   H     H_    0.856482 0.020408 0.774855 0.129715
H41   H     H_    0.977947 0.806502 0.790949 0.140932
H42   H     H_    0.188349 0.143036 0.772372 0.113364
H43   H     H_    0.904629 0.923785 0.771057 0.111885
H44   H     H_    0.073086 0.947687 0.782550 0.099620
H45   H     H_    0.043509 0.081685 0.771669 0.110720
H46   H     H_    0.702848 0.686145 0.705965 0.107928
H47   H     H_    0.246626 0.021038 0.718311 0.082562
H48   H     H_    0.980200 0.274530 0.702448 0.106389
O1    O     O_R   0.137310 0.468260 0.552980 -0.480091
O2    O     O_R   0.531740 0.669050 0.552980 -0.479821
O3    O     O_R   0.330950 0.862690 0.552980 -0.476872
O4    O     O_R   0.180530 0.983530 0.965090 -0.495812
O5    O     O_R   0.016470 0.197000 0.965090 -0.456472
O6    O     O_R   0.803000 0.819470 0.965090 -0.454427
O7    O     O_R   0.174120 0.688790 0.549730 -0.487036
O8    O     O_R   0.311210 0.485330 0.549730 -0.484947
O9    O     O_R   0.514670 0.825880 0.549730 -0.500587
O10   O     O_R   0.139940 0.470480 0.446230 -0.524134
O11   O     O_R   0.529520 0.669460 0.446230 -0.524018
O12   O     O_R   0.330540 0.860060 0.446230 -0.520598
O13   O     O_R   0.176560 0.690850 0.450770 -0.512560
O14   O     O_R   0.309150 0.485710 0.450770 -0.513316
O15   O     O_R   0.514290 0.823440 0.450770 -0.510672
O16   O     O_3   0.333333 0.666667 0.499990 -0.280760
O17   O     O_3   1.000000 0.000000 0.017910 -0.344295
O18   O     O_R   0.149710 0.171070 0.967700 -0.464053
O19   O     O_R   0.828930 0.978640 0.967700 -0.477303
O20   O     O_R   0.021360 0.850290 0.967700 -0.514718
O21   O     O_R   0.178510 0.985930 0.071830 -0.481897
O22   O     O_R   0.014070 0.192580 0.071830 -0.481590
O23   O     O_R   0.807420 0.821490 0.071830 -0.479289
O24   O     O_R   0.147830 0.173300 0.066650 -0.430799
O25   O     O_R   0.826700 0.974530 0.066650 -0.433621
O26   O     O_R   0.025470 0.852170 0.066650 -0.435284
C85   C     C_2   0.662757 0.986242 0.813040 0.314068
H49   H     H_    0.712854 0.062088 0.793414 0.157873
O27   O     O_2   0.626479 0.989978 0.853128 -0.412482
C86   C     C_2   0.032820 0.649615 0.802772 0.280920
H50   H     H_    0.961921 0.626978 0.779653 0.162865
O28   O     O_2   0.021316 0.599581 0.840752 -0.395611
C87   C     C_2   0.327644 0.344708 0.812659 0.259279
H51   H     H_    0.355893 0.291586 0.797189 0.151767
O29   O     O_2   0.371597 0.396889 0.849569 -0.397952
S1    S     S_3+6 0.700636 0.056583 0.123430 0.025360
O30   O     O_2   0.816333 0.149444 0.121051 -0.292692
O31   O     O_2   0.655979 0.023336 0.072549 -0.237315
O32   O     O_3   0.623459 0.098274 0.154084 -0.537334
H52   H     H_    0.629816 0.161424 0.135220 0.381065
S2    S     S_3+6 0.947905 0.645763 0.122453 0.025317
O33   O     O_2   0.852925 0.667039 0.120383 -0.289936
O34   O     O_2   0.982044 0.635778 0.071452 -0.242844
O35   O     O_3   0.909115 0.527659 0.152516 -0.537822
H53   H     H_    0.846885 0.471170 0.133393 0.381153
S3    S     S_3+6 0.354945 0.300730 0.122016 0.027774
O36   O     O_2   0.334635 0.185222 0.119498 -0.290117
O37   O     O_2   0.364304 0.344952 0.071174 -0.233600
O38   O     O_3   0.473039 0.378517 0.152131 -0.537692
H54   H     H_    0.529699 0.372179 0.132956 0.381023
S4    S     S_3+6 0.515617 0.611132 0.725685 0.011137
O39   O     O_2   0.466070 0.612893 0.677293 -0.272861
O40   O     O_2   0.508700 0.501197 0.730330 -0.266819
O41   O     O_3   0.442297 0.629544 0.769686 -0.502048
H55   H     H_    0.414269 0.564264 0.790714 0.399980
S5    S     S_3+6 0.396392 0.003661 0.695837 0.045868
O42   O     O_2   0.387402 0.048455 0.647213 -0.296012
O43   O     O_2   0.490104 0.094139 0.723150 -0.185601
O44   O     O_3   0.421785 0.899812 0.685919 -0.522142
H56   H     H_    0.474631 0.924203 0.658450 0.362060
S6    S     S_3+6 0.082208 0.463018 0.721033 0.001525
O45   O     O_2   0.117748 0.506054 0.670217 -0.270445
O46   O     O_2   0.979982 0.468974 0.730976 -0.252429
O47   O     O_3   0.183295 0.545740 0.759153 -0.547244
H57   H     H_    0.147586 0.542587 0.790506 0.396170
S7    S     S_3+6 0.650179 0.635292 0.829489 0.067561
O48   O     O_2   0.557616 0.640830 0.854607 -0.232639
O49   O     O_2   0.611564 0.522152 0.809803 -0.166444
O50   O     O_3   0.747934 0.659710 0.871106 -0.526117
H58   H     H_    0.709496 0.607234 0.897920 0.399054
S8    S     S_3+6 0.380676 0.948627 0.814742 0.065524
O51   O     O_2   0.412155 0.876983 0.786077 -0.271753
O52   O     O_2   0.476291 0.062922 0.817780 -0.161467
O53   O     O_3   0.349830 0.899320 0.871999 -0.512619
H59   H     H_    0.408143 0.882285 0.881276 0.404441
S9    S     S_3+6 0.967277 0.317767 0.824748 0.049154
O54   O     O_2   0.054570 0.412074 0.853140 -0.239913
O55   O     O_2   0.887330 0.348348 0.803489 -0.165788
O56   O     O_3   0.896253 0.213504 0.863632 -0.544097
H60   H     H_    0.870643 0.244660 0.889716 0.402968

loop_
_geom_bond_atom_site_label_1
_geom_bond_atom_site_label_2
_ccdc_geom_bond_type
C58   C62   S    
C65   H2    S    
S5    O43   D    
C87   H51   S    
C3    O9    A    
C85   H49   S    
C2    C18   S    
C24   C42   A    
C21   O20   A    
C20   O6    A    
C15   C18   T    
C1    O7    A    
Cr1   O10   S    
C63   O21   A    
C67   H34   S    
C71   H44   S    
C44   H14   S    
C25   C28   A    
C40   H31   S    
C87   O29   D    
C45   C57   A    
C7    H46   S    
C33   C39   A    
Cr3   O9    S    
C2    O1    A    
Cr4   O18   S    
Cr1   O7    S    
C21   O4    A    
C37   C40   A    
Cr2   O14   S    
C80   C83   S    
C26   H11   S    
C5    C83   S    
C10   C73   T    
S9    O55   D    
C36   O11   A    
Cr5   O17   S    
C15   C78   S    
C52   H22   S    
C11   C74   T    
C54   H24   S    
C70   H40   S    
S8    O53   S    
C64   H28   S    
S3    O36   D    
C12   C84   S    
C23   C26   A    
S4    O40   D    
S1    O30   D    
O35   H53   S    
C1    O3    A    
C45   H15   S    
Cr3   O12   S    
C36   O15   A    
S6    O47   S    
C19   O5    A    
C24   C27   A    
C8    S5    S    
C32   C38   A    
Cr1   O1    S    
C44   C47   A    
Cr2   O2    S    
Cr1   O16   S    
S2    O35   S    
C49   C52   A    
C86   O28   D    
S5    O42   D    
S6    O45   D    
C85   O27   D    
C65   C80   S    
C66   H30   S    
C4    H7    S    
C46   C58   A    
C27   C30   A    
C19   O18   A    
C14   C17   T    
C69   C78   S    
O44   H56   S    
C48   C60   A    
C6    C9    S    
C4    C7    S    
Cr2   O8    S    
Cr4   O4    S    
C49   S1    S    
C53   H23   S    
C42   H33   S    
C72   H42   S    
C39   C42   A    
C71   C83   S    
C65   H29   S    
C63   O26   A    
C66   C78   S    
C80   C86   S    
C24   C35   S    
C6    C84   S    
O47   H57   S    
Cr6   O23   S    
O50   H58   S    
C50   C53   A    
Cr4   O17   S    
C29   H20   S    
C65   C77   S    
C79   H4    S    
C51   S3    S    
Cr2   O11   S    
C14   C77   S    
C81   H6    S    
S9    O54   D    
C72   H45   S    
S5    O44   S    
C11   C83   S    
O56   H60   S    
Cr5   O5    S    
C47   C59   A    
C21   C74   S    
C22   C25   A    
C79   C85   S    
C49   C58   A    
C31   C37   A    
Cr6   O26   S    
C60   C61   S    
C41   H32   S    
Cr6   O20   S    
S4    O41   S    
Cr1   O13   S    
C67   H37   S    
C70   H43   S    
C38   H26   S    
C9    H48   S    
C44   C56   A    
C25   H10   S    
C62   O25   A    
C6    S9    S    
C13   C76   S    
C23   C34   S    
C22   C40   A    
Cr3   O15   S    
S8    O51   D    
C64   C76   S    
Cr3   O16   S    
Cr3   O3    S    
C80   H5    S    
C81   C87   S    
C3    O2    A    
S1    O32   S    
C72   C84   S    
C38   C41   A    
C66   H3    S    
C43   C55   A    
C86   H50   S    
S7    O49   D    
C69   H36   S    
C47   H17   S    
C20   O19   A    
C8    C77   S    
C64   C79   S    
C61   O22   A    
C5    C8    S    
C35   O14   A    
C50   C59   A    
C81   C84   S    
C5    S8    S    
Cr5   O22   S    
C45   C48   A    
C68   C77   S    
C61   O24   A    
C68   H38   S    
C33   C57   S    
C30   C33   A    
C59   C63   S    
C28   C31   A    
C7    S4    S    
C69   C72   S    
S9    O56   S    
C79   C82   S    
C10   C82   S    
C34   O13   A    
C52   C55   A    
C13   C16   T    
Cr5   O19   S    
C7    C76   S    
C37   H25   S    
C28   H19   S    
C2    O8    A    
C22   C36   S    
C27   H12   S    
C1    C17   S    
C23   C41   A    
S3    O38   S    
C30   H21   S    
C67   C70   S    
C6    H9    S    
C51   C54   A    
C51   C60   A    
C19   C75   S    
C50   S2    S    
Cr2   O16   S    
C29   C32   A    
C39   H27   S    
O41   H55   S    
C66   C81   S    
Cr5   O25   S    
C48   H18   S    
Cr4   O21   S    
C68   C71   S    
Cr4   O24   S    
C46   H16   S    
S8    O52   D    
S1    O31   D    
S3    O37   D    
C20   C73   S    
S7    O50   S    
C35   O10   A    
C34   O12   A    
S4    O39   D    
C70   C82   S    
C43   C46   A    
C43   H13   S    
C4    S7    S    
C71   H41   S    
S2    O33   D    
C62   O23   A    
O38   H54   S    
C4    C82   S    
S7    O48   D    
C26   C29   A    
C69   H39   S    
O32   H52   S    
C9    C78   S    
C12   C75   T    
C53   C56   A    
S6    O46   D    
C8    H47   S    
C67   C76   S    
C64   H1    S    
C31   C55   S    
Cr6   O17   S    
C68   H35   S    
C32   C56   S    
Cr6   O6    S    
C3    C16   S    
C9    S6    S    
O53   H59   S    
C5    H8    S    
S2    O34   D    
C54   C57   A    
