data_mof_unit_60901.cif
_audit_creation_date              2012-12-10T18:05:25-0500
_audit_creation_method            fapswitch 2.2
_symmetry_space_group_name_H-M    P1
_symmetry_Int_Tables_number       1
_space_group_crystal_system       triclinic
_cell_length_a                    30.724901
_cell_length_b                    30.681474
_cell_length_c                    23.499139
_cell_angle_alpha                 90.0264
_cell_angle_beta                  130.639382
_cell_angle_gamma                 90.012214
_cell_volume                      16809.6810458

loop_
_atom_site_label
_atom_site_type_symbol
_atom_type_description
_atom_site_fract_x
_atom_site_fract_y
_atom_site_fract_z
_atom_type_partial_charge
C1    C     C_R   0.808976 0.809461 0.499383 0.789913
C2    C     C_R   0.191010 0.809451 0.500593 0.789696
C3    C     C_R   0.309411 0.309415 0.500386 0.787632
C4    C     C_R   0.690993 0.309476 0.500604 0.789305
C5    C     C_R   0.442689 0.747679 0.885664 0.070763
C6    C     C_R   0.557242 0.747608 0.114492 0.069950
C7    C     C_R   0.942422 0.249092 0.885744 0.070162
C8    C     C_R   0.058057 0.249243 0.114746 0.068678
C9    C     C_1   0.483021 0.746711 0.966291 -0.033251
C10   C     C_1   0.516874 0.746684 0.033862 -0.034487
C11   C     C_1   0.983068 0.248450 0.966444 -0.032261
C12   C     C_1   0.017242 0.248527 0.034051 -0.033390
C13   C     C_R   0.901636 0.843828 0.555209 0.103712
C14   C     C_R   0.098425 0.844136 0.444073 0.107762
C15   C     C_R   0.334572 0.351098 0.436244 0.075871
C16   C     C_R   0.597981 0.341795 0.448277 0.113796
C17   C     C_R   0.842010 0.843483 0.500361 -0.076782
C18   C     C_R   0.157986 0.843430 0.499676 -0.075556
C19   C     C_R   0.341724 0.343390 0.500253 -0.061366
C20   C     C_R   0.657747 0.343491 0.499338 -0.080377
C21   C     C_R   0.814193 0.879201 0.451365 -0.220194
C22   C     C_R   0.185854 0.878774 0.549619 -0.209560
C23   C     C_R   0.374498 0.372717 0.560552 -0.210499
C24   C     C_R   0.685070 0.380860 0.544283 -0.209549
C25   C     C_R   0.846354 0.911286 0.450872 -0.186437
C26   C     C_R   0.153663 0.910873 0.550014 -0.207017
C27   C     C_R   0.406513 0.405215 0.560543 -0.225000
C28   C     C_R   0.652925 0.412905 0.544858 -0.212566
C29   C     C_R   0.906490 0.908588 0.501408 -0.096808
C30   C     C_R   0.093478 0.908529 0.498578 -0.086008
C31   C     C_R   0.404500 0.409145 0.499208 -0.092260
C32   C     C_R   0.593167 0.408396 0.498478 -0.079929
C33   C     C_R   0.933390 0.876237 0.556399 0.133156
C34   C     C_R   0.066669 0.876530 0.442900 0.140376
C35   C     C_R   0.365271 0.383610 0.435570 0.165773
C36   C     C_R   0.566115 0.374101 0.447109 0.146745
C37   C     C_3   0.979519 0.845096 0.578675 -0.485548
C38   C     C_3   0.019984 0.845512 0.419122 -0.486386
C39   C     C_3   0.373908 0.356514 0.390808 -0.466350
C40   C     C_3   0.523190 0.342168 0.432625 -0.508419
C41   C     C_3   0.944417 0.809440 0.577122 -0.457587
C42   C     C_3   0.055080 0.809875 0.420651 -0.458636
C43   C     C_3   0.340049 0.320770 0.391604 -0.482591
C44   C     C_3   0.558317 0.306658 0.434000 -0.448122
C45   C     C_R   0.677867 0.750090 0.355482 0.806051
C46   C     C_R   0.322157 0.750125 0.644560 0.826522
C47   C     C_R   0.178077 0.250237 0.355567 0.804504
C48   C     C_R   0.822070 0.250226 0.644555 0.827933
C49   C     C_R   0.049997 0.722348 0.153877 -0.185349
C50   C     C_R   0.950836 0.723121 0.845951 -0.211456
C51   C     C_R   0.550126 0.222004 0.153992 -0.188012
C52   C     C_R   0.447841 0.220025 0.845821 -0.217227
C53   C     C_R   0.088894 0.722083 0.232152 -0.200394
C54   C     C_R   0.912095 0.723157 0.767672 -0.191160
C55   C     C_R   0.589035 0.221851 0.232262 -0.200139
C56   C     C_R   0.409133 0.220172 0.767542 -0.198504
C57   C     C_R   0.136561 0.750074 0.272474 -0.082366
C58   C     C_R   0.863094 0.749762 0.727512 -0.054806
C59   C     C_R   0.636562 0.249984 0.272467 -0.081459
C60   C     C_R   0.362913 0.249528 0.727501 -0.069145
C61   C     C_R   0.144540 0.778307 0.232831 -0.184759
C62   C     C_R   0.853524 0.776241 0.767314 -0.213928
C63   C     C_R   0.644385 0.278249 0.232700 -0.179896
C64   C     C_R   0.356005 0.278590 0.767413 -0.234337
C65   C     C_R   0.105767 0.778931 0.154238 0.184708
C66   C     C_R   0.892443 0.776458 0.846181 0.188705
C67   C     C_R   0.605584 0.278765 0.154094 0.186028
C68   C     C_R   0.394958 0.278751 0.846277 0.189311
C69   C     C_R   0.057914 0.750538 0.114434 0.104973
C70   C     C_R   0.941298 0.749600 0.885378 0.129175
C71   C     C_R   0.557878 0.250223 0.114419 0.106522
C72   C     C_R   0.441067 0.249167 0.885363 0.129573
C73   C     C_1   0.016627 0.749607 0.033668 -0.062877
C74   C     C_1   0.982250 0.749308 0.966126 -0.029754
C75   C     C_1   0.516539 0.249193 0.033654 -0.063072
C76   C     C_1   0.482096 0.248844 0.966112 -0.032453
C77   C     C_R   0.620281 0.631782 0.438837 -0.077909
C78   C     C_R   0.318579 0.623246 0.452983 -0.059311
C79   C     C_R   0.099872 0.158935 0.454950 -0.054929
C80   C     C_R   0.818195 0.129917 0.440940 -0.068461
C81   C     C_R   0.657498 0.658171 0.501486 -0.143499
C82   C     C_R   0.344102 0.657735 0.503136 -0.151130
C83   C     C_R   0.159214 0.157495 0.503031 -0.159764
C84   C     C_R   0.844119 0.158176 0.501564 -0.149418
C85   C     C_R   0.655484 0.657269 0.559714 0.474766
C86   C     C_R   0.404779 0.660200 0.554894 0.475676
C87   C     C_R   0.187288 0.122382 0.554499 0.482413
C88   C     C_R   0.904556 0.159075 0.556779 0.473688
C89   C     C_R   0.691056 0.690704 0.500848 0.873299
C90   C     C_R   0.309586 0.690694 0.500588 0.862309
C91   C     C_R   0.190821 0.190683 0.500206 0.840542
C92   C     C_R   0.809914 0.190692 0.501050 0.870857
C93   C     C_R   0.623368 0.624382 0.559490 -0.283659
C94   C     C_R   0.436890 0.626883 0.555136 -0.290153
C95   C     C_R   0.154328 0.089660 0.553313 -0.277322
C96   C     C_R   0.936546 0.126179 0.556650 -0.329892
C97   C     C_R   0.590640 0.594898 0.499270 -0.196141
C98   C     C_R   0.408801 0.593260 0.501216 -0.169338
C99   C     C_R   0.093888 0.091786 0.501285 -0.170335
C100  C     C_R   0.908777 0.094865 0.499134 -0.135214
C101  C     C_R   0.586431 0.601173 0.437050 0.023044
C102  C     C_R   0.349495 0.592930 0.451232 0.001460
C103  C     C_R   0.068706 0.127232 0.453500 -0.000915
C104  C     C_R   0.850085 0.099189 0.439308 0.048693
C105  C     C_3   0.594805 0.569087 0.396291 0.386158
C106  C     C_3   0.296910 0.569720 0.385252 0.382165
C107  C     C_3   0.012648 0.147871 0.389543 0.379783
C108  C     C_3   0.801920 0.066761 0.400278 0.373019
C109  C     C_3   0.631861 0.603267 0.398437 -0.492323
C110  C     C_3   0.261950 0.604610 0.387821 -0.491666
C111  C     C_3   0.048761 0.183980 0.391659 -0.479254
C112  C     C_3   0.766767 0.101068 0.402758 -0.521460
C113  C     C_R   0.440835 0.559641 0.500130 0.828939
C114  C     C_R   0.559465 0.559688 0.499953 0.822324
C115  C     C_R   0.940616 0.059737 0.499939 0.873631
C116  C     C_R   0.059827 0.059104 0.500143 0.830668
C117  C     C_R   0.940512 0.940544 0.500154 0.818918
C118  C     C_R   0.059427 0.940483 0.499820 0.793806
C119  C     C_R   0.440158 0.440677 0.499964 0.795959
C120  C     C_R   0.559375 0.440484 0.499811 0.796375
C121  C     C_R   0.822073 0.749909 0.644522 0.817998
C122  C     C_R   0.177829 0.749974 0.355469 0.791684
C123  C     C_R   0.322014 0.249842 0.644519 0.788561
C124  C     C_R   0.677835 0.249959 0.355467 0.796004
C125  C     C_R   0.441901 0.783297 0.847955 -0.236531
C126  C     C_R   0.559997 0.784128 0.152306 -0.240515
C127  C     C_R   0.939825 0.285233 0.847442 -0.235421
C128  C     C_R   0.065492 0.287229 0.153180 -0.234897
C129  C     C_R   0.402080 0.785176 0.769347 0.499181
C130  C     C_R   0.599917 0.785952 0.230911 0.495195
C131  C     C_R   0.899959 0.286635 0.768808 0.496603
C132  C     C_R   0.105521 0.288481 0.231811 0.490911
C133  C     C_R   0.363610 0.750071 0.727732 -0.130826
C134  C     C_R   0.636447 0.749974 0.272378 -0.136191
C135  C     C_R   0.863298 0.250580 0.727724 -0.129966
C136  C     C_R   0.137246 0.250628 0.272612 -0.136464
C137  C     C_R   0.364761 0.714553 0.766597 -0.258196
C138  C     C_R   0.633362 0.713538 0.233473 -0.269798
C139  C     C_R   0.866107 0.214585 0.767109 -0.255993
C140  C     C_R   0.129901 0.212846 0.233238 -0.268993
C141  C     C_R   0.403957 0.713413 0.844923 -0.158002
C142  C     C_R   0.594080 0.712402 0.155137 -0.157244
C143  C     C_R   0.905354 0.213878 0.845491 -0.157004
C144  C     C_R   0.090551 0.212170 0.154879 -0.157630
Cu1   Cu    Cu3+1 0.780910 0.719080 0.500000 0.942173
Cu2   Cu    Cu3+1 0.219090 0.719080 0.500000 0.940157
Cu3   Cu    Cu3+1 0.280910 0.219080 0.500000 0.968696
Cu4   Cu    Cu3+1 0.719090 0.219080 0.500000 0.935936
Cu5   Cu    Cu3+1 0.719070 0.780890 0.500010 0.977748
Cu6   Cu    Cu3+1 0.280930 0.780890 0.499990 0.985153
Cu7   Cu    Cu3+1 0.219070 0.280890 0.500010 0.969443
Cu8   Cu    Cu3+1 0.780930 0.280890 0.499990 0.986713
Cu9   Cu    Cu3+1 0.462710 0.500000 0.425470 0.965396
Cu10  Cu    Cu3+1 0.537290 0.500000 0.574530 0.946022
Cu11  Cu    Cu3+1 0.962710 0.000000 0.425470 0.964694
Cu12  Cu    Cu3+1 0.037290 0.000000 0.574530 0.942597
H1    H     H_    0.471890 0.809925 0.879441 0.149676
H2    H     H_    0.531511 0.811491 0.120908 0.149460
H3    H     H_    0.968443 0.312620 0.878478 0.150461
H4    H     H_    0.040608 0.316109 0.122267 0.152287
H5    H     H_    0.965333 0.795706 0.633458 0.195057
H6    H     H_    0.034535 0.796530 0.364176 0.198768
H7    H     H_    0.366152 0.291440 0.423872 0.215769
H8    H     H_    0.535633 0.290813 0.378569 0.198621
H9    H     H_    0.013522 0.700449 0.123961 0.148590
H10   H     H_    0.988436 0.702439 0.875835 0.143679
H11   H     H_    0.513764 0.199996 0.124182 0.145566
H12   H     H_    0.483283 0.197195 0.875614 0.145442
H13   H     H_    0.081567 0.699930 0.261031 0.162620
H14   H     H_    0.920648 0.702403 0.738657 0.160379
H15   H     H_    0.581827 0.199665 0.261231 0.161144
H16   H     H_    0.415466 0.197272 0.738430 0.166845
H17   H     H_    0.180993 0.800210 0.262819 0.166161
H18   H     H_    0.815873 0.796848 0.737152 0.149443
H19   H     H_    0.680725 0.300259 0.262599 0.167227
H20   H     H_    0.320550 0.301379 0.737342 0.152435
H21   H     H_    0.625411 0.621117 0.607073 0.171660
H22   H     H_    0.483290 0.627452 0.596666 0.164494
H23   H     H_    0.175913 0.062599 0.592131 0.168448
H24   H     H_    0.982477 0.124409 0.602225 0.169667
H25   H     H_    0.619918 0.540110 0.431366 0.087673
H26   H     H_    0.292419 0.572452 0.334471 0.097948
H27   H     H_    0.988643 0.127677 0.337848 0.101461
H28   H     H_    0.784576 0.060770 0.342131 0.097816
H29   H     H_    0.677725 0.593656 0.434272 0.178389
H30   H     H_    0.237738 0.626857 0.338656 0.160003
H31   H     H_    0.045080 0.184195 0.341366 0.163843
H32   H     H_    0.730078 0.113686 0.346226 0.169928
H33   H     H_    0.613251 0.616641 0.342728 0.205480
H34   H     H_    0.237349 0.592075 0.403920 0.216720
H35   H     H_    0.045603 0.216498 0.409571 0.217549
H36   H     H_    0.755801 0.093945 0.438370 0.207304
H37   H     H_    0.335672 0.687333 0.736403 0.175990
H38   H     H_    0.660947 0.685620 0.263666 0.175632
H39   H     H_    0.838372 0.186657 0.737267 0.174452
H40   H     H_    0.154002 0.183547 0.263126 0.174287
H41   H     H_    0.404184 0.685707 0.873690 0.146007
H42   H     H_    0.592308 0.683986 0.126291 0.148359
H43   H     H_    0.906977 0.185749 0.874684 0.145654
H44   H     H_    0.085229 0.182635 0.125605 0.147017
H45   H     H_    0.767828 0.881153 0.411313 0.145923
H46   H     H_    0.232236 0.880414 0.590399 0.141503
H47   H     H_    0.377369 0.369200 0.608783 0.144448
H48   H     H_    0.731260 0.384222 0.581360 0.145042
H49   H     H_    0.824423 0.937539 0.410418 0.191810
H50   H     H_    0.175595 0.936885 0.591048 0.154671
H51   H     H_    0.433769 0.426333 0.608936 0.162830
H52   H     H_    0.674628 0.440613 0.582166 0.151775
H53   H     H_    0.982962 0.841229 0.534704 0.185602
H54   H     H_    0.015871 0.841327 0.462418 0.185486
H55   H     H_    0.351418 0.370293 0.334045 0.203851
H56   H     H_    0.523305 0.340006 0.479967 0.190486
H57   H     H_    0.020654 0.851926 0.635905 0.204533
H58   H     H_    0.979224 0.852715 0.361767 0.206166
H59   H     H_    0.419650 0.347942 0.422684 0.188624
H60   H     H_    0.480243 0.346776 0.376421 0.204967
H61   H     H_    0.927408 0.784926 0.532105 0.211428
H62   H     H_    0.071413 0.785053 0.464976 0.210853
H63   H     H_    0.297950 0.314042 0.335341 0.192212
H64   H     H_    0.578764 0.283898 0.482128 0.210115
O1    O     O_R   0.821190 0.768980 0.500000 -0.588550
O2    O     O_R   0.178810 0.768980 0.500000 -0.588841
O3    O     O_R   0.321190 0.268980 0.500000 -0.586762
O4    O     O_R   0.678810 0.268980 0.500000 -0.589148
O5    O     O_R   0.486270 0.545120 0.562900 -0.591136
O6    O     O_R   0.513730 0.545120 0.437100 -0.580242
O7    O     O_R   0.986270 0.045120 0.562900 -0.597012
O8    O     O_R   0.013730 0.045120 0.437100 -0.584584
O9    O     O_R   0.923420 0.954920 0.437060 -0.584815
O10   O     O_R   0.076580 0.954920 0.562940 -0.591350
O11   O     O_R   0.423420 0.454920 0.437060 -0.576660
O12   O     O_R   0.576580 0.454920 0.562940 -0.586200
O13   O     O_R   0.986330 0.954940 0.562940 -0.585058
O14   O     O_R   0.013670 0.954940 0.437060 -0.584868
O15   O     O_R   0.486330 0.454940 0.562940 -0.590868
O16   O     O_R   0.513670 0.454940 0.437060 -0.576922
O17   O     O_R   0.768960 0.821170 0.500020 -0.585180
O18   O     O_R   0.231040 0.821170 0.499980 -0.583494
O19   O     O_R   0.268960 0.321170 0.500020 -0.582630
O20   O     O_R   0.731040 0.321170 0.499980 -0.583758
O21   O     O_R   0.721730 0.723890 0.391250 -0.597665
O22   O     O_R   0.278270 0.723890 0.608750 -0.601167
O23   O     O_R   0.221730 0.223890 0.391250 -0.598946
O24   O     O_R   0.778270 0.223890 0.608750 -0.601080
O25   O     O_R   0.669500 0.776090 0.391270 -0.534219
O26   O     O_R   0.330500 0.776090 0.608730 -0.522708
O27   O     O_R   0.169500 0.276090 0.391270 -0.532583
O28   O     O_R   0.830500 0.276090 0.608730 -0.524727
O29   O     O_R   0.731010 0.678810 0.499990 -0.591527
O30   O     O_R   0.268990 0.678810 0.500010 -0.590396
O31   O     O_R   0.231010 0.178810 0.499990 -0.548179
O32   O     O_R   0.768990 0.178810 0.500010 -0.596678
O33   O     O_R   0.678790 0.731000 0.500010 -0.578400
O34   O     O_R   0.321210 0.731000 0.499990 -0.570558
O35   O     O_R   0.178790 0.231000 0.500010 -0.595946
O36   O     O_R   0.821210 0.231000 0.499990 -0.572466
O37   O     O_R   0.830470 0.723890 0.608750 -0.592009
O38   O     O_R   0.169530 0.723890 0.391250 -0.589851
O39   O     O_R   0.330470 0.223890 0.608750 -0.578497
O40   O     O_R   0.669530 0.223890 0.391250 -0.590440
O41   O     O_R   0.778250 0.776080 0.608760 -0.586295
O42   O     O_R   0.221750 0.776080 0.391240 -0.594008
O43   O     O_R   0.278250 0.276080 0.608760 -0.596097
O44   O     O_R   0.721750 0.276080 0.391240 -0.591682
O45   O     O_R   0.423360 0.545090 0.437020 -0.587663
O46   O     O_R   0.576640 0.545090 0.562980 -0.590061
O47   O     O_R   0.923360 0.045090 0.437020 -0.576651
O48   O     O_R   0.076640 0.045090 0.562980 -0.597533
N1    N     N_3   0.116367 0.808879 0.117364 -0.597982
H65   H     H_    0.152485 0.797760 0.126121 0.211073
H66   H     H_    0.082582 0.809580 0.059492 0.222504
N2    N     N_3   0.882528 0.803577 0.886656 -0.585259
H67   H     H_    0.843153 0.819639 0.849543 0.210550
H68   H     H_    0.914152 0.827754 0.913792 0.215117
N3    N     N_3   0.615997 0.308762 0.117075 -0.595072
H69   H     H_    0.652177 0.297774 0.125872 0.214282
H70   H     H_    0.582202 0.309353 0.059202 0.223439
N4    N     N_3   0.387878 0.308622 0.886868 -0.587149
H71   H     H_    0.350169 0.326660 0.849832 0.211448
H72   H     H_    0.421772 0.330915 0.914023 0.217262
O49   O     O_3   0.690920 0.684585 0.620979 -0.576673
C145  C     C_3   0.656948 0.713004 0.625040 -0.297572
H73   H     H_    0.624586 0.730377 0.570995 0.158202
H74   H     H_    0.685328 0.738074 0.668345 0.190435
H75   H     H_    0.635629 0.695384 0.642389 0.148588
O50   O     O_3   0.431888 0.692724 0.608808 -0.569548
C146  C     C_3   0.463875 0.719319 0.598745 -0.278991
H76   H     H_    0.477992 0.748735 0.634400 0.196991
H77   H     H_    0.437637 0.730621 0.539620 0.152371
H78   H     H_    0.503084 0.702313 0.617017 0.142035
O51   O     O_3   0.246363 0.118888 0.603873 -0.564712
C147  C     C_3   0.268428 0.140345 0.671007 -0.307252
H79   H     H_    0.256929 0.175565 0.661314 0.142823
H80   H     H_    0.315916 0.138197 0.710418 0.195601
H81   H     H_    0.253536 0.124487 0.698289 0.156710
O52   O     O_3   0.931046 0.188485 0.615515 -0.574022
C148  C     C_3   0.966187 0.216645 0.613241 -0.283290
H82   H     H_    0.981378 0.243289 0.654330 0.199113
H83   H     H_    0.942076 0.231986 0.557015 0.156189
H84   H     H_    0.004717 0.199400 0.629685 0.141699
O53   O     O_3   0.545662 0.556437 0.322118 -0.552427
C149  C     C_3   0.500363 0.587082 0.284402 -0.245288
H85   H     H_    0.514802 0.620074 0.283467 0.150768
H86   H     H_    0.479915 0.588261 0.309662 0.173606
H87   H     H_    0.467117 0.576407 0.225330 0.173425
O54   O     O_3   0.286234 0.526248 0.395160 -0.561266
C150  C     C_3   0.314255 0.515037 0.470325 -0.250399
H88   H     H_    0.305466 0.538919 0.497317 0.159704
H89   H     H_    0.361103 0.511354 0.503241 0.151116
H90   H     H_    0.297794 0.482950 0.470690 0.181581
O55   O     O_3   0.975905 0.163546 0.402385 -0.556075
C151  C     C_3   0.003979 0.172066 0.478471 -0.269006
H91   H     H_    0.041544 0.193974 0.504972 0.157828
H92   H     H_    0.016762 0.141175 0.510428 0.149767
H93   H     H_    0.973369 0.188762 0.481220 0.174664
O56   O     O_3   0.815630 0.026519 0.439272 -0.581415
C152  C     C_3   0.826359 0.029526 0.507509 -0.289859
H94   H     H_    0.785389 0.027821 0.496574 0.166599
H95   H     H_    0.851005 0.059029 0.540803 0.170070
H96   H     H_    0.852348 0.000901 0.542486 0.182812
O57   O     O_3   0.402375 0.820828 0.733698 -0.558961
C153  C     C_3   0.369155 0.854055 0.730528 -0.310854
H97   H     H_    0.389206 0.866037 0.787644 0.152421
H98   H     H_    0.324429 0.842944 0.700679 0.136644
H99   H     H_    0.366838 0.881920 0.698585 0.194334
O58   O     O_3   0.601755 0.822534 0.266743 -0.562106
C154  C     C_3   0.636965 0.853893 0.270187 -0.306658
H100  H     H_    0.617560 0.865547 0.213171 0.153391
H101  H     H_    0.680914 0.841009 0.299759 0.138914
H102  H     H_    0.641132 0.882386 0.302516 0.192027
O59   O     O_3   0.898424 0.322872 0.732652 -0.560672
C155  C     C_3   0.862210 0.354163 0.727098 -0.311625
H103  H     H_    0.880126 0.365934 0.783489 0.154225
H104  H     H_    0.818048 0.341161 0.695801 0.138469
H105  H     H_    0.858971 0.382609 0.695403 0.191671
O60   O     O_3   0.112166 0.326560 0.268191 -0.564334
C156  C     C_3   0.155076 0.351852 0.278264 -0.285255
H106  H     H_    0.142243 0.361386 0.223443 0.150298
H107  H     H_    0.197001 0.334487 0.313194 0.138812
H108  H     H_    0.161114 0.382211 0.308353 0.199655

loop_
_geom_bond_atom_site_label_1
_geom_bond_atom_site_label_2
_ccdc_geom_bond_type
C153  H98   S    
Cu12  O10   S    
C111  H35   S    
C55   C59   A    
C47   C136  S    
C48   C135  S    
C77   C101  A    
O51   C147  S    
C136  C140  A    
C47   O27   A    
C156  H106  S    
O53   C149  S    
C133  C137  A    
C90   O30   A    
C145  H73   S    
C116  O8    A    
C95   C99   A    
Cu6   O34   S    
C153  H99   S    
C68   N4    S    
C124  O44   A    
C29   C33   A    
C100  C104  A    
C1    O1    A    
C94   H22   S    
Cu2   Cu6   S    
N2    H67   S    
C70   C74   S    
Cu5   O17   S    
C146  H77   S    
C3    C19   S    
O58   C154  S    
C16   C44   S    
C119  O11   A    
C85   O49   S    
C86   O50   S    
C26   H50   S    
C100  C115  S    
C51   C71   A    
C38   H58   S    
Cu5   O41   S    
C139  H39   S    
C132  O60   S    
C63   C67   A    
C25   C29   A    
Cu4   O32   S    
C108  H28   S    
Cu10  O5    S    
Cu1   O37   S    
C21   H45   S    
C28   C32   A    
C99   C116  S    
Cu8   O36   S    
C30   C34   A    
C122  O42   A    
C123  O39   A    
C98   C102  A    
C110  H34   S    
C17   C21   A    
O56   C152  S    
C152  H96   S    
C135  C139  A    
C75   C76   T    
C115  O7    A    
C52   C72   A    
C131  O59   S    
C78   C82   A    
C113  O5    A    
C144  H44   S    
Cu3   O23   S    
C68   C72   A    
C97   C101  A    
C80   C112  S    
O54   C150  S    
C105  O53   S    
C96   H24   S    
C89   O29   A    
C129  C133  A    
C119  O15   A    
O52   C148  S    
N1    H66   S    
C28   H52   S    
C156  H108  S    
C59   C124  S    
C84   C88   A    
O60   C156  S    
C42   H62   S    
Cu11  O9    S    
C57   C61   A    
C83   C91   S    
C59   C63   A    
C39   H59   S    
C60   C64   A    
C147  H80   S    
C50   C70   A    
C48   O28   A    
C66   C70   A    
C91   O35   A    
C49   C53   A    
C51   C55   A    
C127  C131  A    
C4    C20   S    
C125  C129  A    
Cu1   O1    S    
O57   C153  S    
C107  H27   S    
Cu11  Cu12  S    
C94   C98   A    
C103  C107  S    
C88   O52   S    
C47   O23   A    
C51   H11   S    
C44   H64   S    
C120  O12   A    
C7    C143  A    
C64   C68   A    
Cu1   O29   S    
C114  O46   A    
Cu5   O33   S    
C151  H91   S    
C85   C93   A    
C106  O54   S    
C107  O55   S    
C87   C95   A    
C64   H20   S    
C9    C10   T    
C8    C12   S    
C90   O34   A    
C148  H83   S    
C79   C103  A    
C7    C11   S    
C92   O32   A    
C149  H86   S    
C62   C66   A    
C39   H55   S    
C80   C84   A    
C155  H103  S    
C46   O26   A    
C78   C110  S    
C99   C103  A    
C154  H101  S    
C93   H21   S    
C30   C118  S    
C1    O17   A    
Cu9   O16   S    
C60   C123  S    
C129  O57   S    
C5    C9    S    
C61   C65   A    
Cu12  O48   S    
C117  O13   A    
C132  C136  A    
C40   H60   S    
C38   H54   S    
C77   C109  S    
C26   C30   A    
Cu2   O38   S    
C93   C97   A    
C112  H32   S    
Cu6   O26   S    
C105  C109  S    
C110  H30   S    
C3    O3    A    
C18   C22   A    
C127  H3    S    
C107  C111  S    
C24   C28   A    
C116  O48   A    
C14   C34   A    
C41   H61   S    
C42   H6    S    
Cu7   O43   S    
C52   H12   S    
C145  H74   S    
C151  H93   S    
C13   C17   A    
C150  H90   S    
C15   C43   S    
C16   C36   A    
Cu3   Cu7   S    
C96   C100  A    
C117  O9    A    
C37   C41   S    
C130  C134  A    
C40   C44   S    
C145  H75   S    
N2    H68   S    
C5    C125  A    
Cu4   O24   S    
N4    H71   S    
Cu9   O11   S    
C49   C69   A    
C84   C92   S    
C105  H25   S    
C97   C114  S    
C81   C85   A    
C121  O37   A    
C58   C62   A    
C83   C87   A    
C88   C96   A    
C41   H5    S    
C78   C102  A    
C73   C74   T    
C54   H14   S    
N3    H69   S    
C155  H105  S    
C48   O24   A    
C13   C41   S    
C91   O31   A    
C15   C19   A    
Cu3   O31   S    
C50   C54   A    
C141  H41   S    
C80   C104  A    
Cu4   O40   S    
Cu7   O27   S    
Cu2   O2    S    
C125  H1    S    
C126  C130  A    
C2    O2    A    
C37   H57   S    
C152  H95   S    
C21   C25   A    
C57   C122  S    
C130  O58   S    
Cu10  O15   S    
C50   H10   S    
C87   O51   S    
C69   C73   S    
C6    C142  A    
C53   H13   S    
C81   C89   S    
Cu8   O44   S    
C153  H97   S    
N1    H65   S    
C56   H16   S    
C25   H49   S    
C55   H15   S    
C156  H107  S    
C115  O47   A    
C138  H38   S    
C22   H46   S    
C150  H88   S    
Cu4   Cu8   S    
Cu9   O6    S    
C6    C126  A    
C138  C142  A    
C45   O25   A    
C53   C57   A    
C98   C113  S    
Cu11  O14   S    
C82   C86   A    
C27   C31   A    
C108  O56   S    
C33   C37   S    
C108  C112  S    
C35   C39   S    
O59   C155  S    
C49   H9    S    
C114  O6    A    
C146  H76   S    
C77   C81   A    
C4    O20   A    
C146  H78   S    
C31   C119  S    
Cu6   O42   S    
C92   O36   A    
Cu12  O7    S    
C31   C35   A    
C46   O22   A    
C32   C36   A    
C104  C108  S    
Cu3   O3    S    
C137  C141  A    
C58   C121  S    
Cu5   O25   S    
Cu10  O12   S    
C1    C17   S    
C43   H63   S    
C140  C144  A    
C6    C10   S    
Cu7   O19   S    
C40   H56   S    
C111  H31   S    
C82   C90   S    
C109  H29   S    
C154  H100  S    
C46   C133  S    
C79   C83   A    
C65   C69   A    
C151  H92   S    
C67   C71   A    
C67   N3    S    
Cu8   O28   S    
C56   C60   A    
C124  O40   A    
C22   C26   A    
C44   H8    S    
Cu1   Cu5   S    
C3    O19   A    
C43   H7    S    
O55   C151  S    
C2    C18   S    
C148  H82   S    
C14   C18   A    
C19   C23   A    
C72   C76   S    
C13   C33   A    
C149  H87   S    
C45   C134  S    
Cu2   O30   S    
C147  H79   S    
N3    H70   S    
C155  H104  S    
C38   C42   S    
C131  C135  A    
O50   C146  S    
C112  H36   S    
C62   H18   S    
C106  H26   S    
C86   C94   A    
C121  O41   A    
C122  O38   A    
C20   C24   A    
C109  H33   S    
Cu6   O18   S    
C23   C27   A    
C65   N1    S    
C16   C20   A    
C14   C42   S    
C89   O33   A    
Cu3   O39   S    
C142  H42   S    
C152  H94   S    
C139  C143  A    
C32   C120  S    
C128  C132  A    
C15   C35   A    
C8    C128  A    
C126  H2    S    
C101  C105  S    
C137  H37   S    
Cu11  O8    S    
C36   C40   S    
C61   H17   S    
C123  O43   A    
C2    O18   A    
C39   C43   S    
O49   C145  S    
C4    O4    A    
C29   C117  S    
C23   H47   S    
C150  H89   S    
C118  O14   A    
C5    C141  A    
Cu8   O20   S    
Cu12  O13   S    
Cu1   O21   S    
C8    C144  A    
C140  H40   S    
C37   H53   S    
C95   H23   S    
Cu2   O22   S    
C148  H84   S    
N4    H72   S    
C45   O21   A    
C128  H4    S    
Cu7   O35   S    
C54   C58   A    
C149  H85   S    
C24   H48   S    
C34   C38   S    
C147  H81   S    
Cu10  O46   S    
C134  C138  A    
C154  H102  S    
C11   C12   T    
C63   H19   S    
C143  H43   S    
C79   C111  S    
C7    C127  A    
Cu4   O4    S    
C120  O16   A    
C71   C75   S    
C118  O10   A    
C102  C106  S    
C27   H51   S    
Cu9   O45   S    
C113  O45   A    
C66   N2    S    
C106  C110  S    
Cu9   Cu10  S    
Cu11  O47   S    
C52   C56   A    
