data_mof_unit_48818.cif
_audit_creation_date              2012-12-10T17:54:16-0500
_audit_creation_method            fapswitch 2.2
_symmetry_space_group_name_H-M    P1
_symmetry_Int_Tables_number       1
_space_group_crystal_system       triclinic
_cell_length_a                    27.725407
_cell_length_b                    10.434926
_cell_length_c                    9.925704
_cell_angle_alpha                 89.688171
_cell_angle_beta                  90.230978
_cell_angle_gamma                 93.235735
_cell_volume                      2866.99044535

loop_
_atom_site_label
_atom_site_type_symbol
_atom_type_description
_atom_site_fract_x
_atom_site_fract_y
_atom_site_fract_z
_atom_type_partial_charge
C1    C     C_R   0.506835 0.261381 0.500779 0.918715
C2    C     C_R   0.971630 0.379652 0.504525 0.046348
C3    C     C_R   0.977230 0.616530 0.488205 0.047494
C4    C     C_R   0.406101 0.499617 0.499740 0.908020
C5    C     C_R   0.949204 0.498561 0.496554 0.069807
C6    C     C_R   0.942058 0.265635 0.520807 -0.215675
C7    C     C_R   0.892134 0.267968 0.523309 -0.137370
C8    C     C_R   0.869789 0.383856 0.510327 -0.021115
C9    C     C_R   0.898126 0.499528 0.497057 -0.052428
C10   C     C_R   0.875260 0.616174 0.484362 -0.018180
C11   C     C_R   0.824791 0.614928 0.485222 0.500852
C12   C     C_R   0.277749 0.490001 0.620627 -0.117296
C13   C     C_R   0.819431 0.387040 0.511016 0.501720
C14   C     C_R   0.721718 0.479399 0.619674 -0.107599
C15   C     C_R   0.671624 0.479382 0.620340 -0.230549
C16   C     C_R   0.511051 0.737560 0.500186 0.881364
C17   C     C_R   0.672011 0.525323 0.379946 -0.252413
C18   C     C_R   0.722080 0.525617 0.379684 -0.116339
C19   C     C_R   0.746879 0.502348 0.499387 0.330676
C20   C     C_R   0.022630 0.378512 0.497286 0.047384
C21   C     C_R   0.050670 0.496717 0.496413 0.070055
C22   C     C_R   0.028257 0.615828 0.495346 0.046330
C23   C     C_R   0.252879 0.493468 0.498172 0.333678
C24   C     C_R   0.046770 0.262818 0.489936 -0.215309
C25   C     C_R   0.107804 0.728436 0.505106 -0.134919
C26   C     C_R   0.953048 0.731516 0.471977 -0.216090
C27   C     C_R   0.903047 0.731077 0.470478 -0.140540
C28   C     C_R   0.593867 0.500699 0.500194 0.807099
C29   C     C_R   0.057871 0.730574 0.502793 -0.214845
C30   C     C_R   0.556238 0.141220 0.737226 -0.195999
C31   C     C_R   0.567284 0.077368 0.856670 0.141010
C32   C     C_R   0.568189 0.943752 0.856525 -0.159228
C33   C     C_R   0.557565 0.875342 0.738839 -0.162755
C34   C     C_R   0.101748 0.495808 0.496727 -0.051989
C35   C     C_R   0.541876 0.937748 0.621391 0.050769
C36   C     C_R   0.540412 0.072407 0.620995 0.074916
C37   C     C_R   0.523640 0.132301 0.502171 -0.216539
C38   C     C_R   0.525528 0.067938 0.379337 -0.303636
C39   C     C_R   0.533505 0.939023 0.378170 0.520815
C40   C     C_R   0.175073 0.380042 0.493417 0.502141
C41   C     C_R   0.529745 0.871199 0.500752 -0.290102
C42   C     C_R   0.428047 0.359739 0.146310 -0.158328
C43   C     C_R   0.385641 0.315615 0.085329 -0.288494
C44   C     C_R   0.382214 0.319108 0.947252 -0.307046
C45   C     C_R   0.124593 0.378656 0.493070 -0.019523
C46   C     C_R   0.423552 0.353197 0.869555 0.524013
C47   C     C_R   0.462650 0.430965 0.929590 0.058591
C48   C     C_R   0.463611 0.432138 0.074293 0.107394
C49   C     C_R   0.536377 0.558052 0.071230 -0.086607
C50   C     C_R   0.536473 0.558018 0.928638 -0.136306
C51   C     C_R   0.180467 0.608939 0.501438 0.505564
C52   C     C_R   0.277866 0.498647 0.376237 -0.105036
C53   C     C_R   0.327998 0.500766 0.376556 -0.227875
C54   C     C_R   0.327882 0.492136 0.621357 -0.211627
C55   C     C_3   0.576652 0.152728 0.984178 -0.442952
C56   C     C_R   0.096771 0.263175 0.488248 -0.138837
C57   C     C_3   0.627315 0.219469 0.984536 -0.352135
C58   C     C_3   0.635558 0.301815 0.110106 -0.855786
C59   C     C_3   0.592363 0.835425 0.266013 0.079985
C60   C     C_3   0.632813 0.940037 0.291559 -0.447350
C61   C     C_3   0.682100 0.882134 0.298720 -0.848973
C62   C     C_3   0.406193 0.178515 0.720106 0.080742
C63   C     C_3   0.426774 0.076738 0.814011 -0.402331
C64   C     C_3   0.417721 0.941471 0.758076 -0.863697
C65   C     C_R   0.130113 0.612059 0.500790 -0.023121
C66   C     C_R   0.353366 0.497596 0.499217 -0.052400
C67   C     C_R   0.646480 0.501830 0.500260 -0.012379
H1    H     H_    0.346555 0.489896 0.717243 0.168014
H2    H     H_    0.561118 0.244426 0.737841 0.177482
H3    H     H_    0.258172 0.486295 0.714886 0.135132
H4    H     H_    0.578617 0.892652 0.946282 0.144494
H5    H     H_    0.563922 0.774611 0.739208 0.157654
H6    H     H_    0.566759 0.601847 0.124676 0.119557
H7    H     H_    0.432196 0.333828 0.249350 0.216090
H8    H     H_    0.356571 0.270824 0.144634 0.186074
H9    H     H_    0.349225 0.279035 0.902304 0.160417
H10   H     H_    0.566965 0.602954 0.876013 0.126058
H11   H     H_    0.113544 0.172021 0.483045 0.187190
H12   H     H_    0.258379 0.501691 0.281604 0.135743
H13   H     H_    0.652655 0.461034 0.714264 0.149500
H14   H     H_    0.741060 0.461614 0.712305 0.136843
H15   H     H_    0.871085 0.178017 0.535728 0.192053
H16   H     H_    0.956279 0.172601 0.534994 0.138940
H17   H     H_    0.028141 0.169760 0.482459 0.136399
H18   H     H_    0.346773 0.505560 0.281093 0.176889
H19   H     H_    0.609587 0.378840 0.112187 0.261717
H20   H     H_    0.630991 0.242595 0.202916 0.266791
H21   H     H_    0.672788 0.346970 0.108960 0.248947
H22   H     H_    0.654823 0.146030 0.981703 0.233366
H23   H     H_    0.128891 0.818928 0.510518 0.192601
H24   H     H_    0.632092 0.282118 0.894102 0.220101
H25   H     H_    0.548933 0.225224 0.993616 0.203804
H26   H     H_    0.572530 0.088265 0.073156 0.222021
H27   H     H_    0.600228 0.792309 0.167432 0.143146
H28   H     H_    0.593802 0.757747 0.342755 0.141699
H29   H     H_    0.633246 0.011381 0.208522 0.233989
H30   H     H_    0.626910 0.990242 0.387986 0.233874
H31   H     H_    0.683290 0.813672 0.384604 0.277644
H32   H     H_    0.710673 0.959679 0.313881 0.287154
H33   H     H_    0.689576 0.831238 0.203692 0.250040
H34   H     H_    0.971630 0.823893 0.457226 0.137346
H35   H     H_    0.414631 0.153094 0.614601 0.167011
H36   H     H_    0.366162 0.175979 0.723410 0.128484
H37   H     H_    0.466073 0.096860 0.827157 0.248141
H38   H     H_    0.409837 0.080096 0.914930 0.222634
H39   H     H_    0.378312 0.917947 0.747816 0.263696
H40   H     H_    0.433299 0.870970 0.827716 0.274674
H41   H     H_    0.435096 0.933432 0.658092 0.262432
H42   H     H_    0.653398 0.544378 0.286442 0.155151
H43   H     H_    0.886246 0.821723 0.458283 0.187290
H44   H     H_    0.741669 0.543556 0.286688 0.138091
H45   H     H_    0.043691 0.824222 0.510048 0.137915
H46   H     H_    0.521351 0.117177 0.283970 0.187472
N1    N     N_R   0.201613 0.494088 0.497696 -0.359391
N2    N     N_R   0.798209 0.501453 0.498646 -0.357436
N3    N     N_R   0.499540 0.498800 0.142780 -0.104784
N4    N     N_R   0.499520 0.498720 0.857170 -0.106615
O1    O     O_R   0.500000 0.316780 0.614690 -0.565945
O2    O     O_R   0.571250 0.499990 0.614680 -0.652801
O3    O     O_R   0.571240 0.499970 0.385350 -0.641917
O4    O     O_2   0.197568 0.268707 0.489667 -0.555696
O5    O     O_3   0.545413 0.883427 0.257182 -0.636778
O6    O     O_3   0.427457 0.304237 0.741249 -0.601106
O7    O     O_2   0.791785 0.276870 0.522976 -0.558962
O8    O     O_2   0.208192 0.719459 0.505654 -0.549984
O9    O     O_2   0.802353 0.726012 0.473704 -0.563461
O10   O     O_R   0.500000 0.316750 0.385360 -0.647189
O11   O     O_R   0.428760 0.500030 0.614650 -0.559728
O12   O     O_R   0.428750 0.500010 0.385320 -0.639214
O13   O     O_R   0.500000 0.683250 0.614640 -0.617781
O14   O     O_R   0.500000 0.683220 0.385310 -0.561697
Zn1   Zn    Zn3+2 0.500000 0.500020 0.653130 0.960549
Zn2   Zn    Zn3+2 0.500000 0.499980 0.346870 0.944417

loop_
_geom_bond_atom_site_label_1
_geom_bond_atom_site_label_2
_ccdc_geom_bond_type
C10   C27   A    
C8    C13   A    
C22   C29   A    
C50   N4    A    
C6    C7    A    
C29   H45   S    
C35   C36   A    
C55   H26   S    
C58   H20   S    
C57   C58   S    
C7    C8    A    
C39   C41   A    
C61   H32   S    
C40   O4    S    
C12   C23   A    
C26   C27   A    
C55   H25   S    
C39   O5    S    
C57   H22   S    
O2    Zn1   S    
C36   C37   A    
C18   C19   A    
C26   H34   S    
C30   C31   A    
C31   C32   A    
C54   H1    S    
C58   H19   S    
C56   H11   S    
O3    Zn2   S    
C51   C65   A    
C44   H9    S    
N4    Zn1   S    
C33   H5    S    
C40   N1    A    
C20   C24   A    
C45   C56   A    
C8    C9    A    
C59   H27   S    
C63   H38   S    
C52   H12   S    
C11   N2    A    
C9    C10   A    
C1    C37   S    
C48   N3    A    
C59   O5    S    
C59   C60   S    
C21   C22   A    
C43   H8    S    
C2    C6    A    
C59   H28   S    
O11   Zn1   S    
C34   C65   A    
C62   O6    S    
C44   C46   A    
C64   H41   S    
C32   H4    S    
C25   C29   A    
C40   C45   A    
C42   H7    S    
C51   N1    A    
C17   C67   A    
C4    O11   A    
C2    C20   A    
C51   O8    S    
C47   C48   A    
C1    O10   A    
C28   C67   S    
C25   C65   A    
C18   H44   S    
C27   H43   S    
C60   H30   S    
C28   O3    A    
C38   H46   S    
C21   C34   A    
C7    H15   S    
O14   Zn2   S    
C17   H42   S    
C60   C61   S    
O13   Zn1   S    
C43   C44   A    
C5    C9    A    
C37   C38   A    
C15   H13   S    
C19   N2    S    
C15   C67   A    
C11   O9    S    
C62   C63   S    
C17   C18   A    
C25   H23   S    
C34   C45   A    
C42   C48   A    
C53   C66   A    
C13   N2    A    
O12   Zn2   S    
C60   H29   S    
C55   C57   S    
C49   H6    S    
C46   O6    S    
C61   H33   S    
C24   C56   A    
C42   C43   A    
C50   H10   S    
C30   H2    S    
C16   O13   A    
C52   C53   A    
C64   H40   S    
C62   H36   S    
C13   O7    S    
C12   H3    S    
C46   C47   A    
C6    H16   S    
C57   H24   S    
C14   C19   A    
C3    C26   A    
O10   Zn2   S    
C63   H37   S    
C3    C5    A    
C28   O2    A    
C58   H21   S    
C64   H39   S    
C4    O12   A    
N3    Zn2   S    
C16   O14   A    
C30   C36   A    
C32   C33   A    
C24   H17   S    
C23   N1    S    
C4    C66   S    
C61   H31   S    
C23   C52   A    
C38   C39   A    
C33   C35   A    
C1    O1    A    
C35   C41   A    
O1    Zn1   S    
C10   C11   A    
C63   C64   S    
C2    C5    A    
C47   N4    A    
C49   N3    A    
C20   C21   A    
C49   C50   A    
C14   C15   A    
C3    C22   A    
C53   H18   S    
C14   H14   S    
C31   C55   S    
C54   C66   A    
C16   C41   S    
C12   C54   A    
C62   H35   S    
