data_mof_unit_15413.cif
_audit_creation_date              2012-12-11T17:07:52-0500
_audit_creation_method            fapswitch 2.2
_symmetry_space_group_name_H-M    P1
_symmetry_Int_Tables_number       1
_space_group_crystal_system       triclinic
_cell_length_a                    17.311946
_cell_length_b                    17.285128
_cell_length_c                    17.927942
_cell_angle_alpha                 89.674784
_cell_angle_beta                  90.272946
_cell_angle_gamma                 89.62488
_cell_volume                      5364.4798423

loop_
_atom_site_label
_atom_site_type_symbol
_atom_type_description
_atom_site_fract_x
_atom_site_fract_y
_atom_site_fract_z
_atom_type_partial_charge
C1    C     C_R   0.411458 0.319420 0.867825 -0.103082
C2    C     C_R   0.172053 0.920285 0.360690 -0.146791
C3    C     C_R   0.765264 0.855870 0.218352 0.635545
C4    C     C_R   0.163775 0.254691 0.757330 0.687234
C5    C     C_R   0.304451 0.792364 0.696528 0.771783
C6    C     C_R   0.855787 0.765043 0.781821 0.639507
C7    C     C_R   0.762988 0.149102 0.776299 0.647591
C8    C     C_R   0.708010 0.200208 0.801759 0.750878
C9    C     C_R   0.806129 0.710137 0.809999 0.752790
C10   C     C_R   0.358192 0.738167 0.720246 0.641031
C11   C     C_R   0.219248 0.308910 0.773127 0.749073
C12   C     C_R   0.710268 0.806354 0.190195 0.754246
C13   C     C_R   0.080023 0.173801 0.361449 -0.083931
C14   C     C_R   0.731350 0.361905 0.285653 0.625412
C15   C     C_R   0.306812 0.217354 0.224190 0.753834
C16   C     C_R   0.201549 0.706606 0.200144 0.746562
C17   C     C_R   0.806956 0.103391 0.386827 -0.098631
C18   C     C_R   0.920810 0.171545 0.639745 -0.156939
C19   C     C_R   0.173977 0.080324 0.638331 -0.087336
C20   C     C_R   0.102405 0.807741 0.615467 -0.066938
C21   C     C_R   0.826052 0.918210 0.637898 -0.140482
C22   C     C_3   0.885166 0.321026 0.728774 -0.359882
C23   C     C_3   0.681130 0.888034 0.736136 -0.307892
C24   C     C_3   0.190596 0.632410 0.626651 -0.397554
C25   C     C_R   0.690355 0.401107 0.881849 -0.094917
C26   C     C_3   0.326257 0.113647 0.724769 -0.323906
C27   C     C_3   0.887568 0.680688 0.264227 -0.310858
C28   C     C_3   0.651719 0.142600 0.299930 -0.323700
C29   C     C_3   0.112420 0.325535 0.273279 -0.327323
C30   C     C_3   0.321534 0.884594 0.272386 -0.357717
C31   C     C_3   0.371115 0.834186 0.223729 -0.361549
C32   C     C_3   0.166104 0.379025 0.232162 -0.376403
C33   C     C_3   0.600670 0.191900 0.250388 -0.328736
C34   C     C_3   0.836837 0.633019 0.214535 -0.357862
C35   C     C_3   0.379976 0.167494 0.765307 -0.379667
C36   C     C_R   0.601150 0.690662 0.882707 -0.123244
C37   C     C_3   0.243408 0.578179 0.669266 -0.376913
C38   C     C_3   0.633416 0.837257 0.785797 -0.361593
C39   C     C_3   0.834887 0.370445 0.777758 -0.353257
C40   C     C_R   0.408916 0.681904 0.868024 0.543432
C41   C     C_R   0.308416 0.396886 0.885026 0.503758
C42   C     C_R   0.606622 0.303889 0.895090 0.513564
C43   C     C_R   0.696465 0.602860 0.893901 0.505014
C44   C     C_R   0.395878 0.307846 0.113775 0.507651
C45   C     C_R   0.304220 0.606333 0.105513 0.510067
C46   C     C_R   0.602878 0.696546 0.106193 0.505553
C47   C     C_R   0.332619 0.577442 0.856759 -0.113150
C48   C     C_R   0.680953 0.408355 0.132898 0.553376
C49   C     C_R   0.893452 0.197895 0.398080 0.493202
C50   C     C_R   0.817355 0.908537 0.369221 0.541958
C51   C     C_R   0.095255 0.816307 0.371739 0.518762
C52   C     C_R   0.186251 0.099762 0.376675 0.541913
C53   C     C_R   0.908532 0.817244 0.630882 0.542109
C54   C     C_R   0.816619 0.095296 0.628654 0.514477
C55   C     C_R   0.100539 0.186831 0.622437 0.545686
C56   C     C_R   0.197248 0.894022 0.603488 0.495303
C57   C     C_R   0.337751 0.335973 0.842581 -0.039875
C58   C     C_R   0.401792 0.689686 0.119381 -0.091435
C59   C     C_R   0.675164 0.325885 0.860873 -0.022884
C60   C     C_R   0.677515 0.674862 0.863400 -0.002863
C61   C     C_R   0.359505 0.641790 0.819547 -0.043511
C62   C     C_R   0.326688 0.674336 0.140475 -0.022253
C63   C     C_R   0.674757 0.677562 0.136699 -0.004482
C64   C     C_R   0.640530 0.358156 0.180658 -0.040696
C65   C     C_R   0.334574 0.336730 0.155858 -0.035828
C66   C     C_R   0.853226 0.851409 0.325364 -0.021451
C67   C     C_R   0.149773 0.853577 0.326556 -0.014851
C68   C     C_R   0.148952 0.153474 0.329773 -0.057649
C69   C     C_R   0.690617 0.601233 0.117118 -0.120740
C70   C     C_R   0.820871 0.180484 0.368894 -0.011010
C71   C     C_R   0.854306 0.149235 0.674133 -0.009114
C72   C     C_R   0.153810 0.149518 0.669666 -0.057668
C73   C     C_R   0.178752 0.822545 0.633934 -0.013797
C74   C     C_R   0.851555 0.853242 0.674800 -0.020686
C75   C     C_R   0.806693 0.297541 0.813782 0.077802
C76   C     C_R   0.707265 0.808102 0.819955 0.043600
C77   C     C_R   0.258139 0.641852 0.723922 0.105954
C78   C     C_R   0.310028 0.205052 0.798271 0.087625
C79   C     C_R   0.807795 0.707038 0.180377 0.038636
C80   C     C_R   0.575887 0.333212 0.143418 -0.135687
C81   C     C_R   0.637873 0.260818 0.284906 0.063060
C82   C     C_R   0.203401 0.308720 0.199493 0.086882
C83   C     C_R   0.298476 0.805733 0.187704 0.080810
C84   C     C_R   0.253261 0.853335 0.231328 0.111355
C85   C     C_R   0.153418 0.259857 0.236219 0.081446
C86   C     C_R   0.685804 0.215620 0.329781 0.052328
C87   C     C_R   0.855087 0.750694 0.225867 0.107566
C88   C     C_R   0.260968 0.154956 0.762046 0.083777
C89   C     C_R   0.210081 0.691660 0.683392 0.132001
C90   C     C_R   0.751019 0.855403 0.774463 0.107489
C91   C     C_R   0.318502 0.410782 0.131190 -0.104429
C92   C     C_R   0.854188 0.252490 0.769813 0.106993
C93   C     C_R   0.730214 0.274518 0.825262 -0.249589
C94   C     C_R   0.730975 0.731453 0.832429 -0.228615
C95   C     C_R   0.330925 0.667632 0.747036 -0.268786
C96   C     C_R   0.291730 0.283927 0.799131 -0.248676
C97   C     C_R   0.731309 0.730974 0.167850 -0.226047
C98   C     C_R   0.665062 0.330279 0.254103 -0.223476
C99   C     C_R   0.282110 0.290142 0.198373 -0.247598
C100  C     C_R   0.275681 0.729066 0.176654 -0.252412
C101  C     C_R   0.181562 0.827313 0.257046 -0.252109
C102  C     C_R   0.918191 0.825923 0.362170 -0.139600
C103  C     C_R   0.180432 0.188433 0.263645 -0.250505
C104  C     C_R   0.763657 0.235954 0.338900 -0.232162
C105  C     C_R   0.828763 0.821948 0.253398 -0.242840
C106  C     C_R   0.189590 0.182004 0.734861 -0.248806
C107  C     C_R   0.231810 0.768320 0.670439 -0.274429
C108  C     C_R   0.822109 0.828821 0.746846 -0.246778
C109  C     C_R   0.828309 0.180729 0.743982 -0.247630
C110  C     C_R   0.150286 0.761672 0.225025 0.654384
C111  C     C_R   0.252506 0.162075 0.240361 0.683542
C112  C     C_R   0.785733 0.310508 0.314274 0.761597
F1    F     F_    0.074712 0.743854 0.232716 -0.662674
F2    F     F_    0.824098 0.636295 0.793666 -0.584499
F3    F     F_    0.432011 0.760683 0.733259 -0.642312
F4    F     F_    0.202573 0.384923 0.762390 -0.635418
F5    F     F_    0.636545 0.824921 0.206019 -0.586170
F6    F     F_    0.753148 0.435448 0.269634 -0.645795
F7    F     F_    0.382607 0.200472 0.235216 -0.634571
F8    F     F_    0.181896 0.631477 0.209028 -0.606397
F9    F     F_    0.274598 0.087103 0.248443 -0.659917
F10   F     F_    0.860395 0.328651 0.301891 -0.590762
F11   F     F_    0.747089 0.931460 0.228360 -0.629741
F12   F     F_    0.089024 0.277194 0.749204 -0.659650
F13   F     F_    0.321327 0.867765 0.707373 -0.597234
F14   F     F_    0.931036 0.746222 0.771206 -0.613696
F15   F     F_    0.744893 0.073605 0.767641 -0.665182
F16   F     F_    0.633064 0.180460 0.792666 -0.604612
H1    H     H_    0.447707 0.270725 0.854031 0.182782
H2    H     H_    0.214859 0.960866 0.342441 0.179779
H3    H     H_    0.037842 0.215289 0.342189 0.164965
H4    H     H_    0.752671 0.074281 0.384210 0.210591
H5    H     H_    0.961690 0.213966 0.658243 0.175790
H6    H     H_    0.215608 0.038319 0.657589 0.168428
H7    H     H_    0.073581 0.753354 0.621342 0.213676
H8    H     H_    0.781144 0.957062 0.654309 0.192563
H9    H     H_    0.947779 0.329802 0.739100 0.276080
H10   H     H_    0.672321 0.950061 0.748807 0.288617
H11   H     H_    0.128920 0.615201 0.629161 0.239226
H12   H     H_    0.744031 0.431080 0.877218 0.203637
H13   H     H_    0.331916 0.052536 0.743787 0.252077
H14   H     H_    0.949534 0.671899 0.251583 0.287887
H15   H     H_    0.693623 0.107134 0.267715 0.236679
H16   H     H_    0.051325 0.331188 0.254542 0.247998
H17   H     H_    0.330267 0.947272 0.261814 0.277641
H18   H     H_    0.402833 0.788395 0.255466 0.210207
H19   H     H_    0.205374 0.411605 0.269729 0.215779
H20   H     H_    0.538421 0.187563 0.264534 0.261947
H21   H     H_    0.791798 0.601048 0.246013 0.239749
H22   H     H_    0.412329 0.206673 0.727385 0.216146
H23   H     H_    0.570787 0.744480 0.876357 0.210827
H24   H     H_    0.295955 0.561306 0.637615 0.204607
H25   H     H_    0.601533 0.792220 0.754249 0.236686
H26   H     H_    0.789018 0.402232 0.746257 0.210002
H27   H     H_    0.866823 0.323242 0.669297 0.202136
H28   H     H_    0.676450 0.871787 0.676347 0.211724
H29   H     H_    0.212271 0.647363 0.570109 0.232042
H30   H     H_    0.327398 0.122816 0.663386 0.218769
H31   H     H_    0.871275 0.676022 0.324018 0.211611
H32   H     H_    0.618748 0.110689 0.343210 0.230710
H33   H     H_    0.121824 0.327063 0.334600 0.218348
H34   H     H_    0.289428 0.537503 0.837353 0.175176
H35   H     H_    0.323602 0.866393 0.331919 0.201373
H36   H     H_    0.406827 0.868381 0.184412 0.253824
H37   H     H_    0.135986 0.414774 0.189152 0.242240
H38   H     H_    0.614799 0.184724 0.190444 0.206018
H39   H     H_    0.870414 0.597785 0.174221 0.244935
H40   H     H_    0.415901 0.137444 0.808210 0.242960
H41   H     H_    0.212378 0.528949 0.695357 0.270495
H42   H     H_    0.598123 0.870816 0.826094 0.245184
H43   H     H_    0.869086 0.406159 0.817017 0.253556
H44   H     H_    0.368231 0.841135 0.995774 0.393950
H45   H     H_    0.432163 0.743086 0.124916 0.201813
H46   H     H_    0.167729 0.400230 0.035770 0.389102
H47   H     H_    0.586222 0.178546 0.057068 0.391676
H48   H     H_    0.866175 0.640164 0.007229 0.391113
H49   H     H_    0.399295 0.168580 0.961692 0.389332
H50   H     H_    0.181362 0.591249 0.942248 0.401683
H51   H     H_    0.640855 0.868591 0.995286 0.391559
H52   H     H_    0.843429 0.367021 0.009810 0.393514
H53   H     H_    0.941989 0.316347 0.554997 0.386520
H54   H     H_    0.651880 0.921609 0.492835 0.395852
H55   H     H_    0.078873 0.649614 0.495664 0.383221
H56   H     H_    0.744529 0.571155 0.122979 0.212349
H57   H     H_    0.334126 0.120298 0.521270 0.387873
H58   H     H_    0.915483 0.651801 0.506621 0.391550
H59   H     H_    0.649987 0.100316 0.502889 0.384439
H60   H     H_    0.125105 0.332557 0.475629 0.386369
H61   H     H_    0.321349 0.937219 0.448095 0.388580
H62   H     H_    0.533428 0.292908 0.162981 0.164460
H63   H     H_    0.269569 0.446850 0.144457 0.183826
H64   H     H_    0.957000 0.780919 0.345761 0.192265
N1    N     N_R   0.425360 0.368540 0.922560 -0.068760
N2    N     N_R   0.131460 0.925360 0.422560 -0.063468
N3    N     N_R   0.074640 0.131460 0.422560 -0.057467
N4    N     N_R   0.868540 0.074640 0.422560 -0.093659
N5    N     N_R   0.925360 0.131460 0.577440 -0.061951
N6    N     N_R   0.131460 0.074640 0.577440 -0.059208
N7    N     N_R   0.074640 0.868540 0.577440 -0.097149
N8    N     N_R   0.868540 0.925360 0.577440 -0.070945
N9    N     N_R   0.425340 0.631500 0.922560 -0.105751
N10   N     N_R   0.368500 0.425340 0.922560 -0.117369
N11   N     N_R   0.574660 0.368500 0.922560 -0.124443
N12   N     N_R   0.631460 0.425360 0.922560 -0.082092
N13   N     N_R   0.631500 0.574660 0.922560 -0.126209
N14   N     N_R   0.425340 0.368500 0.077440 -0.117122
N15   N     N_R   0.368500 0.574660 0.077440 -0.123950
N16   N     N_R   0.574660 0.631500 0.077440 -0.126340
N17   N     N_R   0.631500 0.425340 0.077440 -0.105431
N18   N     N_R   0.925340 0.131500 0.422560 -0.127505
N19   N     N_R   0.868500 0.925340 0.422560 -0.109044
N20   N     N_R   0.074660 0.868500 0.422560 -0.112699
N21   N     N_R   0.131500 0.074660 0.422560 -0.106379
N22   N     N_R   0.925340 0.868500 0.577440 -0.109337
N23   N     N_R   0.574640 0.631460 0.922560 -0.091281
N24   N     N_R   0.868500 0.074660 0.577440 -0.112439
N25   N     N_R   0.074660 0.131500 0.577440 -0.105468
N26   N     N_R   0.131500 0.925340 0.577440 -0.128439
N27   N     N_R   0.368540 0.574640 0.922560 -0.055662
N28   N     N_R   0.425360 0.631460 0.077440 -0.080292
N29   N     N_R   0.631460 0.574640 0.077440 -0.091216
N30   N     N_R   0.574640 0.368540 0.077440 -0.051202
N31   N     N_R   0.368540 0.425360 0.077440 -0.070458
N32   N     N_R   0.925360 0.868540 0.422560 -0.070480
Ni1   Ni    Ni4+2 0.500000 0.369720 0.000000 0.334937
Ni2   Ni    Ni4+2 0.630280 0.500000 0.000000 0.319387
Ni3   Ni    Ni4+2 0.500000 0.630280 0.000000 0.320041
Ni4   Ni    Ni4+2 0.369720 0.500000 0.000000 0.335100
Ni5   Ni    Ni4+2 0.000000 0.869720 0.500000 0.317051
Ni6   Ni    Ni4+2 0.130280 0.000000 0.500000 0.334391
Ni7   Ni    Ni4+2 0.000000 0.130280 0.500000 0.333365
Ni8   Ni    Ni4+2 0.869720 0.000000 0.500000 0.318219
O1    O     O_2   0.450822 0.832382 0.868116 -0.214932
O2    O     O_2   0.771393 0.525639 0.000931 -0.312167
O3    O     O_2   0.839656 0.535094 0.884923 -0.204485
O4    O     O_3   0.830402 0.658258 0.967426 -0.522511
O5    O     O_2   0.449049 0.159874 0.114236 -0.199055
O6    O     O_2   0.314611 0.180473 0.075362 -0.302412
O7    O     O_3   0.420297 0.216499 0.983811 -0.492131
O8    O     O_2   0.161854 0.541897 0.098620 -0.209279
O9    O     O_2   0.173121 0.675183 0.053431 -0.277454
O10   O     O_3   0.224320 0.567250 0.971047 -0.489724
O11   O     O_2   0.527190 0.772046 0.998597 -0.309127
O12   O     O_2   0.312349 0.805387 0.858703 -0.268628
O13   O     O_2   0.534716 0.839606 0.115147 -0.208838
O14   O     O_3   0.658779 0.831349 0.033946 -0.523760
O15   O     O_2   0.830217 0.453424 0.134792 -0.221637
O16   O     O_2   0.805638 0.314766 0.148398 -0.267187
O17   O     O_3   0.787457 0.374861 0.018429 -0.499008
O18   O     O_2   0.971619 0.333532 0.394155 -0.213663
O19   O     O_2   0.845117 0.334781 0.455225 -0.282556
O20   O     O_3   0.959380 0.272631 0.523699 -0.516982
O21   O     O_2   0.672086 0.964465 0.347599 -0.237268
O22   O     O_2   0.686942 0.826694 0.376543 -0.245154
O23   O     O_3   0.376999 0.785458 0.985844 -0.498907
O24   O     O_3   0.708053 0.925067 0.483247 -0.513944
O25   O     O_2   0.047601 0.667834 0.353310 -0.237642
O26   O     O_2   0.183711 0.688843 0.383512 -0.271320
O27   O     O_3   0.082488 0.706215 0.487663 -0.547920
O28   O     O_2   0.338791 0.064527 0.379033 -0.225480
O29   O     O_2   0.302428 0.200501 0.395056 -0.279796
O30   O     O_3   0.280765 0.107641 0.505625 -0.483874
O31   O     O_2   0.965848 0.671782 0.650606 -0.217423
O32   O     O_2   0.827224 0.686122 0.626580 -0.246599
O33   O     O_3   0.921028 0.707836 0.516401 -0.520161
O34   O     O_2   0.161161 0.451348 0.883704 -0.179698
O35   O     O_2   0.668442 0.046488 0.645633 -0.234489
O36   O     O_2   0.689236 0.184247 0.622238 -0.269342
O37   O     O_3   0.705231 0.088969 0.512956 -0.535776
O38   O     O_2   0.070261 0.340693 0.617617 -0.219596
O39   O     O_2   0.204743 0.299739 0.601996 -0.287971
O40   O     O_3   0.111508 0.279518 0.491836 -0.482737
O41   O     O_2   0.333027 0.971783 0.606702 -0.218039
O42   O     O_2   0.334846 0.842148 0.552022 -0.287600
O43   O     O_3   0.275133 0.953349 0.476506 -0.517125
O44   O     O_2   0.180154 0.316040 0.921408 -0.303679
O45   O     O_3   0.216248 0.420534 0.014337 -0.493921
O46   O     O_2   0.541538 0.161700 0.901598 -0.208810
O47   O     O_2   0.674222 0.172337 0.947968 -0.281207
O48   O     O_3   0.566070 0.224144 0.029320 -0.496204
S1    S     S_3+6 0.387491 0.779312 0.893027 0.054520
S2    S     S_3+6 0.717908 0.906105 0.391905 0.022397
S3    S     S_3+6 0.102625 0.716900 0.396948 0.001610
S4    S     S_3+6 0.280238 0.118458 0.412518 0.041037
S5    S     S_3+6 0.905728 0.717534 0.608406 0.026557
S6    S     S_3+6 0.717095 0.103916 0.604441 0.012837
S7    S     S_3+6 0.122147 0.279815 0.584930 0.039725
S8    S     S_3+6 0.287933 0.915024 0.561040 0.021203
S9    S     S_3+6 0.213745 0.395970 0.924627 0.038812
S10   S     S_3+6 0.597243 0.212849 0.942301 0.044512
S11   S     S_3+6 0.786527 0.577952 0.936396 -0.005529
S12   S     S_3+6 0.394743 0.213465 0.073216 0.034378
S13   S     S_3+6 0.213196 0.597833 0.058341 0.048402
S14   S     S_3+6 0.578368 0.786915 0.063852 -0.004962
S15   S     S_3+6 0.779097 0.388200 0.110780 0.053551
S16   S     S_3+6 0.916926 0.287610 0.441474 0.024075

loop_
_geom_bond_atom_site_label_1
_geom_bond_atom_site_label_2
_ccdc_geom_bond_type
C42   S10   S    
C53   N22   A    
N2    Ni6   S    
C33   H38   S    
C25   N12   A    
C56   N26   A    
C42   N11   A    
C102  N32   A    
C3    C105  A    
C54   N24   A    
C77   C89   A    
C9    F2    S    
C1    H1    S    
C36   N23   A    
C92   C109  A    
C18   H5    S    
N9    Ni3   S    
C39   H43   S    
C76   C94   A    
O7    S12   S    
O35   S6    D    
C78   C96   A    
N18   Ni7   S    
O26   S3    D    
C81   C86   A    
C85   C103  A    
N4    N18   A    
N17   N30   A    
N7    N26   A    
C79   C87   A    
O28   S4    D    
C34   H21   S    
C3    F11   S    
N19   Ni8   S    
C39   H26   S    
C25   H12   S    
H47   O48   S    
C65   C99   S    
C101  C110  A    
C29   H16   S    
C91   H63   S    
O14   S14   S    
N28   Ni3   S    
O40   S7    S    
C1    N1    A    
C15   C111  A    
C52   S4    S    
O29   S4    D    
C53   S5    S    
C18   N5    A    
N15   N28   A    
N13   Ni2   S    
O2    S11   D    
C12   C97   A    
H58   O33   S    
C72   C106  S    
C28   C33   S    
C83   C100  A    
O42   S8    D    
N17   Ni2   S    
C34   H39   S    
N11   Ni1   S    
C75   C93   A    
C35   H40   S    
C5    C107  A    
C18   C71   A    
C65   C91   A    
C19   N6    A    
C56   C73   A    
C79   C97   A    
C8    C93   A    
C82   C85   A    
C35   C78   S    
N7    Ni5   S    
N1    Ni1   S    
N16   Ni3   S    
N32   Ni5   S    
O8    S13   D    
C20   C73   A    
C26   H30   S    
C69   N29   A    
C73   C107  S    
N2    N20   A    
C12   F5    S    
N15   Ni4   S    
N8    Ni8   S    
C41   N10   A    
N22   Ni5   S    
O1    S1    D    
O31   S5    D    
C68   C103  S    
C86   C104  A    
C6    C9    A    
C7    C8    A    
C32   H19   S    
C38   C76   S    
C19   H6    S    
C14   C112  A    
C22   H9    S    
O19   S16   D    
C66   C105  S    
O3    S11   D    
C16   F8    S    
C37   H41   S    
O45   S9    S    
C27   H31   S    
C45   C62   A    
C28   H32   S    
C4    F12   S    
C47   H34   S    
C58   N28   A    
C8    F16   S    
N4    Ni8   S    
C43   S11   S    
C49   N18   A    
N8    N22   A    
C35   H22   S    
C39   C75   S    
N27   Ni4   S    
C29   C85   S    
O33   S5    S    
H49   O7    S    
H61   O43   S    
H60   O40   S    
C44   C65   A    
C14   C98   A    
C22   H27   S    
O37   S6    S    
C104  C112  A    
O6    S12   D    
C24   H29   S    
C16   C100  A    
N10   Ni4   S    
N30   Ni1   S    
C4    C106  A    
C40   C61   A    
O16   S15   D    
C1    C57   A    
C34   C79   S    
C26   C35   S    
C83   C84   A    
C87   C105  A    
O13   S14   D    
O23   S1    S    
C55   S7    S    
C24   C37   S    
C56   S8    S    
C51   C67   A    
C27   C87   S    
N13   N23   A    
N5    N24   A    
O44   S9    D    
O22   S2    D    
C37   H24   S    
C67   C101  S    
C30   H17   S    
C31   H36   S    
C42   C59   A    
C32   C82   S    
C46   C63   A    
C90   C108  A    
C63   C97   S    
N20   Ni5   S    
C10   C95   A    
C22   C39   S    
C15   F7    S    
N23   Ni3   S    
O4    S11   S    
C80   N30   A    
H46   O45   S    
C48   N17   A    
C5    F13   S    
O25   S3    D    
C22   C92   S    
C17   N4    A    
C46   S14   S    
C38   H25   S    
C7    F15   S    
C32   H37   S    
C9    C94   A    
C13   C68   A    
C60   C94   S    
C11   C96   A    
C58   C62   A    
C82   C99   A    
C23   H10   S    
C53   C74   A    
O38   S7    D    
C16   C110  A    
C55   N25   A    
O11   S14   D    
O12   S1    D    
O10   S13   S    
C29   C32   S    
O9    S13   D    
C30   C31   S    
C70   C104  S    
H57   O30   S    
C48   C64   A    
C43   N13   A    
C81   C98   A    
C103  C111  A    
N26   Ni6   S    
C51   N20   A    
O30   S4    S    
C54   C71   A    
C57   C96   S    
C102  H64   S    
C26   H13   S    
C64   C98   S    
C23   H28   S    
C17   H4    S    
C64   C80   A    
C80   H62   S    
C30   H35   S    
O17   S15   S    
O43   S8    S    
C38   H42   S    
N5    Ni7   S    
C24   H11   S    
O46   S10   D    
O18   S16   D    
C6    F14   S    
C37   C77   S    
N29   Ni2   S    
O48   S10   S    
N1    N10   A    
C2    N2    A    
C46   N16   A    
C33   H20   S    
O47   S10   D    
C89   C107  A    
N14   Ni1   S    
C44   N14   A    
C13   H3    S    
C23   C90   S    
C28   H15   S    
C4    C11   A    
C11   F4    S    
N9    N27   A    
C62   C100  S    
H55   O27   S    
C49   C70   A    
C28   C86   S    
C58   H45   S    
C91   N31   A    
H51   O14   S    
O21   S2    D    
C78   C88   A    
H53   O20   S    
C47   C61   A    
C61   C95   S    
O39   S7    D    
C54   S6    S    
C23   C38   S    
O24   S2    S    
C41   C57   A    
N12   Ni2   S    
N19   N32   A    
C2    H2    S    
N3    N21   A    
C74   C108  S    
C5    C10   A    
C40   N9    A    
H59   O37   S    
C26   C88   S    
C13   N3    A    
O41   S8    D    
N21   Ni6   S    
C76   C90   A    
H50   O10   S    
N11   N12   A    
H44   O23   S    
C111  F9    S    
C66   C102  A    
C24   C89   S    
O32   S5    D    
O15   S15   D    
C27   H14   S    
C31   C83   S    
C49   S16   S    
C3    C12   A    
C31   H18   S    
C14   F6    S    
C21   H8    S    
C55   C72   A    
C52   C68   A    
C17   C70   A    
C45   N15   A    
C84   C101  A    
C51   S3    S    
C19   C72   A    
C27   C34   S    
C40   S1    S    
C29   H33   S    
C50   S2    S    
C2    C67   A    
N31   Ni4   S    
N16   N29   A    
C47   N27   A    
C21   C74   A    
C77   C95   A    
C7    C109  A    
C20   N7    A    
C112  F10   S    
C88   C106  A    
H52   O17   S    
N14   N31   A    
N3    Ni7   S    
C50   C66   A    
C110  F1    S    
C48   S15   S    
C43   C60   A    
C50   N19   A    
C21   N8    A    
C75   C92   A    
C44   S12   S    
O36   S6    D    
O20   S16   S    
C45   S13   S    
C15   C99   A    
C36   C60   A    
O5    S12   D    
N6    Ni6   S    
C36   H23   S    
C41   S9    S    
C25   C59   A    
O27   S3    S    
C63   C69   A    
N25   Ni7   S    
H48   O4    S    
H54   O24   S    
C71   C109  S    
C52   N21   A    
N24   Ni8   S    
O34   S9    D    
C20   H7    S    
C30   C84   S    
C69   H56   S    
N6    N25   A    
C6    C108  A    
C59   C93   S    
C33   C81   S    
C10   F3    S    
