data_mof_unit_43198.cif
_audit_creation_date              2012-12-10T17:35:02-0500
_audit_creation_method            fapswitch 2.2
_symmetry_space_group_name_H-M    P1
_symmetry_Int_Tables_number       1
_space_group_crystal_system       triclinic
_cell_length_a                    12.338755
_cell_length_b                    13.176831
_cell_length_c                    13.87953
_cell_angle_alpha                 105.34428
_cell_angle_beta                  74.214111
_cell_angle_gamma                 116.406537
_cell_volume                      1917.73526801

loop_
_atom_site_label
_atom_site_type_symbol
_atom_type_description
_atom_site_fract_x
_atom_site_fract_y
_atom_site_fract_z
_atom_type_partial_charge
C1    C     C_R   0.144378 0.713521 0.507599 0.774757
C2    C     C_1   0.975905 0.506824 0.791374 -0.162824
C3    C     C_R   0.739591 0.969491 0.386103 -0.127035
C4    C     C_R   0.774513 0.163761 0.470339 -0.057000
C5    C     C_R   0.178051 0.917965 0.563680 -0.173716
C6    C     C_R   0.255023 0.033361 0.581568 -0.125748
C7    C     C_R   0.381588 0.068723 0.551093 -0.157259
C8    C     C_R   0.434419 0.988870 0.497542 0.087094
C9    C     C_R   0.354112 0.873661 0.468767 0.086875
C10   C     C_R   0.563829 0.019726 0.470756 0.054635
C11   C     C_R   0.611080 0.936504 0.412146 0.130158
C12   C     C_R   0.984555 0.504274 0.686296 0.813046
C13   C     C_R   0.528807 0.824946 0.376639 -0.024261
C14   C     C_R   0.403250 0.798613 0.399435 -0.275472
C15   C     C_R   0.647962 0.131508 0.501124 -0.210833
C16   C     C_R   0.819880 0.081472 0.415591 -0.211516
C17   C     C_R   0.226231 0.836476 0.510001 -0.092468
C18   C     C_R   0.646679 0.683092 0.657454 -0.237774
C19   C     C_R   0.258670 0.353444 0.360757 -0.010755
C20   C     C_R   0.373008 0.345819 0.316267 0.368503
C21   C     C_R   0.474617 0.413209 0.362566 0.374739
C22   C     C_R   0.461478 0.481902 0.458676 -0.192106
C23   C     C_R   0.856029 0.286123 0.486761 0.797415
C24   C     C_R   0.350450 0.500816 0.493084 0.165246
C25   C     C_R   0.556430 0.536110 0.519170 -0.049937
C26   C     C_R   0.549951 0.624201 0.602032 0.150743
C27   C     C_R   0.446714 0.651264 0.629634 0.341894
C28   C     C_R   0.347366 0.586899 0.577892 -0.222765
C29   C     C_R   0.656100 0.503243 0.503026 0.040054
C30   C     C_R   0.746194 0.652130 0.632832 0.049494
C31   C     C_R   0.015548 0.495870 0.313717 0.808138
C32   C     C_1   0.024511 0.493694 0.208674 -0.149721
C33   C     C_2   0.040918 0.489855 0.014703 -0.156758
C34   C     C_2   0.959934 0.511250 0.985401 -0.130865
C35   C     C_1   0.968206 0.509015 0.879943 0.015996
C36   C     C_1   0.032462 0.491816 0.120131 0.027247
Cu1   Cu    Cu3+1 0.899780 0.525060 0.522890 0.960178
Cu2   Cu    Cu3+1 0.100220 0.474940 0.477110 0.924668
H1    H     H_    0.887015 0.530366 0.040350 0.176161
H2    H     H_    0.344178 0.717257 0.361965 0.169619
H3    H     H_    0.821301 0.698607 0.674641 0.129599
H4    H     H_    0.645801 0.752597 0.719849 0.194842
H5    H     H_    0.660413 0.429010 0.448728 0.174449
H6    H     H_    0.269521 0.607888 0.606322 0.196255
H7    H     H_    0.113816 0.470707 0.959756 0.159460
H8    H     H_    0.917408 0.104409 0.391992 0.204420
H9    H     H_    0.780542 0.911675 0.338956 0.203006
H10   H     H_    0.617819 0.196582 0.548065 0.148394
H11   H     H_    0.080750 0.892273 0.594262 0.157121
H12   H     H_    0.434446 0.159528 0.569619 0.127372
H13   H     H_    0.216674 0.095638 0.622539 0.147240
N1    N     N_R   0.748810 0.563010 0.557590 -0.184223
N2    N     N_R   0.250540 0.437620 0.443020 -0.236858
O1    O     O_R   0.025040 0.682470 0.528790 -0.577597
O2    O     O_R   0.194310 0.640150 0.490130 -0.600569
O3    O     O_R   0.903380 0.524130 0.659910 -0.572294
O4    O     O_R   0.072660 0.481800 0.621240 -0.584404
O5    O     O_R   0.805690 0.359850 0.509870 -0.586326
O6    O     O_R   0.974960 0.317530 0.471210 -0.593482
O7    O     O_R   0.927340 0.518200 0.378760 -0.553491
O8    O     O_R   0.096620 0.475870 0.340090 -0.616073
O9    O     O_3   0.442543 0.738515 0.710182 -0.733517
H14   H     H_    0.364901 0.748127 0.719320 0.322966
C37   C     C_2   0.149424 0.266907 0.317393 0.360378
H15   H     H_    0.082493 0.289334 0.302397 0.119587
O10   O     O_2   0.134553 0.166037 0.294961 -0.554954
O11   O     O_3   0.587090 0.418134 0.305849 -0.685644
H16   H     H_    0.647515 0.498832 0.317863 0.347161
O12   O     O_3   0.391130 0.277712 0.223845 -0.640764
H17   H     H_    0.331534 0.267010 0.182711 0.331792
C38   C     C_2   0.566806 0.730816 0.316773 0.334421
H18   H     H_    0.514567 0.668309 0.259835 0.077796
O13   O     O_2   0.649794 0.716531 0.335218 -0.563906

loop_
_geom_bond_atom_site_label_1
_geom_bond_atom_site_label_2
_ccdc_geom_bond_type
C2    C35   T    
C4    C16   A    
C23   O5    A    
C9    C14   A    
C30   H3    S    
C6    C7    A    
C18   C30   A    
C27   O9    S    
C6    H13   S    
C24   N2    A    
Cu2   O4    S    
C33   H7    S    
C31   O8    A    
C1    C17   S    
Cu1   O5    S    
C18   C26   A    
Cu2   O6    S    
C19   C37   S    
C1    O1    A    
Cu2   O8    S    
C2    C12   S    
C37   H15   S    
C19   N2    A    
C4    C15   A    
C33   C34   D    
C1    O2    A    
C38   H18   S    
C12   O3    A    
C13   C14   A    
C21   O11   S    
C23   O6    A    
C11   C13   A    
C5    H11   S    
C26   C27   A    
O9    H14   S    
Cu2   N2    S    
C15   H10   S    
Cu1   O1    S    
C32   C36   T    
C3    C16   A    
C3    H9    S    
Cu1   Cu2   S    
C4    C23   S    
C22   C24   A    
C10   C15   A    
C18   H4    S    
C25   C29   A    
C5    C6    A    
O12   H17   S    
C20   O12   S    
Cu1   O7    S    
C5    C17   A    
C10   C11   A    
C12   O4    A    
C14   H2    S    
O11   H16   S    
C22   C25   A    
C7    C8    A    
C33   C36   S    
C3    C11   A    
C20   C21   A    
C19   C20   A    
C8    C10   A    
C34   C35   S    
C9    C17   A    
C27   C28   A    
C38   O13   D    
Cu1   N1    S    
C30   N1    A    
C16   H8    S    
C13   C38   S    
C31   O7    A    
C25   C26   A    
C21   C22   A    
Cu1   O3    S    
C34   H1    S    
C28   H6    S    
C31   C32   S    
C29   H5    S    
Cu2   O2    S    
C24   C28   A    
C7    H12   S    
C8    C9    A    
C29   N1    A    
C37   O10   D    
