data_mof_unit_25159.cif
_audit_creation_date              2012-12-10T19:17:53-0500
_audit_creation_method            fapswitch 2.2
_symmetry_space_group_name_H-M    P1
_symmetry_Int_Tables_number       1
_space_group_crystal_system       triclinic
_cell_length_a                    16.019211
_cell_length_b                    14.798299
_cell_length_c                    10.684149
_cell_angle_alpha                 90.851846
_cell_angle_beta                  90.341842
_cell_angle_gamma                 89.95978
_cell_volume                      2532.42763319

loop_
_atom_site_label
_atom_site_type_symbol
_atom_type_description
_atom_site_fract_x
_atom_site_fract_y
_atom_site_fract_z
_atom_type_partial_charge
C1    C     C_R   0.341044 0.499988 0.500426 0.829544
C2    C     C_R   0.087421 0.499690 0.500118 0.034662
C3    C     C_R   0.500690 0.499254 0.259109 0.827866
C4    C     C_R   0.499310 0.500746 0.740891 0.827866
C5    C     C_1   0.252266 0.499798 0.501172 -0.206257
C6    C     C_1   0.747734 0.500202 0.498829 -0.206258
C7    C     C_R   0.566890 0.951706 0.559661 0.039585
C8    C     C_R   0.433110 0.048294 0.440338 0.039585
C9    C     C_R   0.433018 0.950267 0.440929 0.038478
C10   C     C_R   0.566982 0.049733 0.559071 0.038478
C11   C     C_R   0.499987 0.902248 0.500355 0.010457
C12   C     C_R   0.658956 0.500012 0.499574 0.829544
C13   C     C_R   0.500014 0.097752 0.499645 0.010457
C14   C     C_3   0.430495 0.538960 0.043977 0.141846
C15   C     C_3   0.569505 0.461039 0.956023 0.141850
C16   C     C_3   0.496404 0.586394 0.963664 0.161998
C17   C     C_3   0.503595 0.413606 0.036336 0.162002
C18   C     C_3   0.432587 0.454658 0.956901 0.044926
C19   C     C_3   0.567413 0.545341 0.043099 0.044923
C20   C     C_3   0.498773 0.502124 0.876990 -0.140083
C21   C     C_3   0.501227 0.497876 0.123009 -0.140085
C22   C     C_1   0.500136 0.802522 0.499977 0.107167
C23   C     C_1   0.822595 0.500478 0.498727 -0.062209
C24   C     C_1   0.499864 0.197478 0.500023 0.107166
C25   C     C_3   0.641837 0.097531 0.626416 -0.444657
C26   C     C_3   0.653058 0.200674 0.629789 -0.307288
C27   C     C_3   0.733765 0.227450 0.697734 -0.906165
C28   C     C_3   0.358163 0.902469 0.373584 -0.444658
C29   C     C_3   0.346942 0.799326 0.370210 -0.307290
C30   C     C_3   0.266236 0.772550 0.302264 -0.906167
C31   C     C_3   0.357569 0.094450 0.374391 -0.444389
C32   C     C_3   0.351132 0.197210 0.358611 -0.311273
C33   C     C_3   0.273975 0.222454 0.281793 -0.914242
C34   C     C_1   0.177405 0.499522 0.501274 -0.062208
C35   C     C_3   0.642432 0.905550 0.625608 -0.444388
C36   C     C_3   0.648868 0.802790 0.641389 -0.311273
C37   C     C_3   0.726025 0.777546 0.718208 -0.914245
C38   C     C_3   0.356736 0.406782 0.897963 -0.374310
C39   C     C_3   0.302058 0.360447 0.995057 -0.336920
C40   C     C_3   0.222518 0.322829 0.935118 -0.881265
C41   C     C_3   0.643262 0.593219 0.102038 -0.374302
C42   C     C_3   0.697946 0.639547 0.004944 -0.336918
C43   C     C_3   0.777478 0.677178 0.064891 -0.881247
C44   C     C_3   0.353421 0.585497 0.097485 -0.871368
C45   C     C_R   0.955967 0.583459 0.508808 0.047535
C46   C     C_3   0.646578 0.414502 0.902514 -0.871372
C47   C     C_3   0.488316 0.684159 0.923027 -0.841310
C48   C     C_3   0.511683 0.315841 0.076973 -0.841314
C49   C     C_3   0.094059 0.671158 0.516653 -0.397342
C50   C     C_3   0.116923 0.694038 0.653092 -0.334694
C51   C     C_3   0.165810 0.782318 0.663016 -0.861052
C52   C     C_3   0.905941 0.328841 0.483344 -0.397344
C53   C     C_3   0.883078 0.305964 0.346905 -0.334695
C54   C     C_3   0.834188 0.217686 0.336978 -0.861048
C55   C     C_3   0.907088 0.671942 0.517042 -0.397005
C56   C     C_R   0.044033 0.416541 0.491193 0.047536
C57   C     C_3   0.888411 0.707739 0.385762 -0.332150
C58   C     C_3   0.845676 0.799841 0.391878 -0.876581
C59   C     C_3   0.092912 0.328058 0.482960 -0.397005
C60   C     C_3   0.111587 0.292259 0.614239 -0.332151
C61   C     C_3   0.154331 0.200162 0.608122 -0.876590
C62   C     C_R   0.044437 0.583175 0.507909 0.048828
C63   C     C_R   0.955562 0.416824 0.492092 0.048829
C64   C     C_R   0.912579 0.500309 0.499883 0.034662
Cu1   Cu    Cu3+1 0.500000 0.589220 0.500000 0.932972
Cu2   Cu    Cu3+1 0.500000 0.410780 0.500000 0.932972
H1    H     H_    0.732433 0.204709 0.796324 0.256833
H2    H     H_    0.259524 0.697875 0.302210 0.253454
H3    H     H_    0.399130 0.767262 0.317895 0.235409
H4    H     H_    0.342917 0.773384 0.466937 0.236322
H5    H     H_    0.299994 0.928709 0.416708 0.204956
H6    H     H_    0.359410 0.922166 0.273796 0.200456
H7    H     H_    0.277723 0.192425 0.186115 0.256338
H8    H     H_    0.216361 0.197838 0.327360 0.260298
H9    H     H_    0.270197 0.297108 0.274046 0.248854
H10   H     H_    0.345252 0.231085 0.451533 0.239337
H11   H     H_    0.406401 0.222049 0.307731 0.231007
H12   H     H_    0.788648 0.197052 0.649940 0.255102
H13   H     H_    0.354059 0.066901 0.277441 0.206053
H14   H     H_    0.300157 0.074961 0.425021 0.200229
H15   H     H_    0.783639 0.802162 0.672641 0.260297
H16   H     H_    0.722277 0.807576 0.813885 0.256339
H17   H     H_    0.729803 0.702892 0.725955 0.248854
H18   H     H_    0.593599 0.777951 0.692269 0.231007
H19   H     H_    0.654749 0.768915 0.548466 0.239339
H20   H     H_    0.699843 0.925039 0.574978 0.200227
H21   H     H_    0.645942 0.933099 0.722558 0.206054
H22   H     H_    0.184613 0.378399 0.895161 0.252059
H23   H     H_    0.740476 0.302125 0.697788 0.253454
H24   H     H_    0.238305 0.273222 0.859949 0.261276
H25   H     H_    0.184849 0.288242 0.006971 0.245573
H26   H     H_    0.336870 0.303629 0.036965 0.226985
H27   H     H_    0.284471 0.408695 0.070699 0.227234
H28   H     H_    0.319334 0.457779 0.846736 0.187539
H29   H     H_    0.379040 0.355248 0.829247 0.208674
H30   H     H_    0.761680 0.726795 0.140044 0.261270
H31   H     H_    0.815383 0.621616 0.104872 0.252054
H32   H     H_    0.815151 0.711758 0.993036 0.245571
H33   H     H_    0.715545 0.591289 0.929317 0.227230
H34   H     H_    0.657083 0.226615 0.533061 0.236321
H35   H     H_    0.663134 0.696356 0.963013 0.226985
H36   H     H_    0.620956 0.644758 0.170746 0.208676
H37   H     H_    0.680662 0.542225 0.153276 0.187533
H38   H     H_    0.307981 0.598896 0.021203 0.233856
H39   H     H_    0.324091 0.542533 0.169096 0.215506
H40   H     H_    0.372043 0.650485 0.142362 0.250883
H41   H     H_    0.692020 0.401106 0.978796 0.233856
H42   H     H_    0.627956 0.349513 0.857641 0.250884
H43   H     H_    0.675907 0.457465 0.830900 0.215505
H44   H     H_    0.492562 0.729804 0.006166 0.226292
H45   H     H_    0.600870 0.232739 0.682104 0.235409
H46   H     H_    0.538745 0.700474 0.857025 0.230133
H47   H     H_    0.427223 0.694171 0.875689 0.239651
H48   H     H_    0.507439 0.270195 0.993835 0.226291
H49   H     H_    0.572775 0.305829 0.124314 0.239652
H50   H     H_    0.461253 0.299526 0.142974 0.230134
H51   H     H_    0.225130 0.776504 0.610397 0.260365
H52   H     H_    0.128313 0.838957 0.625081 0.249697
H53   H     H_    0.180773 0.797452 0.762742 0.240809
H54   H     H_    0.059316 0.700476 0.709958 0.210571
H55   H     H_    0.155569 0.638886 0.692793 0.224058
H56   H     H_    0.640589 0.077835 0.726205 0.200455
H57   H     H_    0.151824 0.665763 0.460372 0.208259
H58   H     H_    0.060060 0.728280 0.474000 0.195051
H59   H     H_    0.871680 0.161046 0.374916 0.249698
H60   H     H_    0.774866 0.223503 0.389591 0.260364
H61   H     H_    0.819228 0.202552 0.237250 0.240808
H62   H     H_    0.844434 0.361117 0.307203 0.224058
H63   H     H_    0.940686 0.299523 0.290040 0.210571
H64   H     H_    0.939939 0.271719 0.525996 0.195049
H65   H     H_    0.848175 0.334236 0.539624 0.208261
H66   H     H_    0.783401 0.793778 0.435642 0.262567
H67   H     H_    0.700006 0.071291 0.583294 0.204956
H68   H     H_    0.884220 0.848862 0.446676 0.250756
H69   H     H_    0.837263 0.826023 0.295810 0.241713
H70   H     H_    0.947192 0.714103 0.331950 0.213505
H71   H     H_    0.847086 0.659317 0.334661 0.227189
H72   H     H_    0.847559 0.662562 0.567771 0.207765
H73   H     H_    0.940647 0.723408 0.574478 0.193631
H74   H     H_    0.115797 0.151139 0.553313 0.250758
H75   H     H_    0.216608 0.206234 0.564369 0.262568
H76   H     H_    0.162740 0.173976 0.704188 0.241713
H77   H     H_    0.152905 0.340684 0.665347 0.227191
H78   H     H_    0.211352 0.802948 0.350058 0.255103
H79   H     H_    0.052805 0.285887 0.668045 0.213505
H80   H     H_    0.059354 0.276592 0.425522 0.193628
H81   H     H_    0.152442 0.337438 0.432233 0.207769
H82   H     H_    0.267567 0.795291 0.203674 0.256833
N1    N     N_1   0.500000 0.276710 0.500000 -0.193240
N2    N     N_1   0.500000 0.723290 0.500000 -0.193240
O1    O     O_R   0.380310 0.575320 0.500020 -0.572189
O2    O     O_R   0.619690 0.424680 0.499980 -0.572189
O3    O     O_R   0.619690 0.575320 0.499980 -0.577669
O4    O     O_R   0.380310 0.424680 0.500020 -0.577669
O5    O     O_R   0.499980 0.575330 0.316850 -0.583242
O6    O     O_R   0.500020 0.424670 0.683150 -0.583242
O7    O     O_R   0.500020 0.575330 0.683150 -0.575207
O8    O     O_R   0.499980 0.424670 0.316850 -0.575207

loop_
_geom_bond_atom_site_label_1
_geom_bond_atom_site_label_2
_ccdc_geom_bond_type
C7    C10   A    
C22   N2    T    
C8    C13   A    
C41   C42   S    
C12   O2    A    
C35   C36   S    
C17   C48   S    
C12   O3    A    
C27   H12   S    
C44   H38   S    
C55   H73   S    
C31   H14   S    
C53   C54   S    
C58   H68   S    
C15   C19   S    
C54   H60   S    
C26   C27   S    
C55   H72   S    
C1    C5    S    
C14   C21   S    
C14   C44   S    
C36   C37   S    
C19   C21   S    
C60   H77   S    
C6    C12   S    
C38   C39   S    
C35   H20   S    
C47   H46   S    
C49   H57   S    
C45   C62   A    
C51   H52   S    
C30   H78   S    
C41   H36   S    
C15   C17   S    
Cu1   N2    S    
C14   C18   S    
C39   H27   S    
Cu1   O3    S    
C32   H11   S    
C35   H21   S    
C33   H9    S    
C4    O7    A    
C58   H66   S    
C8    C9    A    
C46   H42   S    
C38   H29   S    
C3    O8    A    
C51   H53   S    
C43   H32   S    
C57   H70   S    
C1    O1    A    
C25   H67   S    
C25   H56   S    
C48   H50   S    
C2    C34   S    
C59   C60   S    
C5    C34   T    
C52   H65   S    
C37   H15   S    
C28   H6    S    
C50   H55   S    
C16   C47   S    
C50   C51   S    
C29   H3    S    
C15   C20   S    
C54   H59   S    
Cu2   N1    S    
Cu1   O7    S    
C39   C40   S    
Cu2   O4    S    
C25   C26   S    
C44   H39   S    
C49   H58   S    
C10   C13   A    
C17   C21   S    
C41   H37   S    
C13   C24   S    
C60   C61   S    
Cu1   O1    S    
C7    C11   A    
Cu2   O2    S    
C29   C30   S    
C53   H62   S    
C43   H30   S    
C61   H76   S    
C31   C32   S    
C16   C20   S    
C36   H19   S    
C46   H41   S    
C38   H28   S    
C3    O5    A    
C17   C18   S    
C56   C63   A    
C57   H71   S    
C30   H82   S    
C9    C11   A    
C48   H49   S    
C10   C25   S    
C33   H7    S    
C23   C64   S    
C4    O6    A    
Cu1   Cu2   S    
C55   C57   S    
C50   H54   S    
C14   C16   S    
C37   H16   S    
C3    C21   S    
C28   H5    S    
C53   H63   S    
C42   C43   S    
C42   H35   S    
C39   H26   S    
Cu2   O8    S    
C52   C53   S    
C48   H48   S    
C29   H4    S    
C61   H75   S    
C47   H47   S    
C28   C29   S    
C49   C62   S    
C11   C22   S    
C8    C31   S    
C7    C35   S    
C43   H31   S    
C52   C63   S    
C32   H10   S    
C61   H74   S    
C31   H13   S    
C44   H40   S    
C58   H69   S    
C47   H44   S    
C54   H61   S    
C45   C64   A    
C56   C59   S    
C52   H64   S    
C32   C33   S    
C40   H22   S    
C18   C38   S    
Cu1   O5    S    
C2    C56   A    
C42   H33   S    
Cu2   O6    S    
C57   C58   S    
C36   H18   S    
C16   C19   S    
C6    C23   T    
C51   H51   S    
C27   H23   S    
C18   C20   S    
C40   H25   S    
C1    O4    A    
C27   H1    S    
C24   N1    T    
C63   C64   A    
C4    C20   S    
C59   H80   S    
C19   C41   S    
C33   H8    S    
C45   C55   S    
C49   C50   S    
C60   H79   S    
C46   H43   S    
C37   H17   S    
C15   C46   S    
C40   H24   S    
C26   H45   S    
C30   H2    S    
C2    C62   A    
C9    C28   S    
C26   H34   S    
C59   H81   S    
