data_mof_unit_62653.cif
_audit_creation_date              2012-12-11T17:18:17-0500
_audit_creation_method            fapswitch 2.2
_symmetry_space_group_name_H-M    P1
_symmetry_Int_Tables_number       1
_space_group_crystal_system       triclinic
_cell_length_a                    27.481712
_cell_length_b                    22.478651
_cell_length_c                    21.073259
_cell_angle_alpha                 89.969238
_cell_angle_beta                  51.474126
_cell_angle_gamma                 90.089521
_cell_volume                      10184.335318

loop_
_atom_site_label
_atom_site_type_symbol
_atom_type_description
_atom_site_fract_x
_atom_site_fract_y
_atom_site_fract_z
_atom_type_partial_charge
C1    C     C_R   0.899064 0.569827 0.736452 0.436769
C2    C     C_R   0.065906 0.414627 0.277838 0.541291
C3    C     C_R   0.101832 0.569676 0.263584 0.453093
C4    C     C_R   0.934136 0.414593 0.722177 0.542390
C5    C     C_R   0.399064 0.069827 0.736452 0.436769
C6    C     C_R   0.565906 0.914627 0.277838 0.541291
C7    C     C_R   0.601832 0.069676 0.263584 0.453093
C8    C     C_R   0.434136 0.914593 0.722177 0.542390
C9    C     C_1   0.236306 0.659965 0.123162 0.144385
C10   C     C_1   0.894486 0.277455 0.831151 0.146725
C11   C     C_1   0.766951 0.661855 0.876907 0.140704
C12   C     C_1   0.105878 0.277548 0.169205 0.143555
C13   C     C_1   0.736306 0.159965 0.123162 0.144385
C14   C     C_1   0.394485 0.777455 0.831151 0.146725
C15   C     C_1   0.266951 0.161855 0.876907 0.140704
C16   C     C_1   0.605878 0.777548 0.169205 0.143554
C17   C     C_1   0.906959 0.312529 0.780234 0.112427
C18   C     C_1   0.189598 0.642173 0.185546 0.085229
C19   C     C_1   0.092903 0.312599 0.220251 0.122099
C20   C     C_1   0.813257 0.643781 0.814541 0.114558
C21   C     C_1   0.406959 0.812529 0.780234 0.112427
C22   C     C_1   0.689598 0.142173 0.185546 0.085229
C23   C     C_1   0.592903 0.812599 0.220251 0.122099
C24   C     C_1   0.313257 0.143781 0.814541 0.114558
C25   C     C_1   0.118714 0.688218 0.590673 0.006714
C26   C     C_1   0.785906 0.367304 0.549890 0.017841
C27   C     C_1   0.881433 0.688141 0.409238 0.000184
C28   C     C_1   0.212424 0.366232 0.454299 0.012680
C29   C     C_1   0.618714 0.188218 0.590673 0.006714
C30   C     C_1   0.285906 0.867304 0.549890 0.017841
C31   C     C_1   0.381433 0.188141 0.409238 0.000184
C32   C     C_1   0.712424 0.866232 0.454299 0.012680
C33   C     C_2   0.162551 0.768988 0.632790 0.301879
C34   C     C_2   0.682358 0.320367 0.591234 0.299744
C35   C     C_2   0.837094 0.769764 0.369079 0.302428
C36   C     C_2   0.315947 0.319875 0.413183 0.298595
C37   C     C_2   0.662551 0.268988 0.632790 0.301878
C38   C     C_2   0.182358 0.820367 0.591234 0.299743
C39   C     C_2   0.337094 0.269763 0.369079 0.302428
C40   C     C_2   0.815946 0.819875 0.413183 0.298595
C41   C     C_1   0.736985 0.348040 0.571835 0.096799
C42   C     C_1   0.135224 0.725392 0.614273 0.102537
C43   C     C_1   0.261257 0.347248 0.432727 0.098364
C44   C     C_1   0.864770 0.725654 0.386288 0.102149
C45   C     C_1   0.236985 0.848040 0.571835 0.096799
C46   C     C_1   0.635224 0.225392 0.614273 0.102536
C47   C     C_1   0.761257 0.847248 0.432727 0.098364
C48   C     C_1   0.364770 0.225654 0.386288 0.102149
C49   C     C_R   0.879164 0.433407 0.463336 0.080042
C50   C     C_R   0.089460 0.585119 0.583371 0.037685
C51   C     C_R   0.119968 0.432558 0.538377 0.094354
C52   C     C_R   0.910696 0.585074 0.416406 0.052927
C53   C     C_R   0.379164 0.933407 0.463336 0.080042
C54   C     C_R   0.589460 0.085119 0.583371 0.037685
C55   C     C_R   0.619968 0.932558 0.538377 0.094354
C56   C     C_R   0.410696 0.085074 0.416406 0.052927
C57   C     C_R   0.913478 0.651859 0.489850 -0.130242
C58   C     C_R   0.116755 0.366576 0.463774 -0.126327
C59   C     C_R   0.086677 0.651973 0.509832 -0.075977
C60   C     C_R   0.882447 0.367454 0.538084 -0.109773
C61   C     C_R   0.413478 0.151859 0.489850 -0.130242
C62   C     C_R   0.616755 0.866576 0.463774 -0.126327
C63   C     C_R   0.586677 0.151973 0.509832 -0.075977
C64   C     C_R   0.382447 0.867454 0.538084 -0.109773
C65   C     C_R   0.924103 0.347175 0.655146 -0.005720
C66   C     C_R   0.103699 0.639637 0.335963 -0.008004
C67   C     C_R   0.076247 0.347318 0.344710 -0.021011
C68   C     C_R   0.896783 0.639915 0.664501 -0.013655
C69   C     C_R   0.424103 0.847175 0.655146 -0.005719
C70   C     C_R   0.603699 0.139637 0.335963 -0.008004
C71   C     C_R   0.576247 0.847318 0.344710 -0.021011
C72   C     C_R   0.396783 0.139915 0.664501 -0.013655
C73   C     C_R   0.867981 0.619980 0.741943 -0.072854
C74   C     C_R   0.083774 0.357038 0.274854 -0.096598
C75   C     C_R   0.133720 0.619412 0.258146 -0.098308
C76   C     C_R   0.915949 0.356957 0.725534 -0.110338
C77   C     C_R   0.367981 0.119980 0.741943 -0.072854
C78   C     C_R   0.583774 0.857038 0.274854 -0.096599
C79   C     C_R   0.633720 0.119412 0.258146 -0.098308
C80   C     C_R   0.415949 0.856957 0.725534 -0.110338
C81   C     C_R   0.845850 0.388512 0.519071 0.027431
C82   C     C_R   0.104232 0.643006 0.557469 0.012384
C83   C     C_R   0.152775 0.387158 0.484030 0.018439
C84   C     C_R   0.895885 0.642835 0.442325 0.034667
C85   C     C_R   0.345850 0.888512 0.519071 0.027430
C86   C     C_R   0.604232 0.143006 0.557469 0.012383
C87   C     C_R   0.652775 0.887158 0.484030 0.018439
C88   C     C_R   0.395885 0.142835 0.442325 0.034667
C89   C     C_R   0.806863 0.154336 0.976266 -0.251300
C90   C     C_R   0.358890 0.763859 0.968021 -0.247141
C91   C     C_R   0.196348 0.155939 0.023783 -0.253453
C92   C     C_R   0.642598 0.764061 0.031905 -0.250945
C93   C     C_R   0.306863 0.654336 0.976266 -0.251300
C94   C     C_R   0.858890 0.263859 0.968021 -0.247141
C95   C     C_R   0.696348 0.655939 0.023783 -0.253453
C96   C     C_R   0.142598 0.264061 0.031905 -0.250945
C97   C     C_R   0.289661 0.681955 0.047047 -0.102360
C98   C     C_R   0.871420 0.239014 0.898333 -0.104525
C99   C     C_R   0.713567 0.683562 0.952931 -0.105687
C100  C     C_R   0.129885 0.239281 0.101785 -0.101849
C101  C     C_R   0.789661 0.181955 0.047047 -0.102360
C102  C     C_R   0.371420 0.739014 0.898333 -0.104525
C103  C     C_R   0.213567 0.183562 0.952931 -0.105687
C104  C     C_R   0.629885 0.739281 0.101785 -0.101849
C105  C     C_R   0.317839 0.735519 0.042772 0.501617
C106  C     C_R   0.847718 0.182786 0.901571 0.505369
C107  C     C_R   0.684608 0.736381 0.957071 0.506226
C108  C     C_R   0.154533 0.183728 0.098556 0.505795
C109  C     C_R   0.817839 0.235519 0.042772 0.501618
C110  C     C_R   0.347718 0.682786 0.901571 0.505369
C111  C     C_R   0.184608 0.236381 0.957071 0.506226
C112  C     C_R   0.654534 0.683728 0.098556 0.505795
H1    H     H_    0.922837 0.695278 0.501559 0.124135
H2    H     H_    0.129659 0.331738 0.420975 0.134529
H3    H     H_    0.077800 0.695310 0.497050 0.137829
H4    H     H_    0.869303 0.332919 0.581555 0.153246
H5    H     H_    0.422837 0.195278 0.501559 0.124135
H6    H     H_    0.629659 0.831738 0.420975 0.134529
H7    H     H_    0.577800 0.195310 0.497050 0.137829
H8    H     H_    0.369303 0.832919 0.581555 0.153245
H9    H     H_    0.785030 0.112899 0.979808 0.212837
H10   H     H_    0.376768 0.807570 0.965503 0.213207
H11   H     H_    0.218712 0.115008 0.020323 0.212476
H12   H     H_    0.624028 0.807298 0.034430 0.213300
H13   H     H_    0.285030 0.612899 0.979808 0.212837
H14   H     H_    0.876768 0.307570 0.965503 0.213207
H15   H     H_    0.718712 0.615008 0.020323 0.212476
H16   H     H_    0.124028 0.307298 0.034430 0.213300
N1    N     N_R   0.945330 0.558420 0.657110 -0.098202
N2    N     N_R   0.054670 0.441580 0.342890 -0.101511
N3    N     N_R   0.054670 0.558420 0.342890 -0.100769
N4    N     N_R   0.945330 0.441580 0.657110 -0.101792
N5    N     N_R   0.445330 0.058420 0.657110 -0.098202
N6    N     N_R   0.554670 0.941580 0.342890 -0.101511
N7    N     N_R   0.554670 0.058420 0.342890 -0.100769
N8    N     N_R   0.445330 0.941580 0.657110 -0.101792
N9    N     N_R   0.932950 0.440460 0.451240 -0.046180
N10   N     N_R   0.067050 0.559540 0.548760 -0.050331
N11   N     N_R   0.067050 0.440460 0.548760 -0.043493
N12   N     N_R   0.932950 0.559540 0.451240 -0.048336
N13   N     N_R   0.432950 0.940460 0.451240 -0.046180
N14   N     N_R   0.567050 0.059540 0.548760 -0.050331
N15   N     N_R   0.567050 0.940460 0.548760 -0.043493
N16   N     N_R   0.432950 0.059540 0.451240 -0.048336
N17   N     N_R   0.935620 0.600470 0.495720 -0.058728
N18   N     N_R   0.064380 0.399530 0.504280 -0.066478
N19   N     N_R   0.064380 0.600470 0.504280 -0.059123
N20   N     N_R   0.935620 0.399530 0.495720 -0.062832
N21   N     N_R   0.435620 0.100470 0.495720 -0.058728
N22   N     N_R   0.564380 0.899530 0.504280 -0.066478
N23   N     N_R   0.564380 0.100470 0.504280 -0.059123
N24   N     N_R   0.435620 0.899530 0.495720 -0.062832
N25   N     N_R   0.942650 0.398400 0.612630 -0.092687
N26   N     N_R   0.057350 0.601600 0.387370 -0.080586
N27   N     N_R   0.057350 0.398400 0.387370 -0.086724
N28   N     N_R   0.942650 0.601600 0.612630 -0.088829
N29   N     N_R   0.442650 0.898400 0.612630 -0.092687
N30   N     N_R   0.557350 0.101600 0.387370 -0.080586
N31   N     N_R   0.557350 0.898400 0.387370 -0.086724
N32   N     N_R   0.442650 0.101600 0.612630 -0.088829
Ni1   Ni    Ni4+2 0.004930 0.500000 0.602010 0.288093
Ni2   Ni    Ni4+2 0.995070 0.500000 0.397990 0.281586
Ni3   Ni    Ni4+2 0.504930 1.000000 0.602010 0.288093
Ni4   Ni    Ni4+2 0.495070 0.000000 0.397990 0.281586
Ni5   Ni    Ni4+2 0.998800 0.599610 0.500000 0.194374
Ni6   Ni    Ni4+2 0.001200 0.400390 0.500000 0.195427
Ni7   Ni    Ni4+2 0.498800 0.099610 0.500000 0.194374
Ni8   Ni    Ni4+2 0.501200 0.900390 0.500000 0.195427
Cl1   Cl    Cl    0.881385 0.532979 0.821658 -0.574307
Cl2   Cl    Cl    0.024895 0.432830 0.241406 -0.587754
Cl3   Cl    Cl    0.120450 0.532684 0.178045 -0.572833
Cl4   Cl    Cl    0.976281 0.432508 0.757152 -0.570654
Cl5   Cl    Cl    0.381385 0.032979 0.821658 -0.574307
Cl6   Cl    Cl    0.524895 0.932830 0.241406 -0.587754
Cl7   Cl    Cl    0.620450 0.032684 0.178045 -0.572833
Cl8   Cl    Cl    0.476281 0.932508 0.757152 -0.570654
N33   N     N_3   0.861663 0.465255 0.421729 -0.200317
H17   H     H_    0.889195 0.449189 0.362344 0.188842
H18   H     H_    0.815629 0.455244 0.447281 0.138759
N34   N     N_3   0.072745 0.565108 0.659130 -0.161853
H19   H     H_    0.033279 0.588695 0.705411 0.166604
H20   H     H_    0.108843 0.576330 0.660847 0.150369
N35   N     N_3   0.137749 0.464482 0.579435 -0.181913
H21   H     H_    0.181242 0.483737 0.535474 0.122983
H22   H     H_    0.143166 0.433688 0.611789 0.171998
N36   N     N_3   0.928060 0.565510 0.340198 -0.174541
H23   H     H_    0.967889 0.589103 0.294327 0.163604
H24   H     H_    0.892451 0.577006 0.337669 0.148746
N37   N     N_3   0.361663 0.965255 0.421729 -0.200317
H25   H     H_    0.389195 0.949189 0.362344 0.188842
H26   H     H_    0.315629 0.955244 0.447281 0.138759
N38   N     N_3   0.572745 0.065108 0.659130 -0.161853
H27   H     H_    0.533279 0.088695 0.705411 0.166605
H28   H     H_    0.608843 0.076330 0.660847 0.150369
N39   N     N_3   0.637749 0.964482 0.579435 -0.181913
H29   H     H_    0.681242 0.983737 0.535474 0.122983
H30   H     H_    0.643166 0.933688 0.611789 0.171998
N40   N     N_3   0.428060 0.065510 0.340198 -0.174541
H31   H     H_    0.467889 0.089103 0.294327 0.163604
H32   H     H_    0.392451 0.077006 0.337669 0.148746
N41   N     N_3   0.934195 0.289356 0.620303 -0.165914
H33   H     H_    0.952613 0.294238 0.559961 0.108904
H34   H     H_    0.969016 0.268574 0.618583 0.147520
N42   N     N_3   0.114392 0.695100 0.358561 -0.193677
H35   H     H_    0.075081 0.721387 0.382732 0.126522
H36   H     H_    0.151818 0.717159 0.306901 0.176372
N43   N     N_3   0.065391 0.289401 0.379490 -0.175022
H37   H     H_    0.108628 0.268860 0.349685 0.165410
H38   H     H_    0.045902 0.293611 0.440304 0.102201
N44   N     N_3   0.892494 0.699771 0.645904 -0.169537
H39   H     H_    0.858576 0.701382 0.638061 0.159100
H40   H     H_    0.935741 0.713005 0.593040 0.121317
N45   N     N_3   0.434195 0.789356 0.620303 -0.165914
H41   H     H_    0.452613 0.794238 0.559961 0.108904
H42   H     H_    0.469016 0.768574 0.618583 0.147520
N46   N     N_3   0.614392 0.195100 0.358561 -0.193677
H43   H     H_    0.575081 0.221387 0.382732 0.126522
H44   H     H_    0.651818 0.217159 0.306901 0.176372
N47   N     N_3   0.565391 0.789401 0.379490 -0.175022
H45   H     H_    0.608628 0.768860 0.349685 0.165410
H46   H     H_    0.545902 0.793611 0.440304 0.102200
N48   N     N_3   0.392494 0.199771 0.645904 -0.169537
H47   H     H_    0.358576 0.201382 0.638061 0.159100
H48   H     H_    0.435741 0.213005 0.593040 0.121317
Cl9   Cl    Cl    0.862622 0.150240 0.815002 -0.547273
Cl10  Cl    Cl    0.297733 0.771071 0.130662 -0.568603
Cl11  Cl    Cl    0.139518 0.151352 0.185354 -0.554600
Cl12  Cl    Cl    0.704637 0.771804 0.869057 -0.553952
Cl13  Cl    Cl    0.362622 0.650240 0.815002 -0.547273
Cl14  Cl    Cl    0.797733 0.271071 0.130662 -0.568603
Cl15  Cl    Cl    0.639518 0.651352 0.185354 -0.554600
Cl16  Cl    Cl    0.204637 0.271804 0.869057 -0.553952
Cl17  Cl    Cl    0.157009 0.844785 0.536498 -0.574739
Cl18  Cl    Cl    0.687801 0.244593 0.687621 -0.567129
Cl19  Cl    Cl    0.839853 0.842550 0.470214 -0.576975
Cl20  Cl    Cl    0.313249 0.247081 0.312019 -0.576098
Cl21  Cl    Cl    0.657009 0.344785 0.536498 -0.574739
Cl22  Cl    Cl    0.187801 0.744593 0.687621 -0.567129
Cl23  Cl    Cl    0.339853 0.342550 0.470214 -0.576975
Cl24  Cl    Cl    0.813249 0.747081 0.312019 -0.576098

loop_
_geom_bond_atom_site_label_1
_geom_bond_atom_site_label_2
_ccdc_geom_bond_type
C40   C47   S    
C55   N39   S    
N11   N18   A    
C18   C75   S    
C49   N9    A    
N25   Ni6   S    
C8    N8    A    
C34   C37   D    
N20   Ni6   S    
N41   H33   S    
N9    N20   A    
N21   Ni7   S    
C59   C82   A    
C62   N22   A    
C68   N44   S    
C38   Cl17  S    
N41   H34   S    
C30   C45   T    
C37   Cl18  S    
C4    N4    A    
N17   Ni5   S    
N45   H41   S    
C5    N5    A    
C72   C77   A    
C65   C76   A    
C54   N38   S    
C64   N24   A    
C3    N3    A    
C33   C42   S    
N28   Ni5   S    
C14   C21   T    
C11   C99   S    
C27   C84   S    
C61   C88   A    
N46   H44   S    
C22   C79   S    
C57   N17   A    
C95   C112  A    
C92   H12   S    
N9    Ni2   S    
C95   C99   A    
C6    C78   A    
C94   C98   A    
C10   C17   T    
C101  C109  A    
C71   N47   S    
N31   Ni8   S    
C96   H16   S    
C103  C111  A    
C60   C81   A    
N32   Ni7   S    
C49   C81   A    
C52   C84   A    
C34   Cl21  S    
N4    Ni1   S    
C90   C102  A    
C38   C45   S    
C65   N25   A    
C33   Cl22  S    
N19   Ni5   S    
C2    N2    A    
C27   C44   T    
C16   C104  S    
N15   N22   A    
N33   H18   S    
C7    Cl7   S    
C89   C106  A    
C13   C22   T    
C17   C76   S    
C69   N29   A    
N26   Ni5   S    
N40   H31   S    
C3    C75   A    
C49   N33   S    
C2    C74   A    
C93   C110  A    
C66   N42   S    
N2    Ni2   S    
C36   Cl23  S    
N45   H42   S    
N6    N31   A    
N18   Ni6   S    
N22   Ni8   S    
N7    N30   A    
C91   H11   S    
N16   Ni4   S    
C28   C83   S    
C111  Cl16  S    
C90   H10   S    
N48   H47   S    
C34   C41   S    
C52   N36   S    
C99   C107  A    
C40   Cl19  S    
N5    Ni3   S    
N29   Ni8   S    
N15   Ni3   S    
N24   Ni8   S    
N34   H20   S    
N30   Ni7   S    
C56   N40   S    
C94   H14   S    
C96   C111  A    
C11   C20   T    
C100  C108  A    
C55   N15   A    
C61   H5    S    
N43   H37   S    
N11   Ni1   S    
C69   N45   S    
N46   H43   S    
N14   Ni3   S    
C104  C112  A    
C57   H1    S    
C6    Cl6   S    
N3    Ni2   S    
C68   C73   A    
C32   C87   S    
C36   C39   D    
C12   C100  S    
C70   N30   A    
N38   H28   S    
N14   N23   A    
N12   N17   A    
C106  Cl9   S    
C50   N34   S    
N35   H21   S    
C7    N7    A    
N16   N21   A    
C110  Cl13  S    
N47   H46   S    
C28   C43   T    
C63   H7    S    
C109  Cl14  S    
C70   N46   S    
C92   C107  A    
N7    Ni4   S    
N10   N19   A    
C72   N48   S    
C107  Cl12  S    
C8    Cl8   S    
N4    N25   A    
C36   C43   S    
C57   C84   A    
N1    Ni1   S    
C67   C74   A    
C105  Cl10  S    
N42   H35   S    
C30   C85   S    
N48   H48   S    
C35   C44   S    
C112  Cl15  S    
C63   N23   A    
C29   C86   S    
N2    N27   A    
C2    Cl2   S    
C59   N19   A    
N8    N29   A    
C71   N31   A    
C15   C24   T    
C54   N14   A    
N42   H36   S    
N44   H39   S    
C26   C81   S    
N44   H40   S    
C31   C48   T    
C63   C86   A    
C25   C82   S    
C32   C47   T    
C102  C110  A    
C66   N26   A    
C5    C77   A    
N27   Ni6   S    
C51   C83   A    
C64   C85   A    
N47   H45   S    
C67   N43   S    
N34   H19   S    
C50   C82   A    
C54   C86   A    
N13   Ni4   S    
C9    C97   S    
C31   C88   S    
C4    Cl4   S    
C98   C106  A    
C89   C101  A    
C70   C79   A    
C5    Cl5   S    
C91   C108  A    
N3    N26   A    
C35   Cl24  S    
C90   C105  A    
C91   C103  A    
N40   H32   S    
C68   N28   A    
C64   H8    S    
C25   C42   T    
N1    N28   A    
C12   C19   T    
C58   N18   A    
C9    C18   T    
C67   N27   A    
C16   C23   T    
C10   C98   S    
C62   C87   A    
C94   C109  A    
C1    N1    A    
C33   C38   D    
C72   N32   A    
C29   C46   T    
N5    N32   A    
C1    C73   A    
N38   H27   S    
N35   H22   S    
C35   C40   D    
C37   C46   S    
C97   C105  A    
N43   H38   S    
C6    N6    A    
C60   H4    S    
C58   C83   A    
C3    Cl3   S    
C39   Cl20  S    
C56   C88   A    
C89   H9    S    
C61   N21   A    
N23   Ni7   S    
C66   C75   A    
C96   C100  A    
C21   C80   S    
C1    Cl1   S    
C52   N12   A    
C93   C97   A    
N6    Ni4   S    
C20   C73   S    
N10   Ni1   S    
C53   N13   A    
C19   C74   S    
C23   C78   S    
C55   C87   A    
N37   H25   S    
N36   H24   S    
C93   H13   S    
C4    C76   A    
C15   C103  S    
C14   C102  S    
C92   C104  A    
C58   H2    S    
N39   H29   S    
C56   N16   A    
C95   H15   S    
C24   C77   S    
C65   N41   S    
C7    C79   A    
N13   N24   A    
C108  Cl11  S    
C59   H3    S    
N33   H17   S    
N12   Ni2   S    
C8    C80   A    
C50   N10   A    
C69   C80   A    
C53   C85   A    
C60   N20   A    
N37   H26   S    
N36   H23   S    
C53   N37   S    
C13   C101  S    
C71   C78   A    
C62   H6    S    
C26   C41   T    
C51   N11   A    
C39   C48   S    
N39   H30   S    
N8    Ni3   S    
C51   N35   S    
