data_mof_unit_31747.cif
_audit_creation_date              2012-12-11T15:53:53-0500
_audit_creation_method            fapswitch 2.2
_symmetry_space_group_name_H-M    P1
_symmetry_Int_Tables_number       1
_space_group_crystal_system       triclinic
_cell_length_a                    10.70954
_cell_length_b                    10.694255
_cell_length_c                    17.054238
_cell_angle_alpha                 80.504232
_cell_angle_beta                  99.659321
_cell_angle_gamma                 118.882758
_cell_volume                      1678.03334471

loop_
_atom_site_label
_atom_site_type_symbol
_atom_type_description
_atom_site_fract_x
_atom_site_fract_y
_atom_site_fract_z
_atom_type_partial_charge
C1    C     C_R   0.361251 0.229084 0.627439 0.542679
C2    C     C_R   0.391712 0.828952 0.674523 -0.138040
C3    C     C_R   0.375002 0.850380 0.750096 -0.158202
C4    C     C_3   0.145132 0.454246 0.796636 0.119717
C5    C     C_3   0.165558 0.430690 0.715274 -0.205032
C6    C     C_R   0.316506 0.690695 0.647897 0.006607
C7    C     C_1   0.850791 0.669488 0.702695 -0.002325
C8    C     C_1   0.897839 0.703893 0.769365 -0.008522
C9    C     C_1   0.345157 0.187058 0.709751 -0.042424
C10   C     C_1   0.320186 0.159258 0.778038 -0.043165
C11   C     C_1   0.369875 0.638560 0.274922 0.069138
C12   C     C_R   0.370154 0.654646 0.586242 0.546457
C13   C     C_1   0.343051 0.656696 0.204418 0.041840
C14   C     C_R   0.833557 0.667990 0.158780 -0.115866
C15   C     C_R   0.847450 0.560881 0.211902 0.016124
C16   C     C_R   0.846793 0.557354 0.292396 -0.019914
C17   C     C_R   0.817946 0.772520 0.269699 0.393133
C18   C     C_R   0.822441 0.776570 0.188123 -0.081147
C19   C     C_3   0.755901 0.402939 0.210122 0.188652
C20   C     C_3   0.759057 0.396581 0.299772 0.171776
C21   C     C_R   0.825286 0.659011 0.322447 -0.028970
C22   C     C_R   0.329826 0.164303 0.160984 0.010140
C23   C     C_R   0.781292 0.621165 0.626228 0.554023
C24   C     C_R   0.268316 0.240939 0.182540 -0.186267
C25   C     C_R   0.272411 0.253914 0.261296 -0.067319
C26   C     C_R   0.411487 0.127592 0.300669 -0.122014
C27   C     C_R   0.411428 0.116589 0.220594 0.354231
C28   C     C_3   0.123197 0.235096 0.163107 0.357606
C29   C     C_3   0.127465 0.245360 0.250910 0.826615
C30   C     C_R   0.333821 0.188736 0.321251 -0.037318
C31   C     C_R   0.947502 0.725042 0.851704 0.524274
C32   C     C_R   0.282516 0.749894 0.882662 0.523702
C33   C     C_R   0.284032 0.114010 0.857617 0.519248
C34   C     C_R   0.350794 0.226439 0.400040 0.542209
C35   C     C_R   0.884378 0.689973 0.082468 0.566288
C36   C     C_R   0.316107 0.697888 0.122862 0.551858
C37   C     C_R   0.286109 0.107370 0.084994 0.581519
C38   C     C_R   0.402724 0.625566 0.358847 0.553934
C39   C     C_R   0.770782 0.621975 0.399306 0.549048
C40   C     C_R   0.281931 0.734386 0.799115 -0.025904
C41   C     C_R   0.186889 0.606640 0.764792 0.051427
C42   C     C_R   0.204910 0.584782 0.690634 -0.013171
Cr1   Cr    Cr6+3 0.608440 0.389080 0.519680 1.061774
Cr2   Cr    Cr6+3 0.288640 0.400090 0.490760 1.135152
Cr3   Cr    Cr6+3 0.602940 0.710800 0.489510 1.120920
Cr4   Cr    Cr6+3 0.052530 0.947560 0.964210 1.109536
Cr5   Cr    Cr6+3 0.059970 0.626800 0.992920 1.122096
Cr6   Cr    Cr6+3 0.373320 0.938440 0.995370 1.119820
H1    H     H_    0.473872 0.916580 0.641109 0.158637
H2    H     H_    0.648442 0.376238 0.177530 0.069460
H3    H     H_    0.651857 0.360236 0.318448 0.086882
H4    H     H_    0.470854 0.087900 0.346238 0.185869
H5    H     H_    0.125450 0.329404 0.123265 0.129444
H6    H     H_    0.442826 0.954125 0.772483 0.158737
H7    H     H_    0.222466 0.442646 0.845846 0.141334
H8    H     H_    0.257088 0.408273 0.717209 0.115623
H9    H     H_    0.065246 0.357585 0.681079 0.195387
H10   H     H_    0.814802 0.862486 0.147846 0.242908
O1    O     O_R   0.754020 0.497590 0.609930 -0.475705
O2    O     O_R   0.295080 0.533620 0.397890 -0.428860
O3    O     O_R   0.485280 0.746620 0.388440 -0.454272
O4    O     O_R   0.720550 0.696220 0.420010 -0.445402
O5    O     O_3   0.500010 0.499990 0.499980 -0.320722
O6    O     O_R   0.163320 0.092900 0.874450 -0.498402
O7    O     O_R   0.934650 0.822080 0.882840 -0.488383
O8    O     O_R   0.915520 0.604140 0.893670 -0.454426
O9    O     O_R   0.191760 0.638110 0.923230 -0.490943
O10   O     O_R   0.406180 0.826930 0.920660 -0.499463
O11   O     O_R   0.358620 0.062870 0.901950 -0.518023
O12   O     O_R   0.481420 0.271390 0.600630 -0.488423
O13   O     O_R   0.163910 0.085460 0.050210 -0.448405
O14   O     O_R   0.935200 0.815170 0.045770 -0.470610
O15   O     O_R   0.916120 0.596690 0.069430 -0.455794
O16   O     O_R   0.192310 0.631200 0.086170 -0.485229
O17   O     O_R   0.406770 0.819480 0.096420 -0.437475
O18   O     O_R   0.359170 0.055960 0.064880 -0.434429
O19   O     O_3   0.161940 0.837600 0.984160 -0.332301
O20   O     O_R   0.263810 0.254550 0.589590 -0.507802
O21   O     O_R   0.300820 0.531200 0.560890 -0.495992
O22   O     O_R   0.491480 0.744020 0.564270 -0.513086
O23   O     O_R   0.726290 0.693800 0.583010 -0.497627
O24   O     O_R   0.747830 0.500190 0.434090 -0.506915
O25   O     O_R   0.475680 0.273800 0.437630 -0.526924
O26   O     O_R   0.257620 0.257160 0.413750 -0.430794
Cl1   Cl    Cl    0.856909 0.312841 0.360403 -0.363424
F1    F     F_    0.480742 0.048360 0.203030 -0.555208
F2    F     F_    0.014280 0.104939 0.140417 -0.571890
F3    F     F_    0.128889 0.368557 0.266263 -0.589027
F4    F     F_    0.027747 0.122847 0.290563 -0.456020
Cl2   Cl    Cl    0.962418 0.359020 0.817796 -0.546694
F5    F     F_    0.793087 0.871354 0.295271 -0.499564
Cl3   Cl    Cl    0.841877 0.317516 0.175884 -0.331990

loop_
_geom_bond_atom_site_label_1
_geom_bond_atom_site_label_2
_ccdc_geom_bond_type
C31   O8    A    
C5    C42   S    
C16   C21   A    
C11   C38   S    
Cr1   O25   S    
C41   C42   A    
C14   C18   A    
C5    H8    S    
C19   C20   S    
C17   F5    S    
Cr6   O11   S    
C39   O24   A    
C29   F4    S    
Cr1   O5    S    
C7    C8    T    
C15   C19   S    
C26   C27   A    
C28   C29   S    
C36   O17   A    
C20   H3    S    
C6    C12   S    
C3    H6    S    
C4    C41   S    
C15   C16   A    
C12   O21   A    
Cr3   O4    S    
Cr6   O18   S    
C29   F3    S    
C19   Cl3   S    
C18   H10   S    
Cr3   O22   S    
C9    C10   T    
Cr5   O8    S    
Cr4   O14   S    
Cr1   O1    S    
C32   O10   A    
C38   O3    A    
C1    O20   A    
Cr6   O17   S    
C2    C6    A    
C34   O26   A    
Cr5   O9    S    
C4    Cl2   S    
Cr2   O5    S    
C25   C29   S    
C30   C34   S    
C1    C9    S    
C24   C25   A    
Cr5   O15   S    
C13   C36   S    
C14   C35   S    
C22   C37   S    
Cr3   O5    S    
C17   C21   A    
Cr4   O6    S    
Cr6   O19   S    
C27   F1    S    
C23   O1    A    
C2    H1    S    
C26   H4    S    
C21   C39   S    
C16   C20   S    
C20   Cl1   S    
C28   F2    S    
C17   C18   A    
Cr6   O10   S    
Cr4   O13   S    
C36   O16   A    
Cr4   O7    S    
C32   O9    A    
C38   O2    A    
C40   C41   A    
C37   O18   A    
C3    C40   A    
C26   C30   A    
Cr1   O12   S    
C22   C27   A    
C37   O13   A    
C4    H7    S    
C22   C24   A    
C34   O25   A    
Cr5   O19   S    
C25   C30   A    
C31   O7    A    
C39   O4    A    
C35   O15   A    
C23   O23   A    
C8    C31   S    
Cr2   O21   S    
Cr3   O23   S    
C24   C28   S    
Cr5   O16   S    
C4    C5    S    
Cr2   O26   S    
C35   O14   A    
Cr4   O19   S    
C28   H5    S    
C33   O11   A    
C1    O12   A    
C5    H9    S    
Cr2   O20   S    
C2    C3    A    
C11   C13   T    
C19   H2    S    
Cr2   O2    S    
C33   O6    A    
C7    C23   S    
C12   O22   A    
Cr3   O3    S    
C10   C33   S    
C32   C40   S    
C6    C42   A    
Cr1   O24   S    
C14   C15   A    
