data_mof_unit_28009.cif
_audit_creation_date              2012-12-11T15:14:40-0500
_audit_creation_method            fapswitch 2.2
_symmetry_space_group_name_H-M    P1
_symmetry_Int_Tables_number       1
_space_group_crystal_system       triclinic
_cell_length_a                    22.281729
_cell_length_b                    7.23176
_cell_length_c                    19.240197
_cell_angle_alpha                 89.988574
_cell_angle_beta                  99.064639
_cell_angle_gamma                 89.985249
_cell_volume                      3061.57161232

loop_
_atom_site_label
_atom_site_type_symbol
_atom_type_description
_atom_site_fract_x
_atom_site_fract_y
_atom_site_fract_z
_atom_type_partial_charge
O1    O     O_R   0.448470 0.506130 0.415700 -0.532733
O2    O     O_R   0.551530 0.006130 0.584300 -0.532816
O3    O     O_R   0.436320 0.174490 0.555800 -0.534094
O4    O     O_R   0.563680 0.674490 0.444200 -0.534098
C1    C     C_R   0.421176 0.344398 0.575209 0.705601
C2    C     C_R   0.578825 0.844387 0.424791 0.705653
O5    O     O_R   0.441350 0.176340 0.414480 -0.534081
O6    O     O_R   0.558650 0.676340 0.585520 -0.534064
O7    O     O_R   0.556600 0.007100 0.441970 -0.532532
O8    O     O_R   0.443400 0.507100 0.558030 -0.532470
C3    C     C_R   0.427231 0.344728 0.389036 0.673117
C4    C     C_R   0.572782 0.844654 0.610961 0.673009
O9    O     O_3   0.537810 0.339550 0.509190 -0.372066
O10   O     O_3   0.462190 0.839550 0.490810 -0.371986
V1    V     V_3+5 0.492990 0.064280 0.498300 1.427257
V2    V     V_3+5 0.507010 0.564280 0.501700 1.427389
C5    C     C_R   0.866727 0.985141 0.695477 -0.163120
C6    C     C_R   0.133023 0.480635 0.304689 -0.163030
H1    H     H_    0.953997 0.012472 0.759776 0.105405
H2    H     H_    0.045740 0.507926 0.240393 0.105316
H3    H     H_    0.784135 0.984637 0.580268 0.122463
H4    H     H_    0.215490 0.477822 0.420007 0.122354
H5    H     H_    0.884899 0.015927 0.647725 0.110388
H6    H     H_    0.114726 0.509239 0.352537 0.110344
C7    C     C_R   0.884655 0.942761 0.821823 -0.033160
C8    C     C_R   0.115333 0.442312 0.178167 -0.032936
C9    C     C_R   0.590138 0.811788 0.739793 -0.160162
C10   C     C_R   0.410064 0.315081 0.260093 -0.160331
C11   C     C_R   0.626966 0.807650 0.805183 -0.123747
C12   C     C_R   0.373319 0.312457 0.194638 -0.123684
C13   C     C_R   0.689217 0.840160 0.811244 -0.157561
C14   C     C_R   0.310999 0.343791 0.188612 -0.157516
C15   C     C_R   0.716617 0.878588 0.751322 0.077630
C16   C     C_R   0.283438 0.379384 0.248643 0.077601
C17   C     C_R   0.678221 0.884601 0.684094 0.068664
C18   C     C_R   0.321739 0.383769 0.315946 0.068639
C19   C     C_R   0.780733 0.910819 0.755888 0.072779
C20   C     C_R   0.219258 0.410454 0.244110 0.072817
C21   C     C_R   0.804462 0.950099 0.693102 0.139921
C22   C     C_R   0.195368 0.446939 0.307013 0.139880
C23   C     C_R   0.766043 0.955101 0.628187 -0.201820
C24   C     C_R   0.233702 0.450417 0.372000 -0.201729
C25   C     C_R   0.704072 0.922537 0.623625 -0.192026
C26   C     C_R   0.295738 0.419009 0.376522 -0.191683
C27   C     C_R   0.822376 0.906434 0.820295 -0.214698
C28   C     C_R   0.177698 0.407464 0.179632 -0.214586
C29   C     C_R   0.906265 0.982746 0.759229 -0.166504
C30   C     C_R   0.093554 0.479507 0.240881 -0.166635
C31   C     C_R   0.614697 0.850446 0.678871 -0.077785
C32   C     C_R   0.385336 0.350928 0.321123 -0.077559
H7    H     H_    0.807964 0.877892 0.870102 0.093520
H8    H     H_    0.192224 0.380881 0.129743 0.093329
H9    H     H_    0.541980 0.784123 0.736626 0.104428
H10   H     H_    0.458294 0.288599 0.263218 0.104339
H11   H     H_    0.714606 0.833959 0.863662 0.106578
H12   H     H_    0.285690 0.339025 0.136131 0.106537
H13   H     H_    0.607081 0.777896 0.851799 0.115698
H14   H     H_    0.393333 0.284949 0.147932 0.115649
H15   H     H_    0.676439 0.927718 0.572055 0.111590
H16   H     H_    0.323303 0.422936 0.428149 0.111092
C33   C     C_3   0.776436 0.826753 0.312244 -0.139129
C34   C     C_3   0.223213 0.331668 0.687099 -0.139050
C35   C     C_3   0.795059 0.009770 0.279392 -0.139339
C36   C     C_3   0.205787 0.513860 0.721508 -0.139250
H17   H     H_    0.832294 0.102909 0.303182 0.107183
H18   H     H_    0.169254 0.610381 0.698466 0.107100
H19   H     H_    0.797957 0.768484 0.363542 0.107873
H20   H     H_    0.201402 0.277458 0.635258 0.107771
H21   H     H_    0.708072 0.203076 0.269524 0.110266
H22   H     H_    0.294116 0.701613 0.733316 0.110072
C37   C     C_1   0.875148 0.940194 0.121133 -0.185252
C38   C     C_1   0.124849 0.440160 0.878867 -0.185238
C39   C     C_1   0.624903 0.854175 0.379202 -0.182489
C40   C     C_1   0.375100 0.354208 0.620799 -0.182476
C41   C     C_3   0.773085 0.729674 0.239865 -0.138192
C42   C     C_3   0.225716 0.230477 0.758578 -0.137974
C43   C     C_3   0.791102 0.912511 0.207630 0.169501
C44   C     C_3   0.208897 0.412489 0.792369 0.169396
C45   C     C_3   0.705179 0.784647 0.221197 -0.139072
C46   C     C_3   0.293975 0.280552 0.777903 -0.139001
C47   C     C_3   0.709132 0.881901 0.292955 0.169133
C48   C     C_3   0.290870 0.381919 0.707046 0.169049
C49   C     C_3   0.723797 0.967659 0.188350 -0.139235
C50   C     C_3   0.276555 0.462740 0.812306 -0.139194
C51   C     C_3   0.727150 0.064738 0.260725 -0.138366
C52   C     C_3   0.274049 0.563931 0.740831 -0.138149
C53   C     C_1   0.837148 0.928817 0.159926 -0.066920
C54   C     C_1   0.162849 0.428780 0.840073 -0.066864
C55   C     C_1   0.663011 0.865570 0.340555 -0.066114
C56   C     C_1   0.336991 0.365604 0.659446 -0.066043
H23   H     H_    0.702264 0.025949 0.137062 0.107524
H24   H     H_    0.298377 0.516971 0.864138 0.107487
H25   H     H_    0.667942 0.691508 0.197409 0.107144
H26   H     H_    0.330510 0.184031 0.800943 0.107056
H27   H     H_    0.792161 0.591331 0.231071 0.110071
H28   H     H_    0.205650 0.092790 0.766089 0.109881
O11   O     O_R   0.056650 0.288730 0.942060 -0.532850
O12   O     O_R   0.943350 0.788730 0.057940 -0.532850
O13   O     O_R   0.058660 0.616870 0.085540 -0.535630
O14   O     O_R   0.941340 0.116870 0.914460 -0.535652
C57   C     C_R   0.072807 0.448733 0.111022 0.681193
C58   C     C_R   0.927193 0.948807 0.888971 0.681160
O15   O     O_R   0.063700 0.618520 0.944220 -0.535115
O16   O     O_R   0.936300 0.118520 0.055780 -0.535125
O17   O     O_R   0.948460 0.787610 0.915680 -0.533158
O18   O     O_R   0.051540 0.287610 0.084320 -0.533130
C59   C     C_R   0.078909 0.449999 0.924650 0.713523
C60   C     C_R   0.921090 0.950010 0.075350 0.713595
O19   O     O_3   0.962230 0.453430 0.990860 -0.373187
O20   O     O_3   0.037770 0.953430 0.009140 -0.373145
V3    V     V_3+5 0.007010 0.728750 0.001700 1.421709
V4    V     V_3+5 0.992990 0.228750 0.998300 1.421731

loop_
_geom_bond_atom_site_label_1
_geom_bond_atom_site_label_2
_ccdc_geom_bond_type
C20   C22   A    
C35   H17   S    
C19   C27   A    
C9    C11   A    
O1    C3    A    
C46   C50   S    
O2    C4    A    
C2    O7    A    
C4    C31   S    
C41   H27   S    
C21   C23   A    
O18   V4    S    
C33   C41   S    
O5    C3    A    
C5    H5    S    
C6    H6    S    
C42   C44   S    
C45   H25   S    
C8    C57   S    
H1    C29   S    
C7    C58   S    
C43   C49   S    
C28   H8    S    
O12   C60   A    
C58   O17   A    
O15   V3    S    
C5    C21   A    
C1    C40   S    
C33   C35   S    
C6    C22   A    
O20   V3    S    
C34   C36   S    
C10   C32   A    
C33   C47   S    
C18   C32   A    
C17   C31   A    
C13   C15   A    
C12   C14   A    
C17   C25   A    
C7    C29   A    
C8    C30   A    
C47   C55   S    
O5    V1    S    
O17   V3    S    
O6    V2    S    
C37   C60   S    
C35   C51   S    
C23   C25   A    
C34   C42   S    
C24   C26   A    
C36   C52   S    
C38   C54   T    
C5    C29   A    
C46   C48   S    
O19   V4    S    
C45   C47   S    
O11   V4    S    
C10   H10   S    
C48   C52   S    
C15   C19   A    
C14   C16   A    
O4    V2    S    
C33   H19   S    
C38   C59   S    
O6    C4    A    
O13   V3    S    
O14   C58   A    
O1    V2    S    
O2    V1    S    
C41   C43   S    
H2    C30   S    
C37   C53   T    
O4    C2    A    
C49   C51   S    
C11   H13   S    
O14   V4    S    
H3    C23   S    
C18   C26   A    
C46   H26   S    
H22   C52   S    
C7    C27   A    
O16   C60   A    
H21   C51   S    
C2    C39   S    
O16   V4    S    
C35   C43   S    
C44   C54   S    
C57   O18   A    
O12   V3    S    
O13   C57   A    
C16   C20   A    
C36   C44   S    
C42   C46   S    
C50   C52   S    
O3    C1    A    
C6    C30   A    
C9    H9    S    
C25   H15   S    
C49   H23   S    
C48   C56   S    
C34   H20   S    
C40   C56   T    
C10   C12   A    
O7    V1    S    
C39   C55   T    
C1    O8    A    
C19   C21   A    
C3    C32   S    
O8    V2    S    
C42   H28   S    
C45   C49   S    
H4    C24   S    
C26   H16   S    
C12   H14   S    
C22   C24   A    
C15   C17   A    
C16   C18   A    
C34   C48   S    
C20   C28   A    
C8    C28   A    
O11   C59   A    
C44   C50   S    
C43   C53   S    
C11   C13   A    
O9    V2    S    
C27   H7    S    
O10   V1    S    
O3    V1    S    
O15   C59   A    
C50   H24   S    
C13   H11   S    
C41   C45   S    
C14   H12   S    
C47   C51   S    
C9    C31   A    
C36   H18   S    
