data_mof_unit_63959.cif
_audit_creation_date              2013-03-05T16:03:21-0500
_audit_creation_method            fapswitch 2.2
_symmetry_space_group_name_H-M    P1
_symmetry_Int_Tables_number       1
_space_group_crystal_system       triclinic
_cell_length_a                    18.339455
_cell_length_b                    18.337786
_cell_length_c                    43.085235
_cell_angle_alpha                 90.012912
_cell_angle_beta                  90.00013
_cell_angle_gamma                 90.002511
_cell_volume                      14489.7796242

loop_
_atom_site_label
_atom_site_type_symbol
_atom_site_description
_atom_site_fract_x
_atom_site_fract_y
_atom_site_fract_z
_atom_type_partial_charge
Zn1   Zn    Zn3+2 0.500000 0.086800 0.724180 0.984541
Zn2   Zn    Zn3+2 0.500000 0.913200 0.275820 0.984672
Zn3   Zn    Zn3+2 0.913200 0.500000 0.724180 0.985055
Zn4   Zn    Zn3+2 0.086800 0.500000 0.275820 0.985173
Zn5   Zn    Zn3+2 0.500000 0.913200 0.724180 0.984660
Zn6   Zn    Zn3+2 0.500000 0.086800 0.275820 0.984793
Zn7   Zn    Zn3+2 0.086800 0.500000 0.724180 0.985074
Zn8   Zn    Zn3+2 0.913200 0.500000 0.275820 0.985197
Zn9   Zn    Zn3+2 0.000000 0.586800 0.224180 0.984528
Zn10  Zn    Zn3+2 0.000000 0.413200 0.775820 0.984606
Zn11  Zn    Zn3+2 0.413200 1.000000 0.224180 0.984951
Zn12  Zn    Zn3+2 0.586800 1.000000 0.775820 0.985218
Zn13  Zn    Zn3+2 0.000000 0.413200 0.224180 0.984691
Zn14  Zn    Zn3+2 0.000000 0.586800 0.775820 0.984768
Zn15  Zn    Zn3+2 0.586800 1.000000 0.224180 0.984996
Zn16  Zn    Zn3+2 0.413200 1.000000 0.775820 0.985268
C1    C     C_R   0.999870 0.434080 0.884863 -0.174495
C2    C     C_R   0.000127 0.565920 0.115137 -0.174495
C3    C     C_R   0.436646 0.019141 0.884774 -0.172581
C4    C     C_R   0.435150 0.986816 0.115160 -0.172620
C5    C     C_R   0.999666 0.566440 0.884732 -0.175850
C6    C     C_R   0.000337 0.433561 0.115268 -0.175865
C7    C     C_R   0.563354 0.980857 0.884770 -0.172666
C8    C     C_R   0.564850 0.013185 0.115163 -0.172510
C9    C     C_R   0.499834 0.933988 0.384832 -0.174657
C10   C     C_R   0.499801 0.066008 0.615167 -0.174841
C11   C     C_R   0.936144 0.517381 0.384796 -0.172540
C12   C     C_R   0.935609 0.484720 0.615181 -0.172564
C13   C     C_R   0.499849 0.066349 0.384755 -0.175496
C14   C     C_R   0.500461 0.933650 0.615246 -0.175708
C15   C     C_R   0.063857 0.482618 0.384792 -0.172595
C16   C     C_R   0.064390 0.515282 0.615184 -0.172499
H1    H     H_    0.000043 0.382220 0.872836 0.169969
H2    H     H_    0.999953 0.617780 0.127164 0.169919
H3    H     H_    0.387230 0.034385 0.872639 0.165746
H4    H     H_    0.384479 0.976296 0.127264 0.167829
H5    H     H_    0.999560 0.618163 0.872609 0.170614
H6    H     H_    0.000445 0.381837 0.127391 0.170568
H7    H     H_    0.612770 0.965613 0.872633 0.165728
H8    H     H_    0.615521 0.023705 0.127269 0.167918
H9    H     H_    0.499912 0.882154 0.372786 0.170047
H10   H     H_    0.499464 0.117843 0.627212 0.170184
H11   H     H_    0.886307 0.531234 0.372671 0.166289
H12   H     H_    0.885326 0.472530 0.627295 0.167458
H13   H     H_    0.499829 0.118097 0.372652 0.170455
H14   H     H_    0.500771 0.881903 0.627350 0.170573
H15   H     H_    0.113693 0.468765 0.372665 0.166275
H16   H     H_    0.114673 0.527471 0.627300 0.167512
C17   C     C_R   0.999704 0.434352 0.917189 -0.064192
C18   C     C_R   0.000294 0.565648 0.082811 -0.064129
C19   C     C_R   0.436849 0.019633 0.917121 -0.058364
C20   C     C_R   0.435273 0.986481 0.082814 -0.059309
C21   C     C_R   0.999465 0.566595 0.917049 -0.057030
C22   C     C_R   0.000538 0.433405 0.082951 -0.056883
C23   C     C_R   0.563152 0.980364 0.917118 -0.058471
C24   C     C_R   0.564727 0.013520 0.082817 -0.059208
C25   C     C_R   0.499718 0.934179 0.417156 -0.062676
C26   C     C_R   0.499876 0.065814 0.582843 -0.062642
C27   C     C_R   0.936319 0.517826 0.417143 -0.058697
C28   C     C_R   0.935756 0.484332 0.582834 -0.058734
C29   C     C_R   0.499703 0.066425 0.417074 -0.058470
C30   C     C_R   0.500582 0.933572 0.582927 -0.058047
C31   C     C_R   0.063682 0.482174 0.417139 -0.058771
C32   C     C_R   0.064243 0.515671 0.582837 -0.058676
O1    O     O_3   0.500000 1.000000 0.750000 -0.482700
O2    O     O_3   0.500000 0.000000 0.250000 -0.482494
O3    O     O_3   0.000000 0.500000 0.750000 -0.482558
O4    O     O_3   0.000000 0.500000 0.250000 -0.482627
O5    O     O_R   0.439140 0.000000 0.819450 -0.641101
O6    O     O_R   0.560860 0.000000 0.180550 -0.642000
O7    O     O_R   0.000000 0.439140 0.819450 -0.642836
O8    O     O_R   0.000000 0.560860 0.180550 -0.642832
O9    O     O_R   0.560860 0.000000 0.819450 -0.641144
O10   O     O_R   0.439140 0.000000 0.180550 -0.642022
O11   O     O_R   0.000000 0.560860 0.819450 -0.642925
O12   O     O_R   0.000000 0.439140 0.180550 -0.642920
O13   O     O_R   0.939140 0.500000 0.319450 -0.641396
O14   O     O_R   0.060860 0.500000 0.680550 -0.641748
O15   O     O_R   0.500000 0.939140 0.319450 -0.642855
O16   O     O_R   0.500000 0.060860 0.680550 -0.642816
O17   O     O_R   0.060860 0.500000 0.319450 -0.641422
O18   O     O_R   0.939140 0.500000 0.680550 -0.641762
O19   O     O_R   0.500000 0.060860 0.319450 -0.642931
O20   O     O_R   0.500000 0.939140 0.680550 -0.642894
O21   O     O_R   0.646030 0.085480 0.768310 -0.645134
O22   O     O_R   0.353970 0.914520 0.231690 -0.647111
O23   O     O_R   0.914520 0.646030 0.768310 -0.646873
O24   O     O_R   0.085480 0.353970 0.231690 -0.646491
O25   O     O_R   0.353970 0.914520 0.768310 -0.645098
O26   O     O_R   0.646030 0.085480 0.231690 -0.647077
O27   O     O_R   0.085480 0.353970 0.768310 -0.646881
O28   O     O_R   0.914520 0.646030 0.231690 -0.646499
O29   O     O_R   0.646030 0.914520 0.231690 -0.645744
O30   O     O_R   0.353970 0.085480 0.768310 -0.647500
O31   O     O_R   0.914520 0.353970 0.231690 -0.646414
O32   O     O_R   0.085480 0.646030 0.768310 -0.645964
O33   O     O_R   0.353970 0.085480 0.231690 -0.645736
O34   O     O_R   0.646030 0.914520 0.768310 -0.647492
O35   O     O_R   0.085480 0.646030 0.231690 -0.646445
O36   O     O_R   0.914520 0.353970 0.768310 -0.645995
O37   O     O_R   0.146030 0.585480 0.268310 -0.645274
O38   O     O_R   0.853970 0.414520 0.731690 -0.647217
O39   O     O_R   0.414520 0.146030 0.268310 -0.646829
O40   O     O_R   0.585480 0.853970 0.731690 -0.646465
O41   O     O_R   0.853970 0.414520 0.268310 -0.645255
O42   O     O_R   0.146030 0.585480 0.731690 -0.647201
O43   O     O_R   0.585480 0.853970 0.268310 -0.646827
O44   O     O_R   0.414520 0.146030 0.731690 -0.646464
O45   O     O_R   0.146030 0.414520 0.731690 -0.645566
O46   O     O_R   0.853970 0.585480 0.268310 -0.647409
O47   O     O_R   0.414520 0.853970 0.731690 -0.646441
O48   O     O_R   0.585480 0.146030 0.268310 -0.646021
O49   O     O_R   0.853970 0.585480 0.731690 -0.645562
O50   O     O_R   0.146030 0.414520 0.268310 -0.647405
O51   O     O_R   0.585480 0.146030 0.731690 -0.646450
O52   O     O_R   0.414520 0.853970 0.268310 -0.646034
C33   C     C_R   0.999871 0.500157 0.868358 -0.020161
C34   C     C_R   0.000129 0.499843 0.131642 -0.020121
C35   C     C_R   0.500000 0.999999 0.868344 -0.015619
C36   C     C_R   0.500000 0.000000 0.131610 -0.018114
C37   C     C_R   0.499911 0.000104 0.368355 -0.020075
C38   C     C_R   0.500073 0.999895 0.631645 -0.020241
C39   C     C_R   0.000000 0.500000 0.368359 -0.016220
C40   C     C_R   1.000000 0.500001 0.631625 -0.017661
C41   C     C_R   0.059776 0.529384 0.983653 0.206516
C42   C     C_R   0.940225 0.470616 0.016347 0.206785
C43   C     C_R   0.494643 0.933376 0.983608 0.203304
C44   C     C_R   0.505888 0.066576 0.016272 0.202061
C45   C     C_R   0.939424 0.471515 0.983764 0.198409
C46   C     C_R   0.060576 0.528487 0.016236 0.198658
C47   C     C_R   0.505359 0.066622 0.983620 0.203312
C48   C     C_R   0.494113 0.933423 0.016259 0.202093
C49   C     C_R   0.559684 0.029617 0.483682 0.204379
C50   C     C_R   0.440244 0.970340 0.516327 0.206548
C51   C     C_R   0.998243 0.433188 0.483646 0.203262
C52   C     C_R   0.002284 0.566797 0.516310 0.202547
C53   C     C_R   0.439693 0.970965 0.483743 0.199224
C54   C     C_R   0.560129 0.029102 0.516264 0.201449
C55   C     C_R   0.001757 0.566813 0.483659 0.203258
C56   C     C_R   0.997716 0.433204 0.516297 0.202562
C57   C     C_R   0.500334 0.999493 0.532524 -0.254642
C58   C     C_R   0.499555 0.000500 0.467479 -0.254351
C59   C     C_R   1.000000 0.500001 0.532523 -0.268765
C60   C     C_R   0.000000 0.500000 0.467439 -0.269867
C61   C     C_R   0.000625 0.499204 0.032520 -0.254676
C62   C     C_R   0.999375 0.500796 0.967480 -0.254793
C63   C     C_R   0.500000 1.000000 0.032491 -0.268237
C64   C     C_R   0.500001 0.999999 0.967405 -0.270477
C65   C     C_R   0.500000 1.000000 0.834242 0.807447
C66   C     C_R   0.500000 0.000000 0.165742 0.808971
C67   C     C_R   0.999987 0.500022 0.834247 0.810870
C68   C     C_R   0.000013 0.499978 0.165753 0.810958
C69   C     C_R   0.000000 0.500000 0.334247 0.807953
C70   C     C_R   1.000000 0.500000 0.665747 0.808617
C71   C     C_R   0.499992 0.000016 0.334247 0.810885
C72   C     C_R   0.500008 0.999984 0.665754 0.811044
C73   C     C_R   0.640110 0.140107 0.750000 0.797229
C74   C     C_R   0.359891 0.859891 0.249999 0.796618
C75   C     C_R   0.859890 0.640113 0.750002 0.796496
C76   C     C_R   0.140108 0.359886 0.249999 0.795670
C77   C     C_R   0.359890 0.859888 0.749998 0.797371
C78   C     C_R   0.640108 0.140113 0.250001 0.796761
C79   C     C_R   0.140110 0.359892 0.750000 0.796365
C80   C     C_R   0.859891 0.640109 0.250001 0.795538
C81   C     C_R   0.640110 0.859892 0.250000 0.796354
C82   C     C_R   0.359891 0.140109 0.750001 0.795416
C83   C     C_R   0.859890 0.359888 0.249998 0.797369
C84   C     C_R   0.140108 0.640113 0.750001 0.796648
C85   C     C_R   0.359890 0.140113 0.250002 0.796488
C86   C     C_R   0.640108 0.859886 0.750000 0.795551
C87   C     C_R   0.140110 0.640107 0.250000 0.797236
C88   C     C_R   0.859891 0.359891 0.749999 0.796518
C89   C     C_R   0.309745 0.256277 0.730020 -0.173990
C90   C     C_R   0.690263 0.743729 0.269985 -0.174602
C91   C     C_R   0.743737 0.309721 0.730007 -0.173945
C92   C     C_R   0.256270 0.690273 0.269988 -0.171648
C93   C     C_R   0.690262 0.743706 0.730014 -0.173998
C94   C     C_R   0.309730 0.256287 0.269991 -0.174611
C95   C     C_R   0.256254 0.690265 0.730004 -0.173802
C96   C     C_R   0.743739 0.309741 0.269991 -0.171498
C97   C     C_R   0.309732 0.743737 0.269988 -0.172248
C98   C     C_R   0.690275 0.256257 0.730007 -0.172906
C99   C     C_R   0.743724 0.690267 0.269986 -0.175271
C100  C     C_R   0.256284 0.309740 0.730019 -0.173054
C101  C     C_R   0.690274 0.256281 0.269993 -0.172172
C102  C     C_R   0.309719 0.743725 0.730003 -0.172837
C103  C     C_R   0.256266 0.309746 0.269990 -0.175195
C104  C     C_R   0.743726 0.690247 0.730016 -0.172977
C105  C     C_R   0.809744 0.756277 0.230020 -0.174099
C106  C     C_R   0.190263 0.243729 0.769985 -0.174730
C107  C     C_R   0.243738 0.809720 0.230007 -0.173762
C108  C     C_R   0.756271 0.190273 0.769988 -0.171473
C109  C     C_R   0.190263 0.243707 0.230014 -0.174082
C110  C     C_R   0.809730 0.756287 0.769991 -0.174713
C111  C     C_R   0.756253 0.190266 0.230003 -0.173563
C112  C     C_R   0.243738 0.809742 0.769991 -0.171270
C113  C     C_R   0.809732 0.243736 0.769988 -0.172178
C114  C     C_R   0.190275 0.756257 0.230007 -0.172885
C115  C     C_R   0.243725 0.190268 0.769986 -0.175486
C116  C     C_R   0.756284 0.809740 0.230019 -0.173302
C117  C     C_R   0.190274 0.756281 0.769992 -0.172034
C118  C     C_R   0.809718 0.243726 0.230002 -0.172739
C119  C     C_R   0.756266 0.809745 0.769990 -0.175404
C120  C     C_R   0.243726 0.190247 0.230015 -0.173216
H17   H     H_    0.355649 0.261999 0.714391 0.167068
H18   H     H_    0.644358 0.738007 0.285614 0.166817
H19   H     H_    0.738022 0.355611 0.714372 0.166999
H20   H     H_    0.261986 0.644382 0.285623 0.168187
H21   H     H_    0.644364 0.737973 0.714382 0.167075
H22   H     H_    0.355629 0.262020 0.285623 0.166825
H23   H     H_    0.261962 0.644362 0.714366 0.167053
H24   H     H_    0.738030 0.355644 0.285628 0.168244
H25   H     H_    0.355627 0.738027 0.285622 0.167719
H26   H     H_    0.644380 0.261968 0.714373 0.167456
H27   H     H_    0.737998 0.644367 0.285615 0.166558
H28   H     H_    0.262011 0.355640 0.714391 0.167609
H29   H     H_    0.644385 0.262003 0.285630 0.167785
H30   H     H_    0.355609 0.738002 0.714366 0.167519
H31   H     H_    0.261984 0.355657 0.285622 0.166561
H32   H     H_    0.738006 0.644335 0.714384 0.167614
H33   H     H_    0.855649 0.762000 0.214391 0.166984
H34   H     H_    0.144358 0.238007 0.785614 0.166799
H35   H     H_    0.238023 0.855610 0.214371 0.167004
H36   H     H_    0.761987 0.144381 0.785622 0.168326
H37   H     H_    0.144364 0.237973 0.214382 0.167009
H38   H     H_    0.855629 0.762020 0.785623 0.166823
H39   H     H_    0.761961 0.144363 0.214366 0.167087
H40   H     H_    0.238028 0.855646 0.785628 0.168411
H41   H     H_    0.855628 0.238026 0.785622 0.167763
H42   H     H_    0.144381 0.761967 0.214372 0.167406
H43   H     H_    0.237999 0.144368 0.785616 0.166539
H44   H     H_    0.762011 0.855641 0.214391 0.167438
H45   H     H_    0.144384 0.762005 0.785629 0.167875
H46   H     H_    0.855608 0.238003 0.214365 0.167519
H47   H     H_    0.761984 0.855657 0.785623 0.166543
H48   H     H_    0.238006 0.144335 0.214383 0.167444
H49   H     H_    0.999940 0.383035 0.929641 0.158172
H50   H     H_    0.000056 0.616965 0.070359 0.158175
H51   H     H_    0.387824 0.034868 0.929559 0.152831
H52   H     H_    0.384996 0.976027 0.070386 0.154128
H53   H     H_    0.998931 0.618079 0.929380 0.163096
H54   H     H_    0.001075 0.381921 0.070619 0.163135
H55   H     H_    0.612177 0.965129 0.929552 0.152801
H56   H     H_    0.615004 0.023973 0.070391 0.154237
H57   H     H_    0.499915 0.882827 0.429582 0.158747
H58   H     H_    0.499395 0.117162 0.570416 0.159776
H59   H     H_    0.886873 0.531650 0.429578 0.152966
H60   H     H_    0.885863 0.472193 0.570403 0.154242
H61   H     H_    0.499324 0.117881 0.429429 0.161835
H62   H     H_    0.501248 0.882119 0.570573 0.162867
H63   H     H_    0.113127 0.468350 0.429572 0.152944
H64   H     H_    0.114136 0.527809 0.570408 0.154306
C121  C     C_R   0.196262 0.303745 0.750001 0.002621
C122  C     C_R   0.803744 0.696260 0.250002 0.002919
C123  C     C_R   0.696261 0.196254 0.749998 0.001611
C124  C     C_R   0.303744 0.803741 0.249998 0.001945
C125  C     C_R   0.803740 0.696259 0.750003 0.002569
C126  C     C_R   0.196254 0.303736 0.250001 0.002866
C127  C     C_R   0.303741 0.803742 0.749997 0.001471
C128  C     C_R   0.696253 0.196263 0.249999 0.001803
C129  C     C_R   0.196261 0.696254 0.249998 0.001677
C130  C     C_R   0.803744 0.303741 0.749998 0.001919
C131  C     C_R   0.696261 0.803745 0.250001 0.002675
C132  C     C_R   0.303744 0.196260 0.750003 0.002892
C133  C     C_R   0.803741 0.303742 0.249997 0.001531
C134  C     C_R   0.196253 0.696263 0.749999 0.001776
C135  C     C_R   0.303741 0.196259 0.250003 0.002623
C136  C     C_R   0.696253 0.803736 0.750001 0.002841
C137  C     C_R   0.999533 0.500588 0.933362 0.222666
C138  C     C_R   0.000467 0.499413 0.066638 0.222663
C139  C     C_R   0.500001 0.999998 0.933327 0.233005
C140  C     C_R   0.500000 0.000000 0.066592 0.233427
C141  C     C_R   0.499663 0.000373 0.433360 0.223759
C142  C     C_R   0.500248 0.999621 0.566641 0.221534
C143  C     C_R   0.000000 0.500000 0.433354 0.233291
C144  C     C_R   1.000000 0.500001 0.566617 0.233352
N1    N     N_R   0.122339 0.555012 0.966927 0.244580
O53   O     O_R   0.159794 0.510061 0.949852 -0.334680
O54   O     O_R   0.135803 0.624543 0.965336 -0.306217
N2    N     N_R   0.877663 0.444987 0.033073 0.244429
O55   O     O_R   0.864207 0.375454 0.034668 -0.307619
O56   O     O_R   0.840202 0.489939 0.050145 -0.334367
N3    N     N_R   0.491391 0.865469 0.966952 0.246165
O57   O     O_R   0.443814 0.855962 0.944918 -0.340547
O58   O     O_R   0.535567 0.812500 0.974039 -0.287894
N4    N     N_R   0.513802 0.134101 0.032915 0.244519
O59   O     O_R   0.468230 0.151412 0.054860 -0.344593
O60   O     O_R   0.566391 0.178858 0.025975 -0.280929
N5    N     N_R   0.876100 0.446462 0.967261 0.237137
O61   O     O_R   0.843858 0.488799 0.947291 -0.341347
O62   O     O_R   0.852543 0.380156 0.971010 -0.289791
N6    N     N_R   0.123899 0.553540 0.032739 0.236974
O63   O     O_R   0.147448 0.619851 0.028994 -0.291032
O64   O     O_R   0.156145 0.511202 0.052708 -0.341069
N7    N     N_R   0.508611 0.134528 0.966978 0.246143
O65   O     O_R   0.556189 0.144035 0.944945 -0.340878
O66   O     O_R   0.464435 0.187497 0.974073 -0.287919
N8    N     N_R   0.486199 0.865898 0.032890 0.244486
O67   O     O_R   0.531771 0.848589 0.054832 -0.344666
O68   O     O_R   0.433611 0.821141 0.025941 -0.281130
N9    N     N_R   0.622286 0.055490 0.467018 0.242018
O69   O     O_R   0.658389 0.011443 0.449006 -0.336642
O70   O     O_R   0.638006 0.124646 0.466931 -0.302354
N10   N     N_R   0.377745 0.944368 0.533013 0.243544
O71   O     O_R   0.363701 0.874891 0.534018 -0.306654
O72   O     O_R   0.340666 0.988814 0.550475 -0.334900
N11   N     N_R   0.998562 0.365210 0.466993 0.245793
O73   O     O_R   0.951506 0.353197 0.444976 -0.339854
O74   O     O_R   0.045592 0.314717 0.474023 -0.289555
N12   N     N_R   0.006609 0.634641 0.532958 0.244789
O75   O     O_R   0.960279 0.649446 0.554947 -0.345593
O76   O     O_R   0.056644 0.682198 0.525974 -0.280191
N13   N     N_R   0.376615 0.945482 0.467207 0.237544
O77   O     O_R   0.343595 0.987961 0.447523 -0.340413
O78   O     O_R   0.354592 0.878485 0.470374 -0.292551
N14   N     N_R   0.623102 0.054699 0.532815 0.238793
O79   O     O_R   0.643272 0.122481 0.530570 -0.296330
O80   O     O_R   0.656981 0.011768 0.552051 -0.339139
N15   N     N_R   0.001439 0.634791 0.467019 0.245783
O81   O     O_R   0.048496 0.646803 0.445004 -0.340042
O82   O     O_R   0.954409 0.685283 0.474057 -0.289572
N16   N     N_R   0.993390 0.365361 0.532933 0.244772
O83   O     O_R   0.039720 0.350557 0.554919 -0.345625
O84   O     O_R   0.943355 0.317804 0.525940 -0.280294

loop_
_geom_bond_atom_site_label_1
_geom_bond_atom_site_label_2
_geom_bond_distance
_ccdc_geom_bond_type
C35   C65   1.469271 S    
N16   O84   1.301209 A    
C112  H40   1.083140 S    
C103  C126  1.401831 A    
O47   C77   1.279743 A    
C91   H19   1.083142 S    
N9    O69   1.301063 A    
C22   H54   1.083267 S    
C53   N13   1.436661 S    
C41   C62   1.409688 A    
C73   C123  1.456180 S    
C91   C130  1.401792 A    
Zn11  O22   1.934376 S    
C6    H6    1.082905 S    
C115  H43   1.083143 S    
C5    C33   1.405261 A    
Zn2   O52   1.934335 S    
C18   C138  1.400185 A    
O6    C66   1.285627 A    
C104  C125  1.401827 A    
O32   C84   1.279746 A    
C82   C132  1.456237 S    
C2    C34   1.405100 A    
Zn10  O7    1.938956 S    
C77   C127  1.456151 S    
C78   C128  1.456145 S    
Zn16  O25   1.934257 S    
Zn12  O9    1.939071 S    
C38   C72   1.469582 S    
C106  C115  1.386544 A    
C55   N15   1.438183 S    
O38   C88   1.279842 A    
N12   O76   1.301208 A    
C8    C36   1.405402 A    
C17   H49   1.083343 S    
O45   C79   1.279851 A    
C9    H9    1.082898 S    
O46   C80   1.279843 A    
C42   C45   1.404028 A    
Zn15  O2    1.942062 S    
C12   H12   1.082967 S    
C13   H13   1.082900 S    
N14   O79   1.300454 A    
C113  C130  1.401800 A    
C118  H46   1.083143 S    
C109  C126  1.401771 A    
Zn7   O42   1.934255 S    
Zn5   O1    1.941737 S    
Zn10  O27   1.934412 S    
C59   C144  1.468935 S    
C23   C139  1.399525 A    
N8    O67   1.301183 A    
C24   C140  1.399690 A    
C107  H35   1.083141 S    
C4    C36   1.405401 A    
C6    C34   1.405261 A    
O44   C82   1.279830 A    
Zn6   O19   1.939164 S    
Zn11  O10   1.939071 S    
C44   C63   1.410984 A    
C7    C23   1.393723 A    
C8    C24   1.393669 A    
Zn16  O30   1.934451 S    
C107  C124  1.401792 A    
C111  H39   1.083142 S    
C92   H20   1.083140 S    
N6    O64   1.301198 A    
C109  H37   1.083143 S    
C120  H48   1.083140 S    
C3    H3    1.083006 S    
C50   C57   1.409621 A    
N4    O60   1.301247 A    
O20   C72   1.285148 A    
C20   C140  1.399692 A    
O23   C75   1.279742 A    
O24   C76   1.279745 A    
C74   C124  1.456173 S    
O15   C71   1.285421 A    
Zn7   O45   1.934452 S    
C30   H62   1.083283 S    
C90   H18   1.083140 S    
Zn16  O1    1.942061 S    
C116  H44   1.083142 S    
C9    C37   1.405098 A    
C53   C58   1.410575 A    
O43   C81   1.279829 A    
O36   C88   1.279830 A    
Zn9   O8    1.938956 S    
Zn8   O41   1.934257 S    
C6    C22   1.392393 A    
C95   C102  1.386505 A    
C102  H30   1.083141 S    
C49   C58   1.410049 A    
C93   C104  1.386531 A    
C48   N8    1.438108 S    
O26   C78   1.279670 A    
C21   H53   1.083266 S    
C52   C59   1.410848 A    
C119  C136  1.401830 A    
C106  H34   1.083141 S    
C7    C35   1.405066 A    
N13   O78   1.300454 A    
O19   C71   1.285156 A    
O17   C69   1.285386 A    
C94   H22   1.083143 S    
C30   C142  1.399913 A    
C96   H24   1.083139 S    
O13   C69   1.285385 A    
C32   H64   1.083307 S    
C89   C100  1.386542 A    
O11   C67   1.285082 A    
C106  C121  1.401816 A    
Zn1   O1    1.942147 S    
Zn14  O3    1.941733 S    
N10   O72   1.300969 A    
C24   H56   1.083321 S    
C75   C125  1.456212 S    
N1    O53   1.300898 A    
C9    C25   1.392675 A    
Zn9   O28   1.934413 S    
C42   C61   1.409687 A    
C12   C28   1.393684 A    
C13   C29   1.392445 A    
C15   C31   1.393703 A    
N2    O55   1.300563 A    
C16   C32   1.393683 A    
C1    C17   1.392797 A    
C115  C132  1.401800 A    
Zn4   O4    1.942055 S    
Zn5   O20   1.939164 S    
C116  C131  1.401794 A    
C61   C138  1.469959 S    
C112  C127  1.401821 A    
O52   C74   1.279830 A    
C97   C124  1.401803 A    
Zn8   O46   1.934451 S    
C2    H2    1.082903 S    
C101  C128  1.401760 A    
C102  C127  1.401767 A    
C81   C131  1.456242 S    
N5    O61   1.301194 A    
C33   C67   1.469662 S    
O49   C75   1.279676 A    
C34   C68   1.469662 S    
C58   C141  1.470028 S    
O50   C76   1.279669 A    
Zn7   O14   1.939069 S    
Zn8   O13   1.939069 S    
C44   C47   1.406827 A    
Zn3   O38   1.934376 S    
O40   C86   1.279746 A    
Zn15  O6    1.939069 S    
N10   O71   1.300544 A    
C28   C144  1.399635 A    
C48   C63   1.410985 A    
C49   N9    1.434856 S    
C14   H14   1.082902 S    
C80   C122  1.456237 S    
Zn2   O2    1.942146 S    
O31   C83   1.279743 A    
C114  C129  1.401808 A    
C19   H51   1.083297 S    
C12   C40   1.405292 A    
C28   H60   1.083308 S    
C25   C141  1.400178 A    
Zn1   O51   1.934333 S    
Zn11  O33   1.934333 S    
C110  C125  1.401775 A    
N8    O68   1.301248 A    
C14   C38   1.405207 A    
C22   C138  1.399835 A    
C20   H52   1.083318 S    
Zn7   O3    1.942062 S    
O34   C86   1.279668 A    
C95   C134  1.401825 A    
C29   H61   1.083300 S    
N3    O57   1.301120 A    
O39   C85   1.279742 A    
C97   H25   1.083141 S    
C112  C117  1.386502 A    
Zn13  O4    1.941737 S    
C31   H63   1.083302 S    
C26   C142  1.400136 A    
C107  C114  1.386514 A    
O30   C82   1.279843 A    
C50   C53   1.403988 A    
N15   O82   1.301204 A    
C10   H10   1.082900 S    
C23   H55   1.083297 S    
Zn4   O50   1.934335 S    
C19   C139  1.399527 A    
C100  H28   1.083142 S    
O12   C68   1.285082 A    
N14   O80   1.301174 A    
O25   C77   1.279677 A    
C79   C121  1.456243 S    
C89   C132  1.401808 A    
Zn2   O15   1.938956 S    
C90   C131  1.401816 A    
O7    C67   1.285522 A    
Zn4   O17   1.939071 S    
O8    C68   1.285522 A    
C13   C37   1.405204 A    
C56   C59   1.410847 A    
C98   C123  1.401807 A    
Zn12  O34   1.934335 S    
Zn11  O2    1.942059 S    
C1    C33   1.405100 A    
C43   C64   1.410664 A    
C104  H32   1.083140 S    
N16   O83   1.301185 A    
C3    C35   1.405064 A    
C49   C54   1.403874 A    
C15   H15   1.082989 S    
C46   C61   1.410502 A    
C99   H27   1.083140 S    
C16   H16   1.082967 S    
C64   C139  1.468233 S    
O27   C79   1.279826 A    
C51   C56   1.406814 A    
C1    H1    1.082901 S    
C52   C55   1.406814 A    
Zn14  O32   1.934417 S    
N9    O70   1.300523 A    
C92   C97   1.386511 A    
C85   C135  1.456212 S    
C86   C136  1.456206 S    
N11   O73   1.301171 A    
C26   H58   1.083336 S    
C108  H36   1.083140 S    
N7    O66   1.301246 A    
N7    O65   1.301120 A    
O14   C70   1.285507 A    
C83   C133  1.456151 S    
C119  H47   1.083142 S    
C117  H45   1.083140 S    
C108  C123  1.401788 A    
Zn4   O37   1.934374 S    
C76   C126  1.456206 S    
Zn6   O39   1.934494 S    
Zn10  O36   1.934335 S    
C10   C26   1.392674 A    
C45   C62   1.410506 A    
C94   C103  1.386535 A    
Zn13  O31   1.934418 S    
C113  H41   1.083141 S    
C14   C30   1.392439 A    
C117  C134  1.401762 A    
C54   C57   1.410060 A    
C2    C18   1.392793 A    
C39   C69   1.469741 S    
C120  C135  1.401827 A    
N12   O75   1.301186 A    
C37   C71   1.469587 S    
O9    C65   1.285292 A    
Zn6   O48   1.934417 S    
C62   C137  1.469963 S    
C90   C99   1.386545 A    
Zn15  O29   1.934452 S    
Zn12  O1    1.942055 S    
C36   C66   1.470555 S    
O5    C65   1.285291 A    
Zn14  O11   1.939164 S    
C110  H38   1.083144 S    
N13   O77   1.301181 A    
C41   N1    1.434124 S    
O37   C87   1.279848 A    
C15   C39   1.405169 A    
N15   O81   1.301170 A    
C4    H4    1.082938 S    
C11   H11   1.082991 S    
C92   C129  1.401789 A    
C5    H5    1.082907 S    
C46   N6    1.437033 S    
Zn1   O16   1.938956 S    
C29   C141  1.399966 A    
C89   H17   1.083142 S    
C10   C38   1.405103 A    
C40   C70   1.470189 S    
N3    O58   1.301247 A    
C16   C40   1.405292 A    
C111  C128  1.401824 A    
C99   C122  1.401801 A    
C96   C133  1.401820 A    
C51   N11   1.438186 S    
C111  C118  1.386505 A    
C103  H31   1.083143 S    
Zn10  O3    1.942146 S    
C32   C144  1.399634 A    
C63   C140  1.469241 S    
C109  C120  1.386532 A    
C101  H29   1.083143 S    
Zn12  O21   1.934374 S    
O51   C73   1.279828 A    
C60   C143  1.468556 S    
N6    O63   1.300463 A    
N2    O56   1.300897 A    
Zn14  O23   1.934494 S    
N4    O59   1.301184 A    
C105  H33   1.083143 S    
O35   C87   1.279828 A    
C43   N3    1.438329 S    
C95   H23   1.083142 S    
Zn2   O43   1.934412 S    
O33   C85   1.279676 A    
C87   C129  1.456180 S    
C93   H21   1.083141 S    
C43   C48   1.406827 A    
C8    H8    1.082937 S    
C41   C46   1.404032 A    
C27   C143  1.399571 A    
C105  C122  1.401808 A    
O28   C80   1.279832 A    
Zn5   O40   1.934492 S    
C45   N5    1.437035 S    
Zn9   O35   1.934333 S    
C50   N10   1.434401 S    
C57   C142  1.469941 S    
O16   C72   1.285416 A    
C18   H50   1.083343 S    
C25   H57   1.083344 S    
Zn3   O49   1.934333 S    
C93   C136  1.401772 A    
C11   C39   1.405168 A    
C94   C135  1.401776 A    
Zn5   O47   1.934418 S    
C108  C113  1.386511 A    
C42   N2    1.434122 S    
O41   C83   1.279677 A    
N11   O74   1.301205 A    
O42   C84   1.279671 A    
C55   C60   1.410715 A    
Zn13  O12   1.939164 S    
Zn3   O18   1.939071 S    
C47   N7    1.438328 S    
C47   C64   1.410662 A    
C100  C121  1.401797 A    
O22   C74   1.279842 A    
C91   C98   1.386514 A    
C105  C116  1.386541 A    
C51   C60   1.410714 A    
Zn8   O4    1.942061 S    
C21   C137  1.399834 A    
N1    O54   1.300562 A    
C98   H26   1.083142 S    
C52   N12   1.438116 S    
C56   N16   1.438117 S    
Zn3   O3    1.942059 S    
Zn16  O5    1.939069 S    
C84   C134  1.456146 S    
C27   H59   1.083300 S    
C114  H42   1.083141 S    
O48   C78   1.279747 A    
Zn9   O4    1.942147 S    
C44   N4    1.438108 S    
C4    C20   1.393671 A    
C11   C27   1.393708 A    
Zn15  O26   1.934255 S    
C5    C21   1.392393 A    
C7    H7    1.083007 S    
C110  C119  1.386535 A    
Zn13  O24   1.934492 S    
N5    O62   1.300462 A    
C88   C130  1.456174 S    
C118  C133  1.401767 A    
C96   C101  1.386502 A    
Zn1   O44   1.934413 S    
O29   C81   1.279849 A    
O18   C70   1.285508 A    
C3    C19   1.393723 A    
Zn6   O2    1.941733 S    
C54   N14   1.436118 S    
O21   C73   1.279848 A    
O10   C66   1.285628 A    
C31   C143  1.399573 A    
C17   C137  1.400185 A    
