data_mof_unit_29905.cif
_audit_creation_date              2013-03-05T15:53:47-0500
_audit_creation_method            fapswitch 2.2
_symmetry_space_group_name_H-M    P1
_symmetry_Int_Tables_number       1
_space_group_crystal_system       triclinic
_cell_length_a                    10.663577
_cell_length_b                    10.713862
_cell_length_c                    9.910282
_cell_angle_alpha                 88.810894
_cell_angle_beta                  90.607004
_cell_angle_gamma                 91.923209
_cell_volume                      1131.29383829

loop_
_atom_site_label
_atom_site_type_symbol
_atom_site_description
_atom_site_fract_x
_atom_site_fract_y
_atom_site_fract_z
_atom_type_partial_charge
O1    O     O_R   0.500000 0.316780 0.614690 -0.655538
O2    O     O_R   0.499990 0.316750 0.385360 -0.627717
C1    C     C_R   0.502490 0.259321 0.502649 0.946992
O3    O     O_R   0.314800 0.499990 0.614670 -0.663251
O4    O     O_R   0.314790 0.499970 0.385330 -0.648481
C2    C     C_R   0.258035 0.499489 0.499230 0.827461
Zn1   Zn    Zn3+2 0.500010 0.500020 0.653130 1.014291
Zn2   Zn    Zn3+2 0.499990 0.499980 0.346870 0.965145
O5    O     O_R   0.500010 0.683250 0.614640 -0.574527
O6    O     O_R   0.500000 0.683220 0.385310 -0.631287
O7    O     O_R   0.685210 0.500030 0.614670 -0.552443
O8    O     O_R   0.685200 0.500010 0.385330 -0.613924
C3    C     C_R   0.486423 0.738299 0.498610 0.915666
C4    C     C_R   0.742096 0.496553 0.500327 0.925967
C5    C     C_3   0.073374 0.382181 0.582500 -0.471589
H1    H     H_    0.106128 0.392628 0.688514 0.219845
H2    H     H_    0.121078 0.297979 0.548884 0.205493
C6    C     C_3   0.926858 0.369628 0.575071 0.183870
H3    H     H_    0.117095 0.627396 0.666842 0.190280
H4    H     H_    0.908386 0.609615 0.677099 0.239987
C7    C     C_3   0.077828 0.618122 0.562768 -0.441875
C8    C     C_3   0.069984 0.489439 0.351749 -0.358208
C9    C     C_3   0.121938 0.497233 0.498474 0.087713
H5    H     H_    0.107942 0.568886 0.288530 0.216623
H6    H     H_    0.098723 0.401248 0.305351 0.216880
C10   C     C_3   0.879187 0.493161 0.500155 -0.134224
C11   C     C_3   0.933718 0.614518 0.569339 -0.169518
C12   C     C_3   0.927664 0.493126 0.351554 -0.397332
H7    H     H_    0.888206 0.411824 0.295280 0.212915
H8    H     H_    0.897295 0.576372 0.293031 0.250993
H9    H     H_    0.114682 0.700517 0.503297 0.195871
H10   H     H_    0.538722 0.115781 0.293746 0.180576
C13   C     C_R   0.482475 0.101128 0.762574 -0.115752
H11   H     H_    0.534524 0.185533 0.787254 0.210367
C14   C     C_R   0.430998 0.033510 0.871711 -0.124490
H12   H     H_    0.438050 0.070532 0.972442 0.150901
C15   C     C_R   0.368604 0.919660 0.850700 -0.080297
H13   H     H_    0.323989 0.869391 0.934077 0.152898
C16   C     C_R   0.370246 0.867262 0.723456 -0.108291
H14   H     H_    0.323691 0.776892 0.710588 0.134504
C17   C     C_R   0.433786 0.929845 0.615601 0.124086
C18   C     C_R   0.472755 0.054805 0.629434 0.086610
C19   C     C_R   0.501857 0.124763 0.508993 -0.062767
C20   C     C_R   0.514636 0.064873 0.386042 -0.123813
H15   H     H_    0.523350 0.892831 0.287391 0.175594
C21   C     C_R   0.501716 0.937777 0.380920 -0.185854
C22   C     C_R   0.466127 0.869762 0.496367 -0.110889
H16   H     H_    0.645044 0.635310 0.126209 0.179162
C23   C     C_R   0.331952 0.339212 0.141311 -0.257640
H17   H     H_    0.329441 0.333915 0.248288 0.231367
C24   C     C_R   0.247182 0.260119 0.072451 0.300071
C25   C     C_R   0.245878 0.263741 0.931904 -0.236833
H18   H     H_    0.182476 0.202635 0.875745 0.209157
C26   C     C_R   0.330533 0.341344 0.861505 -0.232900
H19   H     H_    0.328934 0.332373 0.754794 0.215965
C27   C     C_R   0.416289 0.421809 0.928413 0.104471
C28   C     C_R   0.416543 0.421453 0.072802 0.118554
N1    N     N_R   0.498810 0.498800 0.142780 -0.135057
C29   C     C_R   0.580097 0.574393 0.071867 -0.157288
C30   C     C_R   0.580513 0.575091 0.928949 0.355703
N2    N     N_R   0.498760 0.498720 0.857170 -0.175927
C31   C     C_2   0.880586 0.735617 0.513952 0.904894
O9    O     O_2   0.808601 0.793297 0.582681 -0.546810
O10   O     O_R   0.914953 0.782681 0.386486 -0.796212
H20   H     H_    0.871929 0.863024 0.361612 0.356789
N3    N     N_R   0.165025 0.174059 0.145472 0.207273
O11   O     O_R   0.183311 0.151570 0.273611 -0.403005
O12   O     O_R   0.074634 0.113284 0.083343 -0.346421
N4    N     N_R   0.668411 0.657200 0.861491 0.233483
O13   O     O_R   0.787143 0.643137 0.886081 -0.357112
O14   O     O_R   0.632342 0.767217 0.823305 -0.342210
C32   C     C_2   0.885818 0.252539 0.495387 0.920948
O15   O     O_2   0.775161 0.234532 0.466516 -0.642032
O16   O     O_R   0.971974 0.164631 0.456871 -0.751750
H21   H     H_    0.931313 0.092991 0.405288 0.377651
N5    N     N_R   0.876284 0.355688 0.714003 0.207518
O17   O     O_R   0.919914 0.424756 0.811493 -0.366676
O18   O     O_R   0.791922 0.268982 0.743852 -0.354593

loop_
_geom_bond_atom_site_label_1
_geom_bond_atom_site_label_2
_geom_bond_distance
_ccdc_geom_bond_type
C5    C6    1.564752 S    
N3    O12   1.301571 A    
C17   C18   1.397468 A    
C14   H12   1.082759 S    
C6    C10   1.599277 S    
C16   C17   1.416435 A    
H15   C21   1.083862 S    
Zn1   O7    2.015296 S    
C7    H9    1.114062 S    
C1    C19   1.441488 S    
C10   C11   1.573714 S    
C15   H13   1.082500 S    
C13   C18   1.420865 A    
C12   H7    1.112376 S    
H3    C7    1.114139 S    
N5    O18   1.303026 A    
O4    C2    1.286265 A    
O7    C4    1.292781 A    
C5    H1    1.110323 S    
C23   C28   1.409189 A    
C27   C28   1.430834 A    
C5    H2    1.109253 S    
N4    O14   1.299736 A    
O5    C3    1.290408 A    
Zn1   N2    2.022036 S    
C31   O10   1.398309 S    
Zn2   N1    2.022794 S    
C21   C22   1.392858 A    
C20   C21   1.365980 A    
C23   C24   1.400146 A    
C8    H6    1.112913 S    
C5    C9    1.550722 S    
N3    O11   1.301504 A    
C7    C11   1.537952 S    
C29   C30   1.416277 A    
C8    C12   1.519461 S    
C6    C32   1.544594 S    
O3    Zn1   2.007464 S    
C25   C26   1.389902 A    
H10   C20   1.083948 S    
C26   C27   1.406093 A    
O16   H21   1.013755 S    
C24   C25   1.392539 A    
N5    O17   1.301743 A    
C32   O16   1.399016 S    
C16   H14   1.082438 S    
C3    C22   1.431852 S    
N1    C29   1.357693 A    
C30   N2    1.377922 A    
O1    C1    1.281670 A    
C24   N3    1.439755 S    
C19   C20   1.398861 A    
C31   O9    1.222885 D    
C11   C31   1.522776 S    
Zn2   O8    2.007466 S    
C13   H11   1.076224 S    
C17   C22   1.408787 A    
C27   N2    1.375232 A    
C4    C10   1.463571 S    
O3    C2    1.288657 A    
O8    C4    1.285842 A    
C7    C9    1.544738 S    
C8    H5    1.114002 S    
C18   C19   1.427546 A    
C25   H18   1.083006 S    
H16   C29   1.082582 S    
Zn1   O5    1.992030 S    
C26   H19   1.063782 S    
C6    N5    1.486835 S    
C14   C15   1.388181 A    
O1    Zn1   2.007570 S    
O2    Zn2   1.992030 S    
C32   O15   1.221215 D    
O6    C3    1.290981 A    
O4    Zn2   2.015296 S    
H4    C11   1.104103 S    
C10   C12   1.565934 S    
O10   H20   1.013658 S    
C12   H8    1.109353 S    
O2    C1    1.304279 A    
C15   C16   1.391461 A    
C28   N1    1.378193 A    
C30   N4    1.425784 S    
C2    C9    1.450610 S    
C13   C14   1.396180 A    
N4    O13   1.299951 A    
Zn2   O6    2.007569 S    
C23   H17   1.061081 S    
C8    C9    1.553435 S    
