data_mof_unit_12975.cif
_audit_creation_date              2012-12-10T20:37:26-0500
_audit_creation_method            fapswitch 2.2
_symmetry_space_group_name_H-M    P1
_symmetry_Int_Tables_number       1
_space_group_crystal_system       triclinic
_cell_length_a                    15.700231
_cell_length_b                    10.734066
_cell_length_c                    9.867073
_cell_angle_alpha                 90.183677
_cell_angle_beta                  90.182544
_cell_angle_gamma                 89.735136
_cell_volume                      1662.83665375

loop_
_atom_site_label
_atom_site_type_symbol
_atom_type_description
_atom_site_fract_x
_atom_site_fract_y
_atom_site_fract_z
_atom_type_partial_charge
C1    C     C_R   0.500928 0.260603 0.499760 0.887244
C2    C     C_3   0.082935 0.491007 0.500187 0.219512
C3    C     C_3   0.972540 0.608488 0.524627 -0.158830
C4    C     C_3   0.917683 0.492683 0.502066 0.215981
C5    C     C_3   0.027925 0.567840 0.402871 -0.164867
C6    C     C_3   0.971390 0.451994 0.380340 -0.167863
C7    C     C_1   0.173764 0.492171 0.498808 -0.103771
C8    C     C_1   0.826679 0.494960 0.501816 -0.088253
C9    C     C_R   0.472857 0.064402 0.609486 -0.005676
C10   C     C_R   0.501956 0.129502 0.498792 -0.060554
C11   C     C_R   0.530481 0.063482 0.384641 -0.219075
C12   C     C_R   0.337933 0.498826 0.499690 0.907864
C13   C     C_R   0.528939 0.934191 0.385786 -0.192105
C14   C     C_R   0.497034 0.871076 0.499758 -0.105152
C15   C     C_R   0.467229 0.940016 0.609780 -0.038599
C16   C     C_3   0.426930 0.939978 0.749556 0.587380
C17   C     C_3   0.435755 0.083242 0.745803 -0.405075
C18   C     C_R   0.442870 0.429035 0.070724 0.158272
C19   C     C_R   0.561515 0.560057 0.072494 -0.119002
C20   C     C_R   0.561843 0.559345 0.928574 -0.168513
C21   C     C_R   0.442513 0.429751 0.928234 0.205871
C22   C     C_3   0.347881 0.441945 0.922653 0.269714
C23   C     C_R   0.498060 0.739581 0.500309 0.850481
C24   C     C_3   0.348248 0.439320 0.076938 -0.587426
C25   C     C_R   0.662169 0.499803 0.500258 0.909469
C26   C     C_3   0.972678 0.415784 0.599542 -0.169842
C27   C     C_3   0.028235 0.375107 0.477755 -0.166000
C28   C     C_1   0.249075 0.494934 0.498780 -0.199139
C29   C     C_1   0.751256 0.497380 0.501010 -0.194035
C30   C     C_3   0.029329 0.531629 0.622001 -0.175003
H1    H     H_    0.053401 0.279830 0.458797 0.133364
H2    H     H_    0.374130 0.134285 0.740304 0.251304
H3    H     H_    0.482790 0.123452 0.818015 0.172834
H4    H     H_    0.609838 0.611436 0.127137 0.146858
H5    H     H_    0.610487 0.610087 0.874785 0.155941
H6    H     H_    0.327167 0.532185 0.877679 0.077507
H7    H     H_    0.326370 0.528588 0.122803 0.187956
H8    H     H_    0.319037 0.354415 0.120852 0.222358
H9    H     H_    0.947961 0.353715 0.679996 0.129414
H10   H     H_    0.945526 0.419504 0.281588 0.130616
H11   H     H_    0.052755 0.629892 0.322476 0.129433
H12   H     H_    0.947667 0.703880 0.543870 0.129830
H13   H     H_    0.055355 0.563956 0.720720 0.124343
H14   H     H_    0.554735 0.111010 0.296166 0.163354
H15   H     H_    0.553655 0.884177 0.298800 0.156712
N1    N     N_R   0.499430 0.499140 0.142800 -0.102839
N2    N     N_R   0.499430 0.499180 0.857150 -0.145935
O1    O     O_R   0.500010 0.316790 0.614690 -0.603869
O2    O     O_R   0.500000 0.316760 0.385350 -0.621802
O3    O     O_R   0.376780 0.500010 0.614650 -0.621301
O4    O     O_R   0.376770 0.499970 0.385310 -0.611606
O5    O     O_R   0.500000 0.683240 0.614650 -0.660161
O6    O     O_R   0.499990 0.683210 0.385310 -0.618240
O7    O     O_R   0.623230 0.500030 0.614690 -0.613677
O8    O     O_R   0.623220 0.499990 0.385350 -0.619000
Zn1   Zn    Zn3+2 0.500010 0.500020 0.653130 0.936864
Zn2   Zn    Zn3+2 0.499990 0.499980 0.346870 0.944785
C31   C     C_3   0.481541 0.880065 0.863149 -0.454870
C32   C     C_3   0.441622 0.897245 0.002971 -0.807419
H16   H     H_    0.435109 0.997774 0.027977 0.261181
H17   H     H_    0.378016 0.852577 0.006664 0.274584
H18   H     H_    0.482928 0.852419 0.080316 0.236111
H19   H     H_    0.489757 0.779329 0.844194 0.215485
H20   H     H_    0.546466 0.921083 0.864032 0.182259
O9    O     O_3   0.311549 0.334437 0.863922 -0.588541
C33   C     C_3   0.222901 0.352097 0.848796 0.114532
H21   H     H_    0.208290 0.437320 0.789004 0.136379
H22   H     H_    0.191720 0.359296 0.949694 0.138054
C34   C     C_3   0.185661 0.241224 0.773181 -0.812585
H23   H     H_    0.198127 0.154099 0.830508 0.269706
H24   H     H_    0.115811 0.253891 0.761075 0.199765
H25   H     H_    0.214978 0.233279 0.671177 0.256026
O10   O     O_3   0.338783 0.910471 0.752947 -0.601535
C35   C     C_3   0.322042 0.787356 0.710962 0.154325
H26   H     H_    0.363467 0.718898 0.763527 0.156596
H27   H     H_    0.329798 0.778523 0.599470 0.133800
C36   C     C_3   0.230296 0.756617 0.746136 -0.881624
H28   H     H_    0.186073 0.819435 0.690520 0.263460
H29   H     H_    0.216154 0.658941 0.717931 0.205967
H30   H     H_    0.220049 0.767965 0.856832 0.250294

loop_
_geom_bond_atom_site_label_1
_geom_bond_atom_site_label_2
_ccdc_geom_bond_type
C33   H22   S    
C3    H12   S    
C34   H25   S    
C18   C21   A    
O10   C35   S    
C2    C7    S    
C4    C8    S    
C19   N1    A    
C36   H28   S    
C26   C27   S    
C35   H27   S    
C12   C28   S    
C18   C24   S    
C8    C29   T    
C5    C6    S    
C26   H9    S    
C33   C34   S    
C15   C16   S    
O2    Zn2   S    
C34   H24   S    
C20   H5    S    
C19   C20   A    
C16   C17   S    
C35   C36   S    
C24   H8    S    
C2    C27   S    
O4    Zn2   S    
C9    C10   A    
C33   H21   S    
C32   H16   S    
C21   C22   S    
C25   C29   S    
C17   H3    S    
C18   N1    A    
C23   O6    A    
C36   H29   S    
C31   H20   S    
O7    Zn1   S    
C32   H17   S    
C35   H26   S    
C27   H1    S    
C16   O10   S    
C25   O7    A    
C4    C6    S    
O6    Zn2   S    
C31   C32   S    
O3    Zn1   S    
C7    C28   T    
C14   C23   S    
C3    C30   S    
C22   O9    S    
C12   O3    A    
C6    C27   S    
C24   H7    S    
C11   H14   S    
C16   C31   S    
C9    C17   S    
C26   C30   S    
O8    Zn2   S    
N1    Zn2   S    
C6    H10   S    
C30   H13   S    
C2    C5    S    
C3    C4    S    
C12   O4    A    
C36   H30   S    
C31   H19   S    
O1    Zn1   S    
C5    H11   S    
C32   H18   S    
C1    C10   S    
C25   O8    A    
C3    C5    S    
C19   H4    S    
C4    C26   S    
C1    O1    A    
C22   H6    S    
C2    C30   S    
C9    C15   A    
C13   H15   S    
C11   C13   A    
C23   O5    A    
C22   C24   S    
C34   H23   S    
C20   N2    A    
C10   C11   A    
O9    C33   S    
C17   H2    S    
C14   C15   A    
C13   C14   A    
C1    O2    A    
O5    Zn1   S    
N2    Zn1   S    
C21   N2    A    
