data_mof_unit_66210.cif
_audit_creation_date              2012-12-10T17:57:49-0500
_audit_creation_method            fapswitch 2.2
_symmetry_space_group_name_H-M    P1
_symmetry_Int_Tables_number       1
_space_group_crystal_system       triclinic
_cell_length_a                    18.688118
_cell_length_b                    18.743863
_cell_length_c                    18.951708
_cell_angle_alpha                 109.649897
_cell_angle_beta                  109.555635
_cell_angle_gamma                 109.073834
_cell_volume                      5118.6965267

loop_
_atom_site_label
_atom_site_type_symbol
_atom_type_description
_atom_site_fract_x
_atom_site_fract_y
_atom_site_fract_z
_atom_type_partial_charge
C1    C     C_R   0.380714 0.381025 0.499722 0.909408
C2    C     C_3   0.808460 0.499845 0.810350 -0.271200
C3    C     C_3   0.817549 0.469293 0.726912 -0.346862
C4    C     C_3   0.826750 0.595912 0.837990 0.109987
C5    C     C_R   0.304877 0.230982 0.473995 0.177238
C6    C     C_R   0.315951 0.315002 0.502824 -0.164687
C7    C     C_R   0.267074 0.336678 0.540240 -0.164947
C8    C     C_R   0.201772 0.272685 0.539772 0.390651
C9    C     C_R   0.186398 0.186614 0.503254 -0.203710
C10   C     C_R   0.241375 0.168007 0.475002 0.058930
C11   C     C_3   0.216907 0.097605 0.390027 0.116134
C12   C     C_R   0.621950 0.502255 0.618813 0.868472
C13   C     C_3   0.286631 0.166919 0.388136 -0.349447
C14   C     C_R   0.333708 0.547325 0.276099 -0.077989
C15   C     C_R   0.313440 0.499527 0.315451 -0.107075
C16   C     C_R   0.224483 0.450919 0.289325 0.362287
C17   C     C_R   0.159942 0.451606 0.224475 -0.197108
C18   C     C_R   0.183317 0.501473 0.185838 -0.139541
C19   C     C_R   0.271941 0.549713 0.215546 0.045974
C20   C     C_3   0.336757 0.610173 0.204359 0.203086
C21   C     C_3   0.407880 0.606938 0.273576 -0.147091
C22   C     C_R   0.683510 0.676693 0.423436 0.118081
C23   C     C_R   0.618915 0.619109 0.500255 0.787879
C24   C     C_R   0.683613 0.687571 0.499942 -0.163363
C25   C     C_R   0.743140 0.768898 0.575966 -0.180231
C26   C     C_R   0.809033 0.833363 0.577442 0.341275
C27   C     C_R   0.813095 0.817650 0.501134 -0.151521
C28   C     C_R   0.746471 0.741352 0.423816 0.115444
C29   C     C_3   0.753846 0.676531 0.358829 -0.507477
C30   C     C_3   0.684778 0.605636 0.358542 -0.376797
C31   C     C_R   0.998384 0.381297 0.879623 0.814276
C32   C     C_R   0.877628 0.501313 0.879693 0.886058
C33   C     C_R   0.997122 0.618998 0.115635 0.846194
C34   C     C_R   0.381389 0.500663 0.381149 0.842708
C35   C     C_R   0.116890 0.500771 0.117484 0.804770
C36   C     C_R   0.999853 0.119515 0.617932 0.867738
C37   C     C_R   0.118770 0.118449 0.500172 0.882083
C38   C     C_R   0.002773 0.883230 0.382074 0.811712
C39   C     C_R   0.881085 0.881551 0.499928 0.803669
C40   C     C_R   0.922281 0.249351 0.736951 0.114936
C41   C     C_R   0.999511 0.316146 0.812816 -0.123441
C42   C     C_R   0.079540 0.326154 0.818891 -0.205696
C43   C     C_R   0.081302 0.262643 0.755178 0.405596
C44   C     C_R   0.001824 0.189758 0.683136 -0.183382
C45   C     C_3   0.646386 0.452986 0.726197 0.200243
C46   C     C_R   0.923422 0.187966 0.672458 0.167812
C47   C     C_3   0.840591 0.116194 0.652266 -0.292328
C48   C     C_3   0.839851 0.184384 0.723634 -0.486108
C49   C     C_R   0.021494 0.692364 0.263421 0.023532
C50   C     C_R   0.000290 0.687304 0.183425 -0.164896
C51   C     C_R   0.996335 0.757490 0.174530 -0.142628
C52   C     C_R   0.998749 0.823828 0.239626 0.389218
C53   C     C_R   0.009247 0.821802 0.316396 -0.149709
C54   C     C_R   0.028295 0.759645 0.329438 0.112949
C55   C     C_3   0.994000 0.702929 0.363042 -0.509067
C56   C     C_3   0.712318 0.439765 0.789338 0.632323
C57   C     C_3   0.985557 0.628051 0.289489 -0.212709
C58   C     C_3   0.738083 0.454214 0.648595 0.264799
C59   C     C_3   0.759433 0.597091 0.763738 -0.337005
C60   C     C_3   0.690653 0.500925 0.686090 -0.313376
Cu1   Cu    Cu3+1 0.500370 0.438220 0.438550 1.102989
Cu2   Cu    Cu3+1 0.499630 0.561780 0.561450 1.065667
Cu3   Cu    Cu3+1 0.935500 0.438280 0.997350 1.112119
Cu4   Cu    Cu3+1 0.059110 0.561800 0.997270 1.087597
Cu5   Cu    Cu3+1 0.062130 0.000020 0.562160 1.126546
Cu6   Cu    Cu3+1 0.937870 0.000080 0.437940 1.140592
H1    H     H_    0.893834 0.635956 0.851517 0.162375
H2    H     H_    0.876930 0.525517 0.741825 0.176127
H3    H     H_    0.276643 0.402197 0.566254 0.212365
H4    H     H_    0.149372 0.072150 0.339065 0.176281
H5    H     H_    0.258440 0.181060 0.336161 0.146446
H6    H     H_    0.629056 0.496889 0.764533 0.156765
H7    H     H_    0.092014 0.413186 0.204676 0.211482
H8    H     H_    0.327228 0.579022 0.138136 0.117791
H9    H     H_    0.741257 0.780908 0.635151 0.236445
H10   H     H_    0.731290 0.676439 0.296558 0.222951
H11   H     H_    0.818653 0.680783 0.386214 0.193322
H12   H     H_    0.622286 0.564610 0.296038 0.227953
H13   H     H_    0.709813 0.568935 0.385376 0.220386
H14   H     H_    0.140544 0.381100 0.874923 0.187142
H15   H     H_    0.850116 0.066381 0.666994 0.195144
H16   H     H_    0.785587 0.198231 0.700758 0.224402
H17   H     H_    0.850130 0.174332 0.780033 0.230170
H18   H     H_    0.987529 0.758793 0.115598 0.223054
H19   H     H_    0.044712 0.722385 0.427917 0.232170
H20   H     H_    0.931173 0.696303 0.358453 0.165957
H21   H     H_    0.030469 0.603705 0.312159 0.200733
H22   H     H_    0.723501 0.625066 0.789517 0.263158
O1    O     O_R   0.410140 0.357660 0.448100 -0.564455
O2    O     O_R   0.049970 0.462000 0.907620 -0.563859
O3    O     O_R   0.854460 0.447890 0.906680 -0.520926
O4    O     O_R   0.958840 0.552200 0.906620 -0.588765
O5    O     O_R   0.944630 0.538080 0.087010 -0.558852
O6    O     O_R   0.049020 0.642390 0.086940 -0.563397
O7    O     O_R   0.035760 0.447880 0.088010 -0.588752
O8    O     O_R   0.140150 0.552190 0.087940 -0.557922
O9    O     O_R   0.051980 0.090160 0.642200 -0.532442
O10   O     O_R   0.947040 0.090210 0.537310 -0.540356
O11   O     O_R   0.142640 0.090190 0.552500 -0.539789
O12   O     O_R   0.409510 0.462000 0.551890 -0.577888
O13   O     O_R   0.037710 0.090250 0.447610 -0.550173
O14   O     O_R   0.052960 0.909890 0.462790 -0.575903
O15   O     O_R   0.948020 0.909940 0.357900 -0.548334
O16   O     O_R   0.962290 0.909850 0.552490 -0.554644
O17   O     O_R   0.857360 0.909910 0.447600 -0.577782
O18   O     O_R   0.590970 0.447830 0.538770 -0.535753
O19   O     O_R   0.590340 0.552170 0.642560 -0.572691
O20   O     O_R   0.590490 0.538000 0.448110 -0.587336
O21   O     O_R   0.589860 0.642340 0.551900 -0.579904
O22   O     O_R   0.409660 0.447830 0.357440 -0.537041
O23   O     O_R   0.409030 0.552170 0.461230 -0.588976
O24   O     O_R   0.945590 0.357690 0.907690 -0.587608
Cl1   Cl    Cl    0.540093 0.357037 0.650473 -0.406378
C61   C     C_2   0.770549 0.489137 0.597012 0.423035
H23   H     H_    0.751617 0.531874 0.578783 0.028098
O25   O     O_2   0.816115 0.466765 0.572125 -0.456379
Cl2   Cl    Cl    0.138091 0.301482 0.581634 -0.497922
Cl3   Cl    Cl    0.237485 0.014305 0.401993 -0.518361
C62   C     C_2   0.362293 0.153073 0.390418 0.617909
H24   H     H_    0.351278 0.099332 0.334657 0.087281
O26   O     O_2   0.435739 0.201512 0.453237 -0.405380
Cl4   Cl    Cl    0.191918 0.387915 0.335301 -0.586401
Cl5   Cl    Cl    0.337990 0.712222 0.236466 -0.487732
C63   C     C_2   0.452682 0.563714 0.237520 0.334805
H25   H     H_    0.496990 0.597014 0.219792 0.115548
O27   O     O_2   0.440222 0.492114 0.227917 -0.509777
C64   C     C_2   0.471563 0.690501 0.358914 0.445803
H26   H     H_    0.466452 0.698273 0.416146 0.082939
O28   O     O_2   0.529778 0.750119 0.364557 -0.500170
Cl6   Cl    Cl    0.886581 0.931047 0.676162 -0.589299
Cl7   Cl    Cl    0.700536 0.464981 0.883974 -0.440186
Cl8   Cl    Cl    0.183894 0.276430 0.769066 -0.486837
C65   C     C_2   0.764515 0.077398 0.563816 0.498481
H27   H     H_    0.699125 0.036004 0.548900 0.107029
O29   O     O_2   0.775039 0.090989 0.508405 -0.462834
Cl9   Cl    Cl    0.986841 0.906276 0.220970 -0.534033
Cl10  Cl    Cl    0.684117 0.326797 0.746833 -0.458656
C66   C     C_2   0.892193 0.557838 0.224569 0.494748
H28   H     H_    0.843384 0.574516 0.197020 0.088309
O30   O     O_2   0.870777 0.481596 0.202395 -0.487668
Cl11  Cl    Cl    0.662892 0.339208 0.571930 -0.405764
C67   C     C_2   0.839027 0.395709 0.706542 0.538458
H29   H     H_    0.793842 0.330946 0.688896 0.137487
O31   O     O_2   0.908451 0.408685 0.708922 -0.502162
C68   C     C_2   0.805152 0.658358 0.738301 0.370801
H30   H     H_    0.855899 0.654368 0.724355 0.071337
O32   O     O_2   0.787378 0.714927 0.735897 -0.497391
Cl12  Cl    Cl    0.832039 0.652489 0.938763 -0.539389

loop_
_geom_bond_atom_site_label_1
_geom_bond_atom_site_label_2
_ccdc_geom_bond_type
C12   O18   A    
C45   C60   S    
C42   H14   S    
C41   C42   A    
C3    H2    S    
Cu4   O2    S    
C33   O6    A    
Cu1   O1    S    
C68   H30   S    
C11   H4    S    
C39   O16   A    
C29   H10   S    
C53   C54   A    
C40   C46   A    
C38   C53   S    
C26   C27   A    
C38   O15   A    
C14   C21   S    
C43   Cl8   S    
C5    C6    A    
C32   O3    A    
C58   C60   S    
C49   C54   A    
C4    Cl12  S    
Cu3   O7    S    
C49   C57   S    
C2    C32   S    
C18   C19   A    
Cu3   O24   S    
Cu1   O20   S    
C16   Cl4   S    
C59   H22   S    
C20   Cl5   S    
C68   O32   D    
C54   C55   S    
Cu2   O23   S    
C19   C20   S    
C45   C56   S    
C27   C39   S    
C8    C9    A    
C17   C18   A    
C31   O24   A    
C36   O9    A    
C21   C64   S    
C31   C41   S    
C18   C35   S    
C15   C34   S    
C5    C13   S    
C26   Cl6   S    
C59   C60   S    
C22   C28   A    
C47   C65   S    
C45   H6    S    
C17   H7    S    
C34   O23   A    
Cu6   O13   S    
C3    C67   S    
Cu5   O14   S    
Cu1   O22   S    
C14   C19   A    
C1    O12   A    
C13   C62   S    
C44   C46   A    
C8    Cl2   S    
C61   H23   S    
C62   O26   D    
C23   O21   A    
C51   C52   A    
C7    C8    A    
C24   C25   A    
Cu5   O11   S    
C66   H28   S    
C16   C17   A    
Cu2   O19   S    
C13   H5    S    
C33   C50   S    
C35   O8    A    
C1    C6    S    
C25   H9    S    
C12   C60   S    
C55   H19   S    
C2    C4    S    
C43   C44   A    
C64   O28   D    
C29   C30   S    
C45   Cl1   S    
C4    H1    S    
C47   C48   S    
C23   C24   S    
C31   O2    A    
C9    C37   S    
C50   C51   A    
C20   H8    S    
Cu1   O18   S    
Cu4   O8    S    
C66   O30   D    
Cu2   O12   S    
C30   H13   S    
C59   C68   S    
C40   C41   A    
C49   C50   A    
C55   C57   S    
C65   H27   S    
C34   O22   A    
C67   O31   D    
C36   C44   S    
C42   C43   A    
Cu4   O4    S    
Cu6   O17   S    
C64   H26   S    
C37   O11   A    
C52   C53   A    
C63   O27   D    
C9    C10   A    
C39   O17   A    
C46   C47   S    
C28   C29   S    
C1    O1    A    
C22   C30   S    
C67   H29   S    
Cu6   O15   S    
C33   O5    A    
C7    H3    S    
C12   O19   A    
C61   O25   D    
C62   H24   S    
C6    C7    A    
C35   O7    A    
Cu3   O5    S    
C48   H17   S    
Cu6   O10   S    
C21   C63   S    
C2    C3    S    
C25   C26   A    
Cu4   O6    S    
C5    C10   A    
C38   O14   A    
C2    C56   S    
C37   O13   A    
C56   Cl10  S    
C11   C13   S    
C58   Cl11  S    
C32   O4    A    
Cu2   O21   S    
C55   H20   S    
C52   Cl9   S    
C23   O20   A    
C51   H18   S    
C4    C59   S    
C48   H16   S    
C57   C66   S    
C22   C24   A    
C47   H15   S    
Cu1   Cu2   S    
C56   Cl7   S    
C10   C11   S    
Cu5   O9    S    
Cu3   Cu4   S    
C30   H12   S    
C3    C58   S    
C57   H21   S    
C29   H11   S    
C20   C21   S    
Cu5   Cu6   S    
Cu3   O3    S    
C27   C28   A    
C58   C61   S    
C65   O29   D    
C14   C15   A    
C36   O10   A    
Cu5   O16   S    
C11   Cl3   S    
C40   C48   S    
C15   C16   A    
C63   H25   S    
