data_mof_unit_59319.cif
_audit_creation_date              2012-12-10T16:55:01-0500
_audit_creation_method            fapswitch 2.2
_symmetry_space_group_name_H-M    P1
_symmetry_Int_Tables_number       1
_space_group_crystal_system       triclinic
_cell_length_a                    9.692066
_cell_length_b                    10.914942
_cell_length_c                    15.569689
_cell_angle_alpha                 89.789174
_cell_angle_beta                  73.3371
_cell_angle_gamma                 90.453229
_cell_volume                      1577.84767995

loop_
_atom_site_label
_atom_site_type_symbol
_atom_type_description
_atom_site_fract_x
_atom_site_fract_y
_atom_site_fract_z
_atom_type_partial_charge
C1    C     C_R   0.003899 0.265713 0.491398 0.744101
C2    C     C_R   0.672071 0.566045 0.903152 -0.034364
C3    C     C_R   0.773281 0.582792 0.951609 0.019019
C4    C     C_R   0.523811 0.548816 0.950024 0.030479
C5    C     C_R   0.475401 0.565315 0.044878 -0.044468
C6    C     C_R   0.578949 0.608965 0.087870 0.410703
C7    C     C_R   0.725661 0.606719 0.042699 -0.226567
C8    C     C_R   0.426001 0.505355 0.905060 -0.167977
C9    C     C_R   0.283228 0.482073 0.949737 -0.263786
C10   C     C_R   0.232795 0.493290 0.042484 0.074921
C11   C     C_R   0.328293 0.533712 0.091459 0.042283
C12   C     C_R   0.916594 0.509988 0.671400 0.799543
C13   C     C_R   0.089436 0.457616 0.087514 0.406867
C14   C     C_R   0.038293 0.467328 0.180395 -0.271266
C15   C     C_R   0.274888 0.531659 0.185489 -0.254569
C16   C     C_2   0.894735 0.934378 0.495901 0.452383
C17   C     C_2   0.985416 0.866225 0.527278 0.210062
C18   C     C_2   0.893665 0.066465 0.515453 -0.259512
C19   C     C_2   0.009595 0.133417 0.473648 0.281354
C20   C     C_2   0.395810 0.427559 0.552251 0.526852
C21   C     C_2   0.553750 0.428551 0.551417 -0.177061
C22   C     C_R   0.997180 0.734633 0.506880 0.760143
C23   C     C_R   0.083738 0.501386 0.327956 0.818938
C24   C     C_R   0.869749 0.538667 0.767489 -0.167287
C25   C     C_R   0.131489 0.501882 0.229646 -0.144110
C26   C     C_R   0.921333 0.580513 0.907307 -0.114065
C27   C     C_R   0.969029 0.549516 0.817047 -0.312819
C28   C     C_R   0.724357 0.568139 0.808883 0.410330
Cu1   Cu    Cu3+1 0.138640 0.500020 0.499980 0.957982
Cu2   Cu    Cu3+1 0.861360 0.499980 0.500020 0.963080
H1    H     H_    0.803135 0.104925 0.566194 0.110139
H2    H     H_    0.625895 0.558968 0.457875 0.196566
H3    H     H_    0.343279 0.546951 0.227335 0.233087
N1    N     N_2   0.346430 0.498660 0.500980 -0.311434
N2    N     N_2   0.652550 0.498630 0.501000 -0.294465
O1    O     O_R   0.117050 0.321960 0.499980 -0.532998
O2    O     O_R   0.882890 0.321920 0.500020 -0.597080
O3    O     O_R   0.052910 0.500040 0.629810 -0.565511
O4    O     O_R   0.818750 0.499990 0.629840 -0.536787
O5    O     O_R   0.117110 0.678080 0.499980 -0.601558
O6    O     O_R   0.882950 0.678040 0.500020 -0.547524
O7    O     O_R   0.181250 0.500010 0.370160 -0.584320
O8    O     O_R   0.947090 0.499960 0.370190 -0.566739
H4    H     H_    0.802703 0.629092 0.078992 0.177088
O9    O     O_3   0.996747 0.416996 0.040602 -0.633306
C29   C     C_3   0.997640 0.287738 0.038398 0.033308
H5    H     H_    0.941736 0.249824 0.106060 0.145571
H6    H     H_    0.109795 0.252059 0.016229 0.139494
C30   C     C_3   0.917804 0.245091 0.972035 -0.306091
H7    H     H_    0.803533 0.274208 0.996070 0.229886
H8    H     H_    0.967520 0.288818 0.905611 0.224179
C31   C     C_3   0.923236 0.106151 0.960956 -0.941574
H9    H     H_    0.036329 0.075654 0.933450 0.258619
H10   H     H_    0.861828 0.078539 0.913801 0.264496
H11   H     H_    0.874815 0.059949 0.026366 0.259962
O10   O     O_3   0.827595 0.883080 0.435560 -0.620711
C32   C     C_3   0.741606 0.966515 0.404493 0.105011
H12   H     H_    0.719775 0.925922 0.344406 0.149119
H13   H     H_    0.800697 0.053511 0.379665 0.161078
C33   C     C_3   0.596161 0.986265 0.475334 -0.404164
H14   H     H_    0.513478 0.924304 0.461647 0.197295
H15   H     H_    0.603682 0.963962 0.543434 0.223551
C34   C     C_3   0.547517 0.118359 0.475078 -0.946806
H16   H     H_    0.623958 0.180610 0.494778 0.273159
H17   H     H_    0.439483 0.128320 0.523508 0.263799
H18   H     H_    0.542825 0.144676 0.407326 0.255765
O11   O     O_3   0.036901 0.916324 0.594828 -0.662121
C35   C     C_3   0.184505 0.894402 0.583257 0.081384
H19   H     H_    0.235637 0.983432 0.590933 0.156038
H20   H     H_    0.244419 0.861612 0.515249 0.145951
C36   C     C_3   0.200134 0.807993 0.657610 -0.327465
H21   H     H_    0.150164 0.850469 0.723941 0.217036
H22   H     H_    0.142429 0.720620 0.655428 0.239082
C37   C     C_3   0.357379 0.780911 0.649113 -0.935298
H23   H     H_    0.411484 0.741834 0.582282 0.253279
H24   H     H_    0.363552 0.713473 0.701448 0.265875
H25   H     H_    0.413864 0.866264 0.658819 0.249431
O12   O     O_3   0.112470 0.077160 0.402914 -0.631540
C38   C     C_3   0.252905 0.126667 0.382691 0.039797
H26   H     H_    0.328276 0.048567 0.366570 0.147172
H27   H     H_    0.277621 0.171491 0.440144 0.183197
C39   C     C_3   0.282345 0.208451 0.299214 -0.323279
H28   H     H_    0.287471 0.150638 0.239771 0.208223
H29   H     H_    0.192178 0.272815 0.306722 0.214462
C40   C     C_3   0.423009 0.280790 0.282886 -0.876174
H30   H     H_    0.418679 0.342248 0.340248 0.275677
H31   H     H_    0.441117 0.336907 0.221070 0.260544
H32   H     H_    0.515495 0.218238 0.273208 0.242973
O13   O     O_3   0.302262 0.339284 0.602220 -0.576879
C41   C     C_3   0.304862 0.334537 0.692659 0.040595
H33   H     H_    0.193114 0.349179 0.735420 0.170063
H34   H     H_    0.372378 0.406856 0.711646 0.115724
C42   C     C_3   0.351200 0.206907 0.713990 -0.367265
H35   H     H_    0.277687 0.137175 0.698615 0.230573
H36   H     H_    0.462395 0.188182 0.671890 0.212839
C43   C     C_3   0.346256 0.194630 0.812404 -0.934526
H37   H     H_    0.430649 0.253348 0.827062 0.260577
H38   H     H_    0.365617 0.097923 0.827529 0.262196
H39   H     H_    0.239092 0.221438 0.856174 0.256511
H40   H     H_    0.412440 0.564010 0.462240 0.145697
H41   H     H_    0.586702 0.364841 0.595121 0.171935
H42   H     H_    0.927446 0.442309 0.213943 0.175154
H43   H     H_    0.213899 0.448737 0.911166 0.172850
H44   H     H_    0.000000 0.599273 0.942864 0.179399
H45   H     H_    0.083402 0.540433 0.785349 0.163462
O14   O     O_3   0.637651 0.611726 0.758459 -0.629683
C44   C     C_3   0.681476 0.732251 0.727108 0.102862
H46   H     H_    0.645469 0.748627 0.666516 0.179085
H47   H     H_    0.800707 0.745126 0.705151 0.126810
C45   C     C_3   0.612471 0.828102 0.797814 -0.384392
H48   H     H_    0.493271 0.818771 0.816267 0.229193
H49   H     H_    0.647380 0.813262 0.859025 0.218334
C46   C     C_3   0.656602 0.957711 0.762888 -0.922009
H50   H     H_    0.775743 0.968032 0.742431 0.283108
H51   H     H_    0.610638 0.024809 0.816661 0.259259
H52   H     H_    0.616060 0.978291 0.704609 0.246336
O15   O     O_3   0.542742 0.652341 0.174536 -0.638492
C47   C     C_3   0.505018 0.777368 0.175397 0.054743
H53   H     H_    0.431894 0.796713 0.243163 0.173550
H54   H     H_    0.443495 0.799777 0.126819 0.130418
C48   C     C_3   0.639394 0.859611 0.158925 -0.361598
H55   H     H_    0.708932 0.825666 0.199438 0.231462
H56   H     H_    0.701806 0.856617 0.086962 0.208632
C49   C     C_3   0.599267 0.991972 0.184362 -0.953501
H57   H     H_    0.530413 0.028720 0.144399 0.269202
H58   H     H_    0.698246 0.049271 0.171642 0.252188
H59   H     H_    0.541054 0.997116 0.256765 0.249351
H60   H     H_    0.459089 0.481310 0.835177 0.190705

loop_
_geom_bond_atom_site_label_1
_geom_bond_atom_site_label_2
_ccdc_geom_bond_type
C34   H17   S    
C42   H35   S    
Cu1   O7    S    
C24   C27   A    
C4    C8    A    
C41   H33   S    
C40   H30   S    
C29   C30   S    
C26   C27   A    
C23   O7    A    
C37   H24   S    
Cu2   N2    S    
C33   C34   S    
C5    C11   A    
C3    C7    A    
C5    C6    A    
C32   H13   S    
C22   O6    A    
O14   C44   S    
C27   H45   S    
C43   H39   S    
C23   O8    A    
O10   C32   S    
C33   H15   S    
C18   C19   D    
C47   H53   S    
C48   C49   S    
C26   H44   S    
C45   H48   S    
C11   C15   A    
C8    H60   S    
C28   O14   S    
C16   C17   D    
C30   H8    S    
C37   H25   S    
C43   H38   S    
Cu1   O3    S    
N1    H40   S    
C44   H46   S    
Cu2   O6    S    
C9    C10   A    
C6    O15   S    
C31   H11   S    
C1    O2    A    
C46   H52   S    
C21   H41   S    
C34   H18   S    
C42   H36   S    
C13   C14   A    
C44   H47   S    
C31   H10   S    
C47   H54   S    
C40   H31   S    
C29   H6    S    
C17   O11   S    
C1    C19   S    
C37   H23   S    
O11   C35   S    
H2    N2    S    
C38   H27   S    
O12   C38   S    
C8    C9    A    
C32   C33   S    
O9    C29   S    
Cu1   N1    S    
C34   H16   S    
Cu2   O2    S    
C33   H14   S    
C47   C48   S    
C19   O12   S    
C2    C4    A    
C16   O10   S    
Cu1   Cu2   S    
C36   C37   S    
C41   H34   S    
Cu1   O1    S    
C9    H43   S    
C30   C31   S    
C22   O5    A    
C43   H37   S    
C7    H4    S    
C45   C46   S    
C48   H55   S    
C49   H59   S    
C35   H20   S    
C30   H7    S    
C42   C43   S    
C39   H29   S    
C44   C45   S    
Cu2   O8    S    
C31   H9    S    
C41   C42   S    
C49   H58   S    
C46   H50   S    
C40   H32   S    
C29   H5    S    
C35   H19   S    
C3    C26   A    
C24   C28   A    
C4    C5    A    
C10   C13   A    
C38   C39   S    
C6    C7    A    
C21   N2    D    
C39   C40   S    
C20   O13   S    
C12   C24   S    
C17   C22   S    
C12   O4    A    
C2    C3    A    
C20   N1    D    
C36   H21   S    
O15   C47   S    
C13   O9    S    
C32   H12   S    
C35   C36   S    
Cu1   O5    S    
Cu2   O4    S    
C23   C25   S    
C14   C25   A    
C12   O3    A    
C45   H49   S    
C48   H56   S    
C14   H42   S    
C10   C11   A    
C38   H26   S    
C20   C21   S    
C15   C25   A    
C16   C18   S    
C39   H28   S    
C36   H22   S    
C2    C28   A    
C18   H1    S    
O13   C41   S    
C15   H3    S    
C1    O1    A    
C49   H57   S    
C46   H51   S    
