data_mof_unit_56839.cif
_audit_creation_date              2012-12-10T20:31:04-0500
_audit_creation_method            fapswitch 2.2
_symmetry_space_group_name_H-M    P1
_symmetry_Int_Tables_number       1
_space_group_crystal_system       triclinic
_cell_length_a                    14.998002
_cell_length_b                    10.76564
_cell_length_c                    10.023443
_cell_angle_alpha                 90.420937
_cell_angle_beta                  90.189645
_cell_angle_gamma                 92.962785
_cell_volume                      1616.19812408

loop_
_atom_site_label
_atom_site_type_symbol
_atom_type_description
_atom_site_fract_x
_atom_site_fract_y
_atom_site_fract_z
_atom_type_partial_charge
C1    C     C_R   0.498115 0.260472 0.499686 0.991703
C2    C     C_R   0.913393 0.616027 0.506887 0.047282
C3    C     C_R   0.948988 0.275838 0.502733 -0.062899
C4    C     C_R   0.041293 0.276334 0.500111 -0.157663
C5    C     C_R   0.091089 0.388911 0.493756 0.074131
C6    C     C_R   0.048699 0.502522 0.497029 0.084456
C7    C     C_R   0.099996 0.616375 0.498905 0.122346
C8    C     C_R   0.058173 0.728780 0.499078 -0.159862
C9    C     C_R   0.965796 0.728836 0.501809 -0.114980
C10   C     C_R   0.183067 0.389840 0.488613 -0.054554
C11   C     C_R   0.232892 0.502165 0.496681 -0.015015
C12   C     C_R   0.327696 0.501016 0.499397 0.917880
C13   C     C_R   0.192507 0.615429 0.500407 -0.262887
C14   C     C_R   0.447202 0.056791 0.589767 0.106131
C15   C     C_R   0.494034 0.127844 0.495562 -0.142196
C16   C     C_R   0.530578 0.068767 0.385557 -0.216479
C17   C     C_R   0.535325 0.940608 0.381055 0.418914
C18   C     C_R   0.500757 0.871165 0.492008 -0.188212
C19   C     C_R   0.451080 0.930539 0.587883 -0.000711
C20   C     C_3   0.447416 0.920315 0.735934 -0.355488
C21   C     C_3   0.443479 0.060660 0.738490 -0.404472
C22   C     C_R   0.427979 0.451311 0.069641 0.079872
C23   C     C_R   0.502992 0.739379 0.498875 0.968278
C24   C     C_R   0.570015 0.547400 0.075283 -0.001734
C25   C     C_R   0.570745 0.551038 0.934030 0.401039
C26   C     C_R   0.425396 0.459330 0.928137 0.042350
C27   C     C_3   0.378814 0.334855 0.912388 0.168185
C28   C     C_3   0.392377 0.316758 0.062958 0.142822
C29   C     C_R   0.673071 0.500104 0.499837 1.027533
C30   C     C_R   0.820379 0.614556 0.520450 -0.127966
C31   C     C_R   0.769814 0.501139 0.498036 -0.240196
C32   C     C_R   0.812010 0.388284 0.474348 0.369017
C33   C     C_R   0.904807 0.387538 0.491623 0.006612
C34   C     C_R   0.955365 0.502072 0.498326 0.013473
H1    H     H_    0.384725 0.871164 0.770301 0.224337
H2    H     H_    0.509460 0.887901 0.781048 0.235668
H3    H     H_    0.377771 0.089410 0.774901 0.246460
H4    H     H_    0.503704 0.108386 0.784386 0.223443
H5    H     H_    0.627105 0.581144 0.132759 0.230091
H6    H     H_    0.420191 0.277485 0.848453 0.069879
H7    H     H_    0.913358 0.187581 0.518201 0.211242
H8    H     H_    0.073736 0.188783 0.505098 0.167638
H9    H     H_    0.215652 0.302838 0.482168 0.206804
H10   H     H_    0.233095 0.701848 0.504151 0.143189
H11   H     H_    0.096840 0.816658 0.497237 0.160039
H12   H     H_    0.936172 0.818195 0.497744 0.169586
H13   H     H_    0.559526 0.123064 0.305619 0.269285
N1    N     N_R   0.499390 0.499140 0.142800 -0.136142
N2    N     N_R   0.499390 0.499180 0.857150 -0.191412
O1    O     O_R   0.500010 0.316790 0.614690 -0.634949
O2    O     O_R   0.500000 0.316760 0.385350 -0.572277
O3    O     O_R   0.367850 0.499990 0.614680 -0.570630
O4    O     O_R   0.367840 0.499950 0.385340 -0.570075
O5    O     O_R   0.500000 0.683240 0.614650 -0.588386
O6    O     O_R   0.499990 0.683210 0.385310 -0.562658
O7    O     O_R   0.632160 0.500050 0.614660 -0.542814
O8    O     O_R   0.632150 0.500010 0.385320 -0.573127
Zn1   Zn    Zn3+2 0.500010 0.500020 0.653130 1.079658
Zn2   Zn    Zn3+2 0.499990 0.499980 0.346870 1.120035
C35   C     C_2   0.778387 0.730457 0.563847 1.002814
O9    O     O_2   0.709015 0.761006 0.513295 -0.617105
O10   O     O_R   0.818715 0.804773 0.664633 -0.743099
H14   H     H_    0.786832 0.884190 0.681153 0.358958
S1    S     S_3+6 0.584850 0.877652 0.235040 0.041212
O11   O     O_2   0.512143 0.819238 0.148129 -0.289699
O12   O     O_2   0.633613 0.978844 0.157154 -0.299593
O13   O     O_3   0.657152 0.768974 0.271437 -0.512453
H15   H     H_    0.717045 0.806638 0.250237 0.390479
S2    S     S_3+6 0.667421 0.630580 0.870621 0.085157
O14   O     O_2   0.715910 0.703368 0.979930 -0.282487
O15   O     O_2   0.730938 0.539710 0.816105 -0.248398
O16   O     O_3   0.638480 0.731597 0.754657 -0.529629
H16   H     H_    0.650286 0.814990 0.795191 0.370501
S3    S     S_3+6 0.268906 0.346454 0.841296 0.091728
O17   O     O_2   0.272759 0.285949 0.706667 -0.371547
O18   O     O_2   0.194669 0.280610 0.916641 -0.171182
O19   O     O_3   0.245138 0.496686 0.825429 -0.515940
H17   H     H_    0.184328 0.494675 0.786341 0.377595
S4    S     S_3+6 0.296962 0.281430 0.167336 0.108319
O20   O     O_2   0.235550 0.387438 0.169283 -0.213130
O21   O     O_2   0.247032 0.164795 0.119117 -0.213599
O22   O     O_3   0.331528 0.254344 0.323039 -0.600508
H18   H     H_    0.337834 0.163340 0.327523 0.360759
S5    S     S_3+6 0.749732 0.251530 0.416555 0.013326
O23   O     O_2   0.702453 0.192089 0.533580 -0.356170
O24   O     O_2   0.682682 0.286019 0.313847 -0.248459
O25   O     O_3   0.813925 0.147336 0.342978 -0.536249
H19   H     H_    0.775811 0.069508 0.337311 0.401589
C36   C     C_2   0.461160 0.220506 0.081652 0.795451
O26   O     O_2   0.539883 0.250955 0.100578 -0.578983
O27   O     O_R   0.434307 0.095238 0.064714 -0.757790
H20   H     H_    0.486518 0.039921 0.059806 0.396535

loop_
_geom_bond_atom_site_label_1
_geom_bond_atom_site_label_2
_ccdc_geom_bond_type
C22   N1    A    
O25   H19   S    
O6    Zn2   S    
C19   C20   S    
S5    O25   S    
O4    Zn2   S    
C7    C8    A    
O19   H17   S    
C26   C27   S    
S3    O18   D    
N1    Zn2   S    
C14   C21   S    
S5    O24   D    
C17   S1    S    
C5    C6    A    
O8    Zn2   S    
C3    C33   A    
C15   C16   A    
C24   H5    S    
C35   O10   S    
C18   C19   A    
S2    O15   D    
C28   S4    S    
C8    H11   S    
C20   H1    S    
C21   H4    S    
C8    C9    A    
S3    O19   S    
C30   C35   S    
C28   C36   S    
C1    C15   S    
C36   O27   S    
C27   S3    S    
C1    O1    A    
C12   O4    A    
C2    C34   A    
C9    H12   S    
C22   C28   S    
C16   H13   S    
C12   O3    A    
C17   C18   A    
C32   S5    S    
S3    O17   D    
C18   C23   S    
O1    Zn1   S    
S1    O13   S    
C24   C25   A    
C26   N2    A    
O27   H20   S    
S4    O21   D    
C16   C17   A    
N2    Zn1   S    
O13   H15   S    
C35   O9    D    
C24   N1    A    
S2    O16   S    
O10   H14   S    
C31   C32   A    
C7    C13   A    
C27   H6    S    
C33   C34   A    
C21   H3    S    
S5    O23   D    
C1    O2    A    
O3    Zn1   S    
C29   O8    A    
C25   S2    S    
C3    C4    A    
C23   O5    A    
O5    Zn1   S    
C3    H7    S    
C10   H9    S    
C14   C19   A    
O16   H16   S    
S4    O22   S    
C11   C12   S    
C23   O6    A    
C6    C7    A    
C29   O7    A    
C2    C30   A    
C32   C33   A    
C5    C10   A    
C29   C31   S    
S1    O11   D    
C11   C13   A    
C30   C31   A    
C4    H8    S    
O7    Zn1   S    
S2    O14   D    
C25   N2    A    
C10   C11   A    
S4    O20   D    
C20   H2    S    
C6    C34   A    
C4    C5    A    
O2    Zn2   S    
C20   C21   S    
O22   H18   S    
C22   C26   A    
C27   C28   S    
C14   C15   A    
C36   O26   D    
C2    C9    A    
C13   H10   S    
S1    O12   D    
