data_mof_unit_54177.cif
_audit_creation_date              2012-12-11T16:04:58-0500
_audit_creation_method            fapswitch 2.2
_symmetry_space_group_name_H-M    P1
_symmetry_Int_Tables_number       1
_space_group_crystal_system       triclinic
_cell_length_a                    10.605895
_cell_length_b                    10.584447
_cell_length_c                    16.88675
_cell_angle_alpha                 98.465291
_cell_angle_beta                  98.657953
_cell_angle_gamma                 62.287091
_cell_volume                      1652.61930781

loop_
_atom_site_label
_atom_site_type_symbol
_atom_type_description
_atom_site_fract_x
_atom_site_fract_y
_atom_site_fract_z
_atom_type_partial_charge
C1    C     C_R   0.354406 0.776403 0.398826 0.546140
C2    C     C_3   0.640714 0.433897 0.233028 -0.162432
C3    C     C_3   0.746207 0.384967 0.308034 0.040460
C4    C     C_3   0.827723 0.236738 0.264784 -0.002371
C5    C     C_3   0.926903 0.288100 0.237775 -0.128048
C6    C     C_3   0.843732 0.437957 0.280748 -0.109260
C7    C     C_3   0.738988 0.487400 0.204993 -0.122258
C8    C     C_3   0.821851 0.338016 0.162514 0.044511
C9    C     C_3   0.391191 0.768802 0.201189 -0.122373
C10   C     C_3   0.275706 0.773139 0.248085 -0.100451
C11   C     C_3   0.335564 0.835975 0.323448 0.056380
C12   C     C_R   0.371824 0.347983 0.358432 0.530186
C13   C     C_3   0.452704 0.829860 0.277338 -0.115576
C14   C     C_3   0.350457 0.984433 0.255310 -0.137605
C15   C     C_3   0.234171 0.988870 0.303071 -0.134814
C16   C     C_3   0.173947 0.926482 0.226937 -0.102011
C17   C     C_3   0.289753 0.921537 0.180889 0.042159
C18   C     C_3   0.459756 0.270657 0.777182 -0.118048
C19   C     C_3   0.391029 0.410117 0.734955 -0.112499
C20   C     C_3   0.337620 0.333506 0.663361 0.053945
C21   C     C_3   0.406328 0.194908 0.704958 -0.110082
C22   C     C_3   0.263976 0.246400 0.741581 -0.106926
C23   C     C_R   0.706898 0.414973 0.390234 0.559517
C24   C     C_3   0.195469 0.385976 0.698810 -0.119566
C25   C     C_3   0.248707 0.461436 0.772009 -0.118699
C26   C     C_3   0.318328 0.322217 0.813108 0.053298
C27   C     C_1   0.767458 0.367641 0.715610 -0.045999
C28   C     C_1   0.812368 0.329866 0.782310 -0.049068
C29   C     C_1   0.338608 0.812320 0.709801 -0.050800
C30   C     C_1   0.313408 0.838936 0.778572 -0.048476
C31   C     C_R   0.884818 0.312995 0.087707 0.538171
C32   C     C_R   0.320096 0.300512 0.119681 0.529996
C33   C     C_R   0.256463 0.961079 0.099054 0.558732
C34   C     C_R   0.356614 0.772306 0.627151 0.541916
C35   C     C_R   0.878300 0.302226 0.862213 0.543679
C36   C     C_R   0.308441 0.294548 0.892207 0.542115
C37   C     C_R   0.280265 0.884006 0.859106 0.553844
C38   C     C_R   0.367216 0.345332 0.585143 0.537341
C39   C     C_R   0.717506 0.410458 0.635683 0.551551
C40   C     C_1   0.346138 0.339679 0.274511 -0.064905
C41   C     C_1   0.334258 0.329420 0.203190 -0.060550
C42   C     C_3   0.724288 0.283780 0.188519 -0.134892
Cr1   Cr    Cr6+3 0.608340 0.611040 0.520430 1.017036
Cr2   Cr    Cr6+3 0.287650 0.601120 0.489350 1.033242
Cr3   Cr    Cr6+3 0.604040 0.287870 0.490280 1.046074
Cr4   Cr    Cr6+3 0.054020 0.052700 0.970850 1.018264
Cr5   Cr    Cr6+3 0.059230 0.375120 0.993390 1.026892
Cr6   Cr    Cr6+3 0.374950 0.061200 0.992340 1.021848
H1    H     H_    0.523119 0.489399 0.234713 0.100995
H2    H     H_    0.383431 0.069267 0.255685 0.133667
H3    H     H_    0.171736 0.076802 0.347243 0.125065
H4    H     H_    0.062320 0.962591 0.199830 0.140811
H5    H     H_    0.443433 0.477974 0.730098 0.101583
H6    H     H_    0.567320 0.225687 0.811001 0.126578
H7    H     H_    0.468869 0.085924 0.675776 0.133811
H8    H     H_    0.211197 0.178955 0.746665 0.121300
H9    H     H_    0.088374 0.430982 0.664520 0.144536
H10   H     H_    0.186290 0.569921 0.801749 0.134654
H11   H     H_    0.676690 0.220419 0.148966 0.135016
H12   H     H_    0.044619 0.232028 0.236745 0.100466
H13   H     H_    0.893141 0.501045 0.318914 0.143339
H14   H     H_    0.704884 0.589592 0.178479 0.128689
H15   H     H_    0.245256 0.685435 0.246181 0.132083
H16   H     H_    0.449916 0.683637 0.154900 0.122767
H17   H     H_    0.567399 0.789228 0.299955 0.133354
O1    O     O_R   0.751220 0.499230 0.435170 -0.515190
O2    O     O_R   0.297880 0.469080 0.560050 -0.499231
O3    O     O_R   0.489720 0.254590 0.564810 -0.521101
O4    O     O_R   0.725220 0.304230 0.585080 -0.478255
O5    O     O_3   0.500010 0.500010 0.500020 -0.302988
O6    O     O_R   0.171830 0.913880 0.057510 -0.517246
O7    O     O_R   0.940690 0.186050 0.054730 -0.525448
O8    O     O_R   0.920470 0.405720 0.075010 -0.511676
O9    O     O_R   0.196690 0.370460 0.084120 -0.494418
O10   O     O_R   0.412990 0.180750 0.091610 -0.525555
O11   O     O_R   0.366620 0.943130 0.065760 -0.495957
O12   O     O_R   0.477220 0.727600 0.436870 -0.523096
O13   O     O_R   0.160510 0.906330 0.879210 -0.504988
O14   O     O_R   0.930190 0.179050 0.889450 -0.496089
O15   O     O_R   0.909140 0.398170 0.896710 -0.504996
O16   O     O_R   0.186190 0.363460 0.918830 -0.497001
O17   O     O_R   0.401670 0.173200 0.913310 -0.516009
O18   O     O_R   0.356120 0.936130 0.900470 -0.489930
O19   O     O_3   0.162740 0.163010 0.985530 -0.277087
O20   O     O_R   0.258650 0.745120 0.411470 -0.495839
O21   O     O_R   0.297070 0.467240 0.395960 -0.499855
O22   O     O_R   0.488830 0.252610 0.387790 -0.511597
O23   O     O_R   0.724400 0.302390 0.420980 -0.477359
O24   O     O_R   0.752100 0.501210 0.612190 -0.500607
O25   O     O_R   0.478040 0.729440 0.600970 -0.512143
O26   O     O_R   0.259530 0.747110 0.588490 -0.497680
C43   C     C_1   0.869285 0.101226 0.298739 0.209170
N1    N     N_1   0.901231 0.994862 0.325722 -0.286130

loop_
_geom_bond_atom_site_label_1
_geom_bond_atom_site_label_2
_ccdc_geom_bond_type
C18   C21   S    
C1    O12   A    
Cr6   O11   S    
C3    C23   S    
C2    C7    S    
C1    C11   S    
C3    C6    S    
C32   O10   A    
C7    C8    S    
C13   H17   S    
Cr1   O24   S    
C6    H13   S    
Cr3   O22   S    
C8    C42   S    
C32   O9    A    
C5    C6    S    
C31   O8    A    
C15   C16   S    
C9    H16   S    
C35   O15   A    
C18   C19   S    
C9    C13   S    
C34   O26   A    
C11   C15   S    
C10   H15   S    
C19   C20   S    
C28   C35   S    
C36   O17   A    
C24   H9    S    
C18   C26   S    
C32   C41   S    
Cr2   O5    S    
C15   H3    S    
C9    C10   S    
Cr4   O7    S    
C5    H12   S    
C19   H5    S    
C21   C22   S    
Cr6   O10   S    
C17   C33   S    
Cr5   O15   S    
Cr2   O21   S    
C1    O20   A    
Cr1   O25   S    
C14   H2    S    
Cr3   O4    S    
C20   C24   S    
Cr3   O23   S    
C24   C25   S    
Cr5   O8    S    
C27   C39   S    
Cr4   O13   S    
C18   H6    S    
C16   C17   S    
C22   H8    S    
C25   C26   S    
C29   C34   S    
Cr6   O19   S    
C30   C37   S    
C12   C40   S    
C34   O25   A    
C7    H14   S    
C29   C30   T    
C2    H1    S    
C20   C38   S    
C33   O11   A    
C36   O16   A    
Cr3   O3    S    
C39   O4    A    
Cr5   O19   S    
C20   C21   S    
Cr4   O6    S    
Cr2   O26   S    
Cr4   O19   S    
C9    C17   S    
C31   O7    A    
C38   O3    A    
Cr1   O5    S    
C23   O23   A    
C22   C24   S    
C25   H10   S    
C3    C4    S    
C23   O1    A    
C21   H7    S    
C26   C36   S    
C40   C41   T    
C12   O22   A    
Cr3   O5    S    
C8    C31   S    
C16   H4    S    
Cr5   O9    S    
C4    C5    S    
C42   H11   S    
C5    C8    S    
C6    C7    S    
Cr1   O12   S    
C37   O13   A    
Cr6   O18   S    
C12   O21   A    
C2    C3    S    
C10   C16   S    
C11   C13   S    
Cr4   O14   S    
C4    C42   S    
C2    C42   S    
Cr1   O1    S    
C35   O14   A    
C43   N1    T    
Cr6   O17   S    
Cr5   O16   S    
C19   C25   S    
C10   C11   S    
C33   O6    A    
C38   O2    A    
C22   C26   S    
C27   C28   T    
C14   C15   S    
C37   O18   A    
Cr2   O2    S    
C13   C14   S    
C39   O24   A    
Cr2   O20   S    
C4    C43   S    
C14   C17   S    
