data_mof_unit_38425.cif
_audit_creation_date              2012-12-10T20:28:43-0500
_audit_creation_method            fapswitch 2.2
_symmetry_space_group_name_H-M    P1
_symmetry_Int_Tables_number       1
_space_group_crystal_system       triclinic
_cell_length_a                    10.721571
_cell_length_b                    10.768602
_cell_length_c                    9.961022
_cell_angle_alpha                 90.150022
_cell_angle_beta                  86.542564
_cell_angle_gamma                 90.247918
_cell_volume                      1147.95584542

loop_
_atom_site_label
_atom_site_type_symbol
_atom_type_description
_atom_site_fract_x
_atom_site_fract_y
_atom_site_fract_z
_atom_type_partial_charge
Br1   Br    Br    0.691204 0.684470 0.820850 -0.518258
Br2   Br    Br    0.157514 0.658021 0.803864 -0.577520
C1    C     C_R   0.504032 0.260518 0.499309 0.853451
C2    C     C_R   0.509048 0.935894 0.376337 -0.225662
C3    C     C_R   0.515349 0.872345 0.498707 -0.102330
C4    C     C_R   0.258897 0.509311 0.503917 0.897788
C5    C     C_R   0.545853 0.938487 0.613671 0.126441
C6    C     C_3   0.495862 0.939022 0.758691 -0.085222
C7    C     C_3   0.499900 0.079916 0.753162 -0.038856
C8    C     C_R   0.443809 0.406098 0.074506 0.171533
C9    C     C_R   0.573141 0.581522 0.066416 0.131606
C10   C     C_R   0.574387 0.579640 0.922632 0.296192
C11   C     C_R   0.445052 0.405579 0.932847 0.084716
C12   C     C_R   0.046470 0.484771 0.624315 0.047567
C13   C     C_3   0.313051 0.364973 0.933758 -0.481857
C14   C     C_3   0.309223 0.369046 0.086576 -0.040857
C15   C     C_R   0.501614 0.740001 0.500229 0.918389
C16   C     C_R   0.738893 0.483613 0.495654 0.900297
C17   C     C_R   0.076458 0.507720 0.757265 0.248059
C18   C     C_R   0.016067 0.441150 0.862485 -0.183843
C19   C     C_R   0.919360 0.358749 0.837222 0.237422
C20   C     C_R   0.870893 0.360079 0.710169 -0.137681
C21   C     C_R   0.929617 0.431794 0.606028 -0.006444
C22   C     C_3   0.594490 0.136301 0.844619 -0.913513
C23   C     C_R   0.122485 0.517447 0.508948 -0.130650
C24   C     C_3   0.652943 0.677682 0.130355 -0.770764
C25   C     C_3   0.286388 0.242295 0.152424 -0.850411
C26   C     C_3   0.862853 0.276489 0.945792 -0.930080
C27   C     C_3   0.906135 0.478256 0.229949 -0.870045
C28   C     C_3   0.364387 0.887792 0.784637 -0.805225
C29   C     C_R   0.069280 0.525179 0.384628 -0.202836
C30   C     C_R   0.946325 0.491663 0.370922 0.182514
C31   C     C_R   0.872287 0.457879 0.486515 -0.121988
C32   C     C_R   0.550283 0.065778 0.611044 0.077482
C33   C     C_R   0.522076 0.129423 0.495614 -0.119084
C34   C     C_R   0.513308 0.064196 0.374580 -0.211610
H1    H     H_    0.125350 0.551269 0.294935 0.173255
H2    H     H_    0.492637 0.887817 0.283522 0.175900
H3    H     H_    0.685419 0.087527 0.831536 0.253854
H4    H     H_    0.609217 0.235641 0.820391 0.268328
H5    H     H_    0.558661 0.128406 0.951175 0.243115
H6    H     H_    0.667431 0.660194 0.235770 0.288363
H7    H     H_    0.748308 0.678805 0.081275 0.241056
H8    H     H_    0.611205 0.770840 0.119142 0.222096
H9    H     H_    0.352798 0.171772 0.109149 0.234888
H10   H     H_    0.296777 0.249821 0.262261 0.262207
H11   H     H_    0.189564 0.211126 0.136310 0.242382
H12   H     H_    0.562061 0.900537 0.828716 0.228809
H13   H     H_    0.919343 0.276190 0.035163 0.241269
H14   H     H_    0.766702 0.307886 0.975891 0.250309
H15   H     H_    0.861017 0.179477 0.908599 0.249238
H16   H     H_    0.895365 0.570983 0.184739 0.254512
H17   H     H_    0.981160 0.428169 0.171900 0.214810
H18   H     H_    0.821551 0.420183 0.221467 0.267730
H19   H     H_    0.372782 0.786896 0.800803 0.303963
H20   H     H_    0.320417 0.929081 0.878123 0.246604
H21   H     H_    0.304951 0.906713 0.699412 0.258541
H22   H     H_    0.407036 0.125552 0.760894 0.182858
H23   H     H_    0.257346 0.437465 0.890456 0.223322
H24   H     H_    0.301789 0.271178 0.889794 0.203976
H25   H     H_    0.247641 0.443327 0.130127 0.179176
H26   H     H_    0.043273 0.456688 0.963392 0.155930
H27   H     H_    0.788747 0.305241 0.691877 0.146786
H28   H     H_    0.500687 0.111368 0.280587 0.174627
N1    N     N_R   0.499160 0.499140 0.142800 -0.140001
N2    N     N_R   0.499160 0.499180 0.857150 -0.138590
O1    O     O_R   0.500020 0.316790 0.614690 -0.629096
O2    O     O_R   0.500000 0.316760 0.385350 -0.624746
O3    O     O_R   0.316770 0.500020 0.614690 -0.587901
O4    O     O_R   0.316760 0.499980 0.385350 -0.629526
O5    O     O_R   0.500000 0.683240 0.614650 -0.569786
O6    O     O_R   0.499980 0.683210 0.385310 -0.638946
O7    O     O_R   0.683240 0.500020 0.614650 -0.568823
O8    O     O_R   0.683230 0.499980 0.385310 -0.637925
Zn1   Zn    Zn3+2 0.500010 0.500020 0.653130 0.991665
Zn2   Zn    Zn3+2 0.499990 0.499980 0.346870 0.937053

loop_
_geom_bond_atom_site_label_1
_geom_bond_atom_site_label_2
_ccdc_geom_bond_type
C23   C29   A    
C4    O3    A    
C2    C34   A    
C13   H24   S    
C1    O2    A    
O6    Zn2   S    
C24   H8    S    
C5    C6    S    
N1    Zn2   S    
O8    Zn2   S    
C32   C33   A    
C27   C30   S    
C26   H15   S    
C4    C23   S    
C3    C15   S    
C27   H18   S    
C13   C14   S    
C28   H21   S    
C22   H3    S    
C7    H22   S    
C20   H27   S    
C26   H14   S    
C17   C18   A    
C6    C7    S    
C21   C31   A    
C25   H9    S    
C14   C25   S    
C16   O8    A    
C19   C20   A    
C22   H5    S    
O7    Zn1   S    
Br1   C10   S    
C24   H7    S    
C11   N2    A    
C3    C5    A    
C9    C24   S    
C10   N2    A    
C29   H1    S    
C27   H17   S    
C33   C34   A    
C12   C21   A    
C6    H12   S    
C26   H13   S    
C29   C30   A    
C1    C33   S    
C25   H10   S    
C19   C26   S    
C2    H2    S    
C15   O5    A    
C16   O7    A    
C11   C13   S    
O4    Zn2   S    
C7    C32   S    
C5    C32   A    
O1    Zn1   S    
C14   H25   S    
C24   H6    S    
C8    N1    A    
C25   H11   S    
C4    O4    A    
Br2   C17   S    
C13   H23   S    
C12   C17   A    
C1    O1    A    
C2    C3    A    
C8    C11   A    
C9    C10   A    
C7    C22   S    
O2    Zn2   S    
C28   H19   S    
C6    C28   S    
C30   C31   A    
C8    C14   S    
O5    Zn1   S    
C28   H20   S    
N2    Zn1   S    
C22   H4    S    
O3    Zn1   S    
C12   C23   A    
C18   H26   S    
C16   C31   S    
C18   C19   A    
C15   O6    A    
C20   C21   A    
C34   H28   S    
C9    N1    A    
C27   H16   S    
