data_mof_unit_46533.cif
_audit_creation_date              2013-03-05T16:00:37-0500
_audit_creation_method            fapswitch 2.2
_symmetry_space_group_name_H-M    P1
_symmetry_Int_Tables_number       1
_space_group_crystal_system       triclinic
_cell_length_a                    10.76211
_cell_length_b                    14.72408
_cell_length_c                    14.74054
_cell_angle_alpha                 64.935498
_cell_angle_beta                  103.909376
_cell_angle_gamma                 103.205648
_cell_volume                      2032.41061718

loop_
_atom_site_label
_atom_site_type_symbol
_atom_site_description
_atom_site_fract_x
_atom_site_fract_y
_atom_site_fract_z
_atom_type_partial_charge
O1    O     O_R   0.455060 0.022100 0.338110 -0.631100
O2    O     O_R   0.512640 0.160150 0.379180 -0.499679
C1    C     C_R   0.483625 0.119580 0.312423 0.832983
O3    O     O_R   0.288900 0.930980 0.479450 -0.630327
O4    O     O_R   0.346480 0.069030 0.520520 -0.524525
C2    C     C_R   0.260173 0.000854 0.499004 0.799673
Cu1   Cu    Cu3+1 0.465900 0.918260 0.475680 0.963036
Cu2   Cu    Cu3+1 0.534100 0.081740 0.524320 1.059563
O5    O     O_R   0.487360 0.839850 0.620820 -0.591668
O6    O     O_R   0.544940 0.977900 0.661890 -0.588575
O7    O     O_R   0.653520 0.930970 0.479480 -0.539903
O8    O     O_R   0.711100 0.069020 0.520550 -0.530212
C3    C     C_R   0.522188 0.880092 0.687829 0.808234
C4    C     C_R   0.740045 0.999666 0.500336 0.813176
C5    C     C_3   0.039236 0.992106 0.401708 -0.412576
H1    H     H_    0.048321 0.919790 0.398642 0.239569
H2    H     H_    0.078474 0.052994 0.334622 0.187920
C6    C     C_3   0.894307 0.993679 0.398797 0.428204
H3    H     H_    0.080297 0.837776 0.580755 0.121698
C7    C     C_3   0.074914 0.906536 0.592782 -0.225228
C8    C     C_3   0.103938 0.100562 0.503194 -0.329749
C9    C     C_3   0.122761 0.000244 0.500383 -0.102407
H4    H     H_    0.167177 0.113719 0.569464 0.271818
H5    H     H_    0.132813 0.165775 0.434220 0.187337
C10   C     C_3   0.878193 0.999245 0.499846 -0.206391
C11   C     C_3   0.931764 0.908539 0.595813 -0.134539
C12   C     C_3   0.962289 0.098843 0.506862 0.395168
H6    H     H_    0.926334 0.166383 0.442744 0.164446
H7    H     H_    0.927811 0.922583 0.663590 0.245184
C13   C     C_R   0.477093 0.186503 0.204327 -0.051514
C14   C     C_R   0.535247 0.811036 0.795443 -0.056353
C15   C     C_R   0.378342 0.215944 0.028937 0.007931
C16   C     C_R   0.395091 0.152628 0.131989 -0.296779
C17   C     C_R   0.542668 0.286741 0.172896 -0.066342
C18   C     C_R   0.501819 0.356097 0.074074 0.004807
C19   C     C_R   0.441721 0.317763 0.998122 0.134318
C20   C     C_R   0.519165 0.462140 0.048436 -0.033807
C21   C     C_R   0.509638 0.529425 0.945146 0.095468
C22   C     C_R   0.484176 0.487448 0.870907 -0.231053
C23   C     C_R   0.449932 0.383250 0.895832 0.001211
C24   C     C_R   0.534863 0.501289 0.123547 -0.286249
C25   C     C_R   0.553256 0.604841 0.099377 0.643582
C26   C     C_R   0.551150 0.672971 0.998412 0.016164
C27   C     C_R   0.527442 0.635897 0.920231 0.018488
C28   C     C_R   0.569048 0.777888 0.974158 -0.070193
C29   C     C_R   0.561651 0.846499 0.873316 -0.182513
C30   C     C_R   0.518721 0.706807 0.819468 -0.146575
H8    H     H_    0.497264 0.682877 0.757369 0.155422
H9    H     H_    0.574723 0.926884 0.856311 0.176462
H10   H     H_    0.341337 0.076797 0.156181 0.150691
H11   H     H_    0.491491 0.533316 0.792419 0.122995
H12   H     H_    0.530155 0.451615 0.202041 0.170429
H13   H     H_    0.587627 0.807128 0.033080 0.207953
N1    N     N_R   0.585360 0.204570 0.560800 -0.222181
N2    N     N_R   0.414550 0.795430 0.439160 -0.248764
C31   C     C_R   0.719816 0.284545 0.668435 -0.183111
C32   C     C_R   0.684577 0.203380 0.637939 0.009838
C33   C     C_R   0.519649 0.285566 0.509638 0.763076
C34   C     C_R   0.557922 0.374491 0.531972 -0.164280
C35   C     C_R   0.655855 0.370043 0.616702 -0.037917
C36   C     C_R   0.500752 0.465644 0.475941 0.000166
C37   C     C_R   0.529357 0.545320 0.512852 0.023681
C38   C     C_R   0.622838 0.534499 0.600739 -0.299191
C39   C     C_R   0.687290 0.449989 0.649913 0.656590
C40   C     C_R   0.420565 0.481697 0.381588 -0.177355
C41   C     C_R   0.353326 0.563467 0.332720 0.717464
C42   C     C_R   0.369282 0.636791 0.373196 -0.150742
C43   C     C_R   0.462919 0.632659 0.460211 -0.123340
C44   C     C_R   0.293596 0.714978 0.326469 0.619648
C45   C     C_R   0.313699 0.792281 0.362134 0.011120
C46   C     C_R   0.486015 0.717028 0.489080 0.046237
H14   H     H_    0.561793 0.722765 0.549887 0.167891
H15   H     H_    0.796570 0.280039 0.732408 0.229146
H16   H     H_    0.734562 0.137849 0.677682 0.193158
H17   H     H_    0.649075 0.590851 0.633141 0.181185
H18   H     H_    0.410676 0.433714 0.341213 0.220051
F1    F     F_    0.955491 0.107366 0.595808 -0.616877
C47   C     C_2   0.161868 0.896775 0.693107 0.406672
H19   H     H_    0.222279 0.837026 0.729944 0.062625
O9    O     O_2   0.167333 0.955946 0.732592 -0.478942
C48   C     C_2   0.442080 0.346736 0.814589 0.476970
H20   H     H_    0.414319 0.395252 0.735677 0.060406
O10   O     O_2   0.473622 0.265019 0.834211 -0.529166
F2    F     F_    0.570631 0.638238 0.175110 -0.646499
C49   C     C_2   0.277595 0.176468 0.960957 0.481655
H21   H     H_    0.258237 0.095704 0.978131 0.098611
O11   O     O_2   0.210134 0.232329 0.889078 -0.509696
C50   C     C_2   0.669241 0.315375 0.231048 0.405140
H22   H     H_    0.720960 0.391642 0.202312 0.114032
O12   O     O_2   0.722924 0.253503 0.307237 -0.551416
F3    F     F_    0.778659 0.445217 0.732799 -0.635637
C51   C     C_2   0.223144 0.868719 0.313832 0.426965
H23   H     H_    0.249943 0.944387 0.310908 0.097928
O13   O     O_2   0.112548 0.847089 0.275591 -0.466527
F4    F     F_    0.274046 0.571055 0.243595 -0.569731
F5    F     F_    0.411163 0.274308 0.444006 -0.683239
C52   C     C_2   0.839419 0.079400 0.305547 0.413830
H24   H     H_    0.735411 0.074217 0.281401 0.105591
O14   O     O_2   0.908360 0.154833 0.257740 -0.538852
F6    F     F_    0.200521 0.716997 0.244960 -0.543779
F7    F     F_    0.824671 0.904832 0.391067 -0.661585
C53   C     C_2   0.851457 0.806002 0.609547 0.386797
H25   H     H_    0.848010 0.770260 0.557887 0.163259
O15   O     O_2   0.791450 0.761318 0.680496 -0.556575

loop_
_geom_bond_atom_site_label_1
_geom_bond_atom_site_label_2
_geom_bond_distance
_ccdc_geom_bond_type
C5    C6    1.555207 S    
C22   H11   1.076264 S    
C24   C25   1.388014 A    
C50   O12   1.219281 D    
C18   C19   1.418035 A    
Cu1   N2    2.022697 S    
C52   H24   1.085304 S    
Cu1   Cu2   2.692380 S    
C28   C29   1.394271 A    
Cu1   O7    1.974115 S    
C29   H9    1.083067 S    
C20   C21   1.415445 A    
C40   H18   1.075236 S    
C38   H17   1.077136 S    
C15   C19   1.422643 A    
C18   C20   1.419985 A    
C44   C45   1.399466 A    
C21   C22   1.416391 A    
O7    C4    1.296238 A    
C47   O9    1.221079 D    
C5    H1    1.111664 S    
C2    C9    1.481786 S    
C31   C32   1.392945 A    
Cu1   O5    1.937766 S    
C17   C18   1.412423 A    
O5    C3    1.297550 A    
C33   F5    1.353136 S    
C16   H10   1.084065 S    
C52   O14   1.221647 D    
C5    C9    1.551736 S    
H3    C7    1.115182 S    
C14   C29   1.397965 A    
C6    C52   1.520441 S    
C24   H12   1.081892 S    
C27   C30   1.403160 A    
C41   C42   1.401043 A    
C8    C12   1.532431 S    
C28   H13   1.083384 S    
C34   C35   1.415772 A    
C14   C30   1.399051 A    
C8    C9    1.554725 S    
C53   H25   1.084080 S    
C6    C10   1.577830 S    
O3    Cu1   1.972182 S    
C48   O10   1.221119 D    
C48   H20   1.085813 S    
C49   O11   1.221010 D    
C45   C51   1.487276 S    
C34   C36   1.433814 A    
C13   C17   1.411711 A    
C42   C43   1.415927 A    
C19   C23   1.415752 A    
C25   F2    1.358589 S    
O3    C2    1.294829 A    
Cu2   N1    2.022351 S    
C22   C23   1.397792 A    
C47   H19   1.085519 S    
C10   C11   1.573584 S    
C49   H21   1.085695 S    
C31   C35   1.403674 A    
C42   C44   1.396458 A    
C6    F7    1.386820 S    
C32   H16   1.081798 S    
C1    C13   1.470478 S    
C26   C27   1.420964 A    
C21   C27   1.427605 A    
C37   C38   1.409822 A    
C30   H8    1.072316 S    
Cu2   O8    1.972183 S    
C51   O13   1.221564 D    
C17   C50   1.500173 S    
C53   O15   1.221176 D    
C26   C28   1.407323 A    
C7    C9    1.563429 S    
C8    H4    1.111509 S    
C25   C26   1.396786 A    
N1    C33   1.363098 A    
C5    H2    1.112026 S    
C31   H15   1.083281 S    
C13   C16   1.400624 A    
O1    Cu1   1.950455 S    
C23   C48   1.485413 S    
C3    C14   1.470178 S    
O2    Cu2   1.937766 S    
O8    C4    1.294749 A    
C12   F1    1.389184 S    
O6    C3    1.302880 A    
O4    Cu2   1.974115 S    
C37   C43   1.440500 A    
C10   C12   1.567634 S    
C7    C47   1.516367 S    
C35   C39   1.402292 A    
C15   C16   1.397982 A    
O2    C1    1.299134 A    
C33   C34   1.430391 A    
C46   H14   1.075587 S    
C11   C53   1.515367 S    
O4    C2    1.293492 A    
C7    C11   1.559242 S    
C43   C46   1.429003 A    
C15   C49   1.483506 S    
C51   H23   1.069970 S    
C4    C10   1.489965 S    
C20   C24   1.411737 A    
C36   C37   1.436101 A    
N2    C45   1.377847 A    
C38   C39   1.394030 A    
C44   F6    1.361082 S    
C36   C40   1.404476 A    
C50   H22   1.083990 S    
C11   H7    1.114552 S    
Cu2   O6    1.950455 S    
C40   C41   1.380131 A    
C8    H5    1.113859 S    
C12   H6    1.111570 S    
C39   F3    1.358619 S    
O1    C1    1.300720 A    
N2    C46   1.370933 A    
C41   F4    1.358917 S    
N1    C32   1.356957 A    
