data_mof_unit_44593.cif
_audit_creation_date              2012-12-10T17:28:32-0500
_audit_creation_method            fapswitch 2.2
_symmetry_space_group_name_H-M    P1
_symmetry_Int_Tables_number       1
_space_group_crystal_system       triclinic
_cell_length_a                    10.808436
_cell_length_b                    12.07868
_cell_length_c                    12.700387
_cell_angle_alpha                 91.366578
_cell_angle_beta                  88.8568
_cell_angle_gamma                 86.028283
_cell_volume                      1653.21584067

loop_
_atom_site_label
_atom_site_type_symbol
_atom_type_description
_atom_site_fract_x
_atom_site_fract_y
_atom_site_fract_z
_atom_type_partial_charge
Br1   Br    Br    0.522682 0.974417 0.215969 -0.216423
Br2   Br    Br    0.192523 0.635988 0.771289 -0.425576
Br3   Br    Br    0.649834 0.175390 0.327441 -0.327597
Br4   Br    Br    0.342191 0.834839 0.672298 -0.299920
Br5   Br    Br    0.653070 0.228288 0.710527 -0.287310
Br6   Br    Br    0.662792 0.743445 0.314298 -0.305229
Br7   Br    Br    0.537459 0.994835 0.773642 -0.207085
Br8   Br    Br    0.781205 0.428277 0.256300 -0.314097
Br9   Br    Br    0.170264 0.764238 0.394185 -0.281386
Br10  Br    Br    0.204747 0.216400 0.560295 -0.286894
Br11  Br    Br    0.756680 0.612296 0.730498 -0.312214
Br12  Br    Br    0.386656 0.711289 0.187124 -0.250788
Br13  Br    Br    0.349397 0.299670 0.799962 -0.259260
Br14  Br    Br    0.361205 0.248465 0.228837 -0.393287
C1    C     C_R   0.471423 0.518692 0.697140 1.009505
C2    C     C_R   0.409185 0.562427 0.128001 0.324838
C3    C     C_R   0.419695 0.437862 0.973785 -0.135683
C4    C     C_R   0.391254 0.545597 0.019464 -0.126416
C5    C     C_R   0.521010 0.941163 0.363982 0.270456
C6    C     C_R   0.507409 0.053272 0.635184 0.257182
C7    C     C_R   0.530451 0.828678 0.389537 0.327769
C8    C     C_R   0.538758 0.163043 0.616516 0.333886
C9    C     C_R   0.446665 0.871055 0.558671 0.424958
C10   C     C_R   0.535149 0.135495 0.434696 0.422512
C11   C     C_R   0.480578 0.983482 0.548261 -0.181550
C12   C     C_R   0.480804 0.480201 0.300913 1.003982
C13   C     C_R   0.508229 0.021674 0.446385 -0.183001
C14   C     C_R   0.739277 0.500280 0.499670 0.968760
C15   C     C_R   0.259452 0.499795 0.497708 0.859430
C16   C     C_R   0.901999 0.361073 0.348177 0.260257
C17   C     C_R   0.084815 0.711840 0.515683 0.315963
C18   C     C_R   0.968529 0.262520 0.313409 0.322416
C19   C     C_R   0.019497 0.794487 0.578826 0.307376
C20   C     C_R   0.074671 0.224043 0.369662 0.294321
C21   C     C_R   0.921174 0.764266 0.645306 0.310812
C22   C     C_R   0.120134 0.293042 0.448509 0.293542
C23   C     C_R   0.441696 0.469279 0.190595 -0.289015
C24   C     C_R   0.872910 0.660708 0.628159 0.265834
C25   C     C_R   0.065570 0.402633 0.464524 -0.116774
C26   C     C_R   0.929389 0.586052 0.551035 -0.124751
C27   C     C_R   0.942914 0.420684 0.436421 -0.135989
C28   C     C_R   0.050434 0.600413 0.519125 -0.093956
C29   C     C_R   0.125589 0.500459 0.493789 -0.014858
C30   C     C_R   0.870999 0.501447 0.497096 -0.018456
C31   C     C_R   0.423862 0.522750 0.805892 -0.279994
C32   C     C_R   0.338651 0.629689 0.953808 0.522904
C33   C     C_R   0.437490 0.345527 0.038329 0.511268
C34   C     C_R   0.345397 0.610920 0.844481 0.139744
C35   C     C_R   0.430002 0.362475 0.147169 0.143960
C36   C     C_R   0.422093 0.425903 0.864011 0.355072
H1    H     H_    0.930016 0.887232 0.745349 0.377538
H2    H     H_    0.129881 0.101141 0.274794 0.379545
H3    H     H_    0.941414 0.124363 0.238918 0.371367
H4    H     H_    0.979940 0.953505 0.594989 0.361582
H5    H     H_    0.248617 0.773592 0.940741 0.392542
H6    H     H_    0.494553 0.189499 0.049242 0.403597
N1    N     N_R   0.523130 0.207800 0.519340 -0.171371
N2    N     N_R   0.476870 0.792200 0.480660 -0.175464
O1    O     O_R   0.506170 0.421700 0.658830 -0.578596
O2    O     O_3   0.136341 0.121384 0.350284 -0.645563
O3    O     O_3   0.924054 0.204821 0.228743 -0.637913
O4    O     O_3   0.051637 0.902780 0.571542 -0.646497
O5    O     O_3   0.264431 0.718001 0.995999 -0.639917
O6    O     O_3   0.462942 0.240422 0.994355 -0.633132
O7    O     O_R   0.493830 0.578300 0.341170 -0.565808
O8    O     O_R   0.491330 0.609310 0.646410 -0.565323
O9    O     O_R   0.508670 0.390690 0.353590 -0.556477
O10   O     O_R   0.690650 0.406190 0.506220 -0.583654
O11   O     O_R   0.309350 0.593810 0.493780 -0.597224
O12   O     O_R   0.675800 0.593810 0.493800 -0.596812
O13   O     O_R   0.324200 0.406190 0.506200 -0.599388
O14   O     O_3   0.868923 0.833811 0.724394 -0.653986
Zn1   Zn    Zn3+2 0.509910 0.374730 0.508290 1.093323
Zn2   Zn    Zn3+2 0.490090 0.625270 0.491710 1.088396

loop_
_geom_bond_atom_site_label_1
_geom_bond_atom_site_label_2
_ccdc_geom_bond_type
C9    N2    A    
C16   C18   A    
C17   C28   A    
C10   C13   A    
C8    N1    A    
C25   C27   A    
C12   O9    A    
C5    C7    A    
C18   O3    S    
Br14  C35   S    
C6    C11   A    
O8    Zn2   S    
N1    Zn1   S    
H2    O2    S    
H3    O3    S    
Br5   C8    S    
Br12  C2    S    
C10   N1    A    
H5    O5    S    
O12   Zn2   S    
C17   C19   A    
C16   C27   A    
O9    Zn1   S    
C5    C13   A    
O1    Zn1   S    
C2    C23   A    
C26   C28   A    
C15   C29   S    
C20   O2    S    
Br3   C10   S    
C4    C32   A    
C15   O11   A    
C32   C34   A    
Br1   C5    S    
C21   C24   A    
C33   C35   A    
C33   O6    S    
O13   Zn1   S    
Br4   C9    S    
C19   O4    S    
C25   C29   A    
H4    O4    S    
Br2   C34   S    
O10   Zn1   S    
C1    O8    A    
C14   C30   S    
O7    Zn2   S    
C18   C20   A    
Br11  C24   S    
C23   C35   A    
H6    O6    S    
C3    C4    A    
O11   Zn2   S    
C6    C8    A    
C21   O14   S    
C27   C30   A    
C28   C29   A    
C1    C31   S    
N2    Zn2   S    
C31   C34   A    
C14   O10   A    
C12   O7    A    
C1    O1    A    
C22   C25   A    
C14   O12   A    
C3    C33   A    
C3    C36   A    
C12   C23   S    
C11   C13   A    
C32   O5    S    
Br8   C16   S    
C7    N2    A    
C24   C26   A    
Br6   C7    S    
C31   C36   A    
C19   C21   A    
C20   C22   A    
C9    C11   A    
Br9   C17   S    
Br13  C36   S    
C26   C30   A    
C2    C4    A    
Br7   C6    S    
H1    O14   S    
Br10  C22   S    
C15   O13   A    
