data_mof_unit_15997.cif
_audit_creation_date              2012-12-10T16:55:01-0500
_audit_creation_method            fapswitch 2.2
_symmetry_space_group_name_H-M    P1
_symmetry_Int_Tables_number       1
_space_group_crystal_system       triclinic
_cell_length_a                    7.840843
_cell_length_b                    8.566435
_cell_length_c                    15.675244
_cell_angle_alpha                 92.990476
_cell_angle_beta                  83.275696
_cell_angle_gamma                 93.996701
_cell_volume                      1042.06068165

loop_
_atom_site_label
_atom_site_type_symbol
_atom_type_description
_atom_site_fract_x
_atom_site_fract_y
_atom_site_fract_z
_atom_type_partial_charge
C1    C     C_R   0.545773 0.794595 0.497695 0.959297
C2    C     C_2   0.430550 0.041641 0.502614 -0.376424
C3    C     C_R   0.498708 0.505207 0.661787 0.906783
C4    C     C_R   0.454298 0.205370 0.501804 0.947817
C5    C     C_R   0.501288 0.494924 0.338311 0.895242
C6    C     C_3   0.319636 0.566540 0.968648 -0.447575
C7    C     C_3   0.638981 0.623551 0.949021 -0.397816
C8    C     C_3   0.644146 0.609112 0.046319 -0.398566
C9    C     C_1   0.505370 0.482959 0.249003 -0.168652
C10   C     C_3   0.490274 0.514527 0.918559 0.315279
C11   C     C_R   0.236997 0.654793 0.127959 0.159735
C12   C     C_3   0.318354 0.531166 0.064850 -0.142274
C13   C     C_R   0.101763 0.607432 0.190696 -0.175019
C14   C     C_R   0.034833 0.713947 0.254326 -0.112303
C15   C     C_R   0.101409 0.869141 0.256449 -0.094608
C16   C     C_R   0.233133 0.918604 0.194124 -0.176500
C17   C     C_R   0.299592 0.812886 0.129550 -0.174577
C18   C     C_R   0.698000 0.248599 0.048556 0.168817
C19   C     C_R   0.688039 0.126159 0.105892 -0.186212
C20   C     C_R   0.829428 0.037473 0.110434 -0.130606
C21   C     C_R   0.982519 0.069918 0.057787 -0.114749
C22   C     C_R   0.997011 0.194728 0.003494 -0.181613
C23   C     C_3   0.502713 0.485807 0.082209 0.265144
C24   C     C_R   0.857217 0.285037 0.999588 -0.150924
C25   C     C_2   0.985099 0.680276 0.563352 1.132944
C26   C     C_3   0.533131 0.324105 0.033828 -0.154880
C27   C     C_3   0.516282 0.341427 0.936959 -0.429511
C28   C     C_1   0.507612 0.477462 0.173322 -0.106881
C29   C     C_1   0.489415 0.522761 0.827253 -0.093096
C30   C     C_1   0.494104 0.517132 0.751333 -0.142186
C31   C     C_2   0.569786 0.958256 0.496014 -0.370822
H1    H     H_    0.207440 0.502607 0.942301 0.159733
H2    H     H_    0.773559 0.576490 0.058453 0.176436
H3    H     H_    0.404259 0.265585 0.918701 0.149618
H4    H     H_    0.628384 0.298326 0.894478 0.178058
H5    H     H_    0.424485 0.240905 0.057945 0.107367
H6    H     H_    0.049988 0.486869 0.191707 0.131002
H7    H     H_    0.932226 0.675759 0.302490 0.165153
H8    H     H_    0.049606 0.951560 0.305823 0.140288
H9    H     H_    0.280733 0.040179 0.194874 0.123653
H10   H     H_    0.397470 0.855863 0.080579 0.121940
H11   H     H_    0.569474 0.096448 0.145624 0.115634
H12   H     H_    0.232049 0.423083 0.073892 0.127816
H13   H     H_    0.818740 0.941175 0.153183 0.139692
H14   H     H_    0.089590 0.997647 0.057759 0.140712
H15   H     H_    0.115417 0.219082 0.962602 0.125464
H16   H     H_    0.872729 0.377810 0.954932 0.126178
H17   H     H_    0.879838 0.787700 0.672422 0.315023
H18   H     H_    0.701271 0.009570 0.489607 0.200401
H19   H     H_    0.299201 0.990366 0.508883 0.219287
H20   H     H_    0.009211 0.367224 0.442697 0.181503
H21   H     H_    0.307290 0.693284 0.960413 0.173974
H22   H     H_    0.764037 0.594352 0.912866 0.176192
H23   H     H_    0.620220 0.747366 0.935963 0.174450
H24   H     H_    0.628481 0.724633 0.080339 0.172534
N1    N     N_2   0.950340 0.457950 0.477370 -0.210396
N2    N     N_2   0.049660 0.542050 0.522630 -0.152791
O1    O     O_R   0.389240 0.738570 0.505550 -0.612114
O2    O     O_R   0.917940 0.681053 0.649898 -0.817148
O3    O     O_R   0.678400 0.711630 0.491050 -0.617873
O4    O     O_R   0.355360 0.513470 0.630110 -0.619726
O5    O     O_R   0.644510 0.486530 0.615610 -0.586270
O6    O     O_R   0.321600 0.288370 0.508950 -0.631058
O7    O     O_R   0.610760 0.261430 0.494450 -0.617151
O8    O     O_R   0.355490 0.513470 0.384390 -0.618346
O9    O     O_R   0.644640 0.486530 0.369890 -0.634612
O10   O     O_2   0.002306 0.801731 0.524752 -0.683106
Zn1   Zn    Zn3+2 0.306930 0.517990 0.509680 0.972881
Zn2   Zn    Zn3+2 0.693070 0.482010 0.490320 0.960339

loop_
_geom_bond_atom_site_label_1
_geom_bond_atom_site_label_2
_ccdc_geom_bond_type
C10   C27   S    
C6    C10   S    
C7    C10   S    
C2    C4    S    
C11   C12   S    
C5    C9    S    
C29   C30   T    
C14   H7    S    
O7    Zn2   S    
C4    O7    A    
C13   H6    S    
C19   C20   A    
C18   C26   S    
C19   H11   S    
O8    Zn1   S    
C25   O2    S    
C27   H4    S    
C22   C24   A    
C7    C8    S    
C1    O1    A    
N1    N2    D    
C11   C13   A    
C4    O6    A    
C15   H8    S    
C26   C27   S    
C16   C17   A    
C25   N2    S    
O3    Zn2   S    
C16   H9    S    
C18   C24   A    
O5    Zn2   S    
C3    C30   S    
C21   C22   A    
C22   H15   S    
C23   C26   S    
C31   H18   S    
C20   H13   S    
C12   H12   S    
C21   H14   S    
C8    H2    S    
C3    O4    A    
C27   H3    S    
C6    C12   S    
C17   H10   S    
C3    O5    A    
O9    Zn2   S    
C23   C28   S    
C7    H22   S    
N2    Zn1   S    
C15   C16   A    
C10   C29   S    
C1    C31   S    
C8    C23   S    
C20   C21   A    
C8    H24   S    
H17   O2    S    
C5    O8    A    
C18   C19   A    
C1    O3    A    
O1    Zn1   S    
N1    Zn2   S    
O4    Zn1   S    
C14   C15   A    
C5    O9    A    
C12   C23   S    
C2    H19   S    
C7    H23   S    
C6    H21   S    
O6    Zn1   S    
C13   C14   A    
C24   H16   S    
C25   O10   D    
C11   C17   A    
C26   H5    S    
C9    C28   T    
C2    C31   D    
C6    H1    S    
H20   N1    S    
