data_mof_unit_24766.cif
_audit_creation_date              2012-12-11T15:54:04-0500
_audit_creation_method            fapswitch 2.2
_symmetry_space_group_name_H-M    P1
_symmetry_Int_Tables_number       1
_space_group_crystal_system       triclinic
_cell_length_a                    10.689778
_cell_length_b                    10.682767
_cell_length_c                    17.063869
_cell_angle_alpha                 80.575335
_cell_angle_beta                  99.918433
_cell_angle_gamma                 118.691085
_cell_volume                      1676.40800306

loop_
_atom_site_label
_atom_site_type_symbol
_atom_type_description
_atom_site_fract_x
_atom_site_fract_y
_atom_site_fract_z
_atom_type_partial_charge
C1    C     C_R   0.361384 0.228799 0.627467 0.549413
C2    C     C_1   0.319929 0.158804 0.777942 -0.064392
C3    C     C_1   0.318788 0.684431 0.280222 -0.078699
C4    C     C_R   0.369391 0.654517 0.585209 0.545916
C5    C     C_1   0.298141 0.708539 0.209550 -0.080532
C6    C     C_R   0.799048 0.656764 0.148665 -0.043783
C7    C     C_R   0.761465 0.523762 0.193672 -0.034506
C8    C     C_R   0.728463 0.501746 0.270689 0.029853
C9    C     C_R   0.769432 0.747334 0.261790 0.254874
C10   C     C_R   0.782590 0.763831 0.179315 -0.022946
C11   C     C_3   0.841708 0.437489 0.213542 -0.216828
C12   C     C_R   0.404303 0.815147 0.682805 -0.156498
C13   C     C_3   0.808322 0.416418 0.298513 0.164439
C14   C     C_R   0.738739 0.614075 0.306802 -0.031483
C15   C     C_R   0.337516 0.169895 0.159427 0.014351
C16   C     C_R   0.781602 0.621286 0.626219 0.551441
C17   C     C_R   0.299483 0.267598 0.178473 0.009727
C18   C     C_R   0.301564 0.282382 0.256890 0.034989
C19   C     C_R   0.401865 0.119842 0.300273 -0.112898
C20   C     C_R   0.402505 0.106600 0.220604 -0.127249
C21   C     C_3   0.172130 0.292648 0.152428 -0.283455
C22   C     C_3   0.172456 0.306715 0.239429 -0.264277
C23   C     C_R   0.400803 0.821870 0.762728 -0.151863
C24   C     C_R   0.339722 0.198862 0.318458 0.009532
C25   C     C_R   0.947999 0.725087 0.851868 0.568402
C26   C     C_R   0.306827 0.715209 0.891596 0.556009
C27   C     C_R   0.283775 0.113745 0.857488 0.543372
C28   C     C_R   0.352032 0.229482 0.398580 0.533128
C29   C     C_R   0.882818 0.689876 0.082087 0.552335
C30   C     C_R   0.285303 0.739215 0.125351 0.571397
C31   C     C_R   0.288145 0.110080 0.084052 0.542858
C32   C     C_R   0.362256 0.657341 0.361708 0.538026
C33   C     C_R   0.708769 0.587745 0.389091 0.578348
C34   C     C_3   0.116676 0.426488 0.785757 -0.119836
C35   C     C_R   0.305667 0.701118 0.808545 0.007797
C36   C     C_R   0.193256 0.587977 0.767509 0.002700
C37   C     C_R   0.204717 0.578058 0.689787 -0.005037
C38   C     C_3   0.795457 0.200523 0.355227 -0.117811
C39   C     C_3   0.957316 0.367040 0.800250 -0.239741
C40   C     C_3   0.927207 0.318399 0.887507 -0.297685
C41   C     C_3   0.768289 0.266742 0.894489 -0.418916
C42   C     C_3   0.007195 0.348454 0.637840 -0.239930
C43   C     C_3   0.944426 0.184209 0.645133 -0.318616
C44   C     C_3   0.788739 0.112908 0.608088 -0.446104
C45   C     C_3   0.139322 0.418053 0.699753 -0.111285
C46   C     C_3   0.952131 0.928956 0.326812 -0.125794
C47   C     C_3   0.796854 0.899708 0.127071 -0.214593
C48   C     C_3   0.736249 0.986655 0.156353 -0.268563
C49   C     C_3   0.713306 0.088605 0.089110 -0.444704
C50   C     C_R   0.318461 0.685117 0.649105 0.006821
C51   C     C_1   0.851299 0.669897 0.702701 -0.061967
C52   C     C_1   0.898448 0.704316 0.769438 -0.054337
C53   C     C_1   0.345401 0.186616 0.709793 -0.062608
Cr1   Cr    Cr6+3 0.608440 0.389080 0.519680 1.009998
Cr2   Cr    Cr6+3 0.288640 0.400090 0.490760 0.972775
Cr3   Cr    Cr6+3 0.602940 0.710800 0.489510 1.020842
Cr4   Cr    Cr6+3 0.052530 0.947560 0.964210 0.981576
Cr5   Cr    Cr6+3 0.059970 0.626800 0.992920 0.966190
Cr6   Cr    Cr6+3 0.373320 0.938440 0.995370 0.965754
H1    H     H_    0.486705 0.905182 0.651220 0.134302
H2    H     H_    0.477482 0.920022 0.788989 0.143794
H3    H     H_    0.178930 0.386382 0.832331 0.142586
H4    H     H_    0.220866 0.381795 0.699720 0.164100
H5    H     H_    0.958862 0.501505 0.208835 0.113347
H6    H     H_    0.864114 0.246348 0.410545 0.102788
H7    H     H_    0.862413 0.203568 0.311132 0.105735
H8    H     H_    0.720584 0.086439 0.371335 0.162605
H9    H     H_    0.726503 0.333677 0.853547 0.179090
H10   H     H_    0.703304 0.153780 0.879966 0.140828
H11   H     H_    0.753900 0.275156 0.955672 0.142215
H12   H     H_    0.787815 0.337696 0.182959 0.155911
H13   H     H_    0.954233 0.229595 0.910046 0.147911
H14   H     H_    0.993209 0.406420 0.925711 0.218505
H15   H     H_    0.920172 0.447894 0.775895 0.173773
H16   H     H_    0.887660 0.270333 0.768569 0.155162
H17   H     H_    0.720977 0.134910 0.640668 0.148581
H18   H     H_    0.780216 0.153678 0.544295 0.146310
H19   H     H_    0.748318 0.995224 0.611989 0.170309
H20   H     H_    0.007806 0.154618 0.613903 0.191887
H21   H     H_    0.949980 0.140091 0.708538 0.175969
H22   H     H_    0.924820 0.380783 0.642904 0.173608
H23   H     H_    0.904057 0.471383 0.342051 0.110240
H24   H     H_    0.039018 0.389592 0.576528 0.166665
H25   H     H_    0.982275 0.852641 0.367441 0.126669
H26   H     H_    0.978847 0.019490 0.361395 0.138997
H27   H     H_    0.017335 0.971277 0.275397 0.107669
H28   H     H_    0.819288 0.173383 0.071878 0.116002
H29   H     H_    0.647324 0.030863 0.036397 0.185755
H30   H     H_    0.656699 0.139145 0.109675 0.155007
H31   H     H_    0.633895 0.914204 0.181974 0.228230
H32   H     H_    0.813840 0.054485 0.202947 0.182539
H33   H     H_    0.911601 0.971502 0.120468 0.162790
H34   H     H_    0.444364 0.064543 0.347207 0.149454
H35   H     H_    0.739236 0.866633 0.067288 0.162167
H36   H     H_    0.439982 0.034931 0.207848 0.141080
H37   H     H_    0.075247 0.199029 0.129499 0.141609
H38   H     H_    0.200124 0.394271 0.113557 0.173097
H39   H     H_    0.196458 0.415363 0.250303 0.159272
H40   H     H_    0.077275 0.219821 0.266456 0.118803
O1    O     O_R   0.754020 0.497590 0.609930 -0.530093
O2    O     O_R   0.406180 0.826930 0.920660 -0.526777
O3    O     O_R   0.358620 0.062870 0.901950 -0.503871
O4    O     O_R   0.481420 0.271390 0.600630 -0.496663
O5    O     O_R   0.163910 0.085460 0.050210 -0.533570
O6    O     O_R   0.935200 0.815170 0.045770 -0.514957
O7    O     O_R   0.916120 0.596690 0.069430 -0.523121
O8    O     O_R   0.192310 0.631200 0.086170 -0.511922
O9    O     O_R   0.406770 0.819480 0.096420 -0.522231
O10   O     O_R   0.359170 0.055960 0.064880 -0.526663
O11   O     O_3   0.161940 0.837600 0.984160 -0.273403
O12   O     O_R   0.295080 0.533620 0.397890 -0.511639
O13   O     O_R   0.263810 0.254550 0.589590 -0.536320
O14   O     O_R   0.300820 0.531200 0.560890 -0.514171
O15   O     O_R   0.491480 0.744020 0.564270 -0.529670
O16   O     O_R   0.726290 0.693800 0.583010 -0.494315
O17   O     O_R   0.747830 0.500190 0.434090 -0.519477
O18   O     O_R   0.475680 0.273800 0.437630 -0.486352
O19   O     O_R   0.257620 0.257160 0.413750 -0.534851
O20   O     O_3   0.714586 0.272802 0.322711 -0.549963
O21   O     O_3   0.803828 0.865625 0.300425 -0.564604
O22   O     O_R   0.485280 0.746620 0.388440 -0.501546
O23   O     O_R   0.720550 0.696220 0.420010 -0.453266
O24   O     O_3   0.500010 0.499990 0.499980 -0.261374
O25   O     O_R   0.163320 0.092900 0.874450 -0.525266
O26   O     O_R   0.934650 0.822080 0.882840 -0.484703
O27   O     O_R   0.915520 0.604140 0.893670 -0.525019
O28   O     O_R   0.191760 0.638110 0.923230 -0.525484

loop_
_geom_bond_atom_site_label_1
_geom_bond_atom_site_label_2
_ccdc_geom_bond_type
Cr4   O6    S    
Cr1   O24   S    
C8    C13   S    
C22   H39   S    
C32   O12   A    
C30   O8    A    
C47   H33   S    
C49   H28   S    
C19   C20   A    
C16   C51   S    
C43   C44   S    
Cr1   O1    S    
C14   C33   S    
C7    C8    A    
C7    C11   S    
C12   C23   A    
C18   C24   A    
C4    O15   A    
C44   H18   S    
C28   O18   A    
C1    O13   A    
Cr4   O26   S    
Cr2   O13   S    
C11   H12   S    
C43   H20   S    
C34   H3    S    
Cr6   O11   S    
C40   H14   S    
Cr5   O8    S    
C39   H15   S    
C44   H17   S    
C25   O26   A    
C1    C53   S    
C47   H35   S    
C38   H7    S    
C48   H32   S    
Cr1   O17   S    
C2    C27   S    
C39   H16   S    
C9    C10   A    
C1    O4    A    
C19   H34   S    
C46   H26   S    
Cr2   O12   S    
Cr5   O28   S    
Cr5   O11   S    
C21   C22   S    
C49   H29   S    
C29   O6    A    
C42   H22   S    
C13   O20   S    
C41   H9    S    
C15   C20   A    
Cr2   O24   S    
C34   C39   S    
Cr6   O2    S    
Cr3   O24   S    
Cr1   O4    S    
C11   H5    S    
C39   C40   S    
C9    C14   A    
C16   O1    A    
Cr2   O14   S    
C43   H21   S    
C13   H23   S    
C45   H4    S    
C17   C21   S    
C51   C52   T    
C4    C50   S    
Cr5   O7    S    
C42   C45   S    
Cr3   O23   S    
C25   O27   A    
C21   H38   S    
C4    O14   A    
C47   C48   S    
C38   H6    S    
C17   C18   A    
C31   O10   A    
C46   O21   S    
C34   C45   S    
C46   H25   S    
C38   O20   S    
C48   C49   S    
C20   H36   S    
Cr5   O27   S    
C23   C35   A    
C33   O23   A    
C29   O7    A    
C42   C43   S    
C37   C45   S    
C16   O16   A    
C41   H10   S    
C5    C30   S    
C15   C17   A    
Cr4   O5    S    
C40   C41   S    
C33   O17   A    
C8    C14   A    
C22   H40   S    
C40   H13   S    
C30   O9    A    
C18   C22   S    
Cr6   O3    S    
C32   O22   A    
C42   H24   S    
C24   C28   S    
C49   H30   S    
C3    C5    T    
C2    C53   T    
C6    C10   A    
C12   C50   A    
C27   O25   A    
Cr4   O11   S    
C15   C31   S    
C6    C7    A    
C21   H37   S    
C27   O3    A    
Cr6   O9    S    
Cr3   O22   S    
C44   H19   S    
C19   C24   A    
C25   C52   S    
C26   O2    A    
C28   O19   A    
C31   O5    A    
Cr4   O25   S    
C37   C50   A    
C11   C13   S    
Cr6   O10   S    
Cr3   O16   S    
C34   C36   S    
C26   O28   A    
C3    C32   S    
C12   H1    S    
C26   C35   S    
C23   H2    S    
C6    C29   S    
C38   H8    S    
C36   C37   A    
Cr1   O18   S    
C10   C47   S    
C9    O21   S    
Cr3   O15   S    
C48   H31   S    
C35   C36   A    
C41   H11   S    
C46   H27   S    
Cr2   O19   S    
