data_mof_unit_24087.cif
_audit_creation_date              2012-12-10T20:45:31-0500
_audit_creation_method            fapswitch 2.2
_symmetry_space_group_name_H-M    P1
_symmetry_Int_Tables_number       1
_space_group_crystal_system       triclinic
_cell_length_a                    10.863264
_cell_length_b                    10.63495
_cell_length_c                    10.039427
_cell_angle_alpha                 90.201907
_cell_angle_beta                  91.246964
_cell_angle_gamma                 90.328212
_cell_volume                      1159.55628351

loop_
_atom_site_label
_atom_site_type_symbol
_atom_type_description
_atom_site_fract_x
_atom_site_fract_y
_atom_site_fract_z
_atom_type_partial_charge
C1    C     C_R   0.499195 0.260935 0.499896 0.870030
C2    C     C_R   0.213677 0.678379 0.027941 0.154946
C3    C     C_R   0.931118 0.514418 0.381402 -0.228588
C4    C     C_R   0.872933 0.506169 0.503809 -0.134119
C5    C     C_R   0.941762 0.524332 0.623356 0.031750
C6    C     C_R   0.067087 0.552765 0.613688 0.066730
C7    C     C_R   0.126728 0.525902 0.495729 -0.126206
C8    C     C_R   0.057355 0.525405 0.377029 0.062980
C9    C     C_R   0.865214 0.581687 0.851103 0.624468
C10   C     C_R   0.835410 0.545147 0.980057 -0.263326
C11   C     C_R   0.825131 0.417939 0.011626 -0.144826
C12   C     C_R   0.260385 0.509400 0.498409 0.857470
C13   C     C_R   0.846648 0.326466 0.914998 -0.166024
C14   C     C_R   0.881119 0.362244 0.787380 -0.267249
C15   C     C_R   0.893130 0.490188 0.755295 0.047521
C16   C     C_R   0.555038 0.065550 0.603495 0.114738
C17   C     C_R   0.493782 0.128831 0.501244 -0.060467
C18   C     C_R   0.424303 0.063989 0.404135 -0.199097
C19   C     C_R   0.426497 0.934183 0.403219 -0.238689
C20   C     C_R   0.496189 0.871435 0.500923 -0.075910
C21   C     C_R   0.556329 0.936863 0.603506 0.104004
C22   C     C_3   0.690366 0.933441 0.641334 -0.410325
C23   C     C_R   0.500773 0.739188 0.500093 0.864259
C24   C     C_3   0.688278 0.075486 0.642228 -0.513943
C25   C     C_R   0.457433 0.398978 0.068845 0.036226
C26   C     C_R   0.534199 0.604091 0.073156 0.112396
C27   C     C_R   0.536583 0.603189 0.929550 0.089239
C28   C     C_R   0.459701 0.398523 0.928563 0.095283
C29   C     C_3   0.504776 0.266900 0.923003 -0.537110
C30   C     C_3   0.500446 0.265979 0.074542 0.469348
C31   C     C_R   0.739823 0.498683 0.501568 0.883139
C32   C     C_R   0.184004 0.756080 0.134909 -0.240691
C33   C     C_R   0.129926 0.706426 0.247478 0.055948
C34   C     C_R   0.108525 0.576376 0.255239 0.132681
C35   C     C_R   0.134869 0.496774 0.148850 0.043268
C36   C     C_R   0.183896 0.548109 0.032037 0.056301
H1    H     H_    0.801975 0.390231 0.111424 0.221469
H2    H     H_    0.839065 0.227823 0.939832 0.174607
H3    H     H_    0.901331 0.290416 0.714407 0.155711
H4    H     H_    0.371715 0.113322 0.328023 0.144592
H5    H     H_    0.376945 0.883259 0.325179 0.157023
H6    H     H_    0.707777 0.893903 0.741870 0.243073
H7    H     H_    0.748032 0.893201 0.561652 0.211607
H8    H     H_    0.702804 0.116343 0.743276 0.204843
H9    H     H_    0.745031 0.118570 0.563351 0.207213
H10   H     H_    0.201721 0.856320 0.129864 0.141437
H11   H     H_    0.436109 0.202378 0.875057 0.160009
H12   H     H_    0.599019 0.260960 0.883395 0.235004
H13   H     H_    0.430408 0.200482 0.114338 0.045735
H14   H     H_    0.878799 0.518037 0.288562 0.167960
H15   H     H_    0.820684 0.615419 0.055815 0.146731
N1    N     N_R   0.499160 0.499140 0.142800 -0.085311
N2    N     N_R   0.499160 0.499180 0.857150 -0.087372
O1    O     O_R   0.500020 0.316790 0.614690 -0.621981
O2    O     O_R   0.500000 0.316760 0.385350 -0.581710
O3    O     O_R   0.316770 0.500030 0.614670 -0.587873
O4    O     O_R   0.316750 0.499990 0.385330 -0.627343
O5    O     O_R   0.500000 0.683240 0.614650 -0.600133
O6    O     O_R   0.499980 0.683210 0.385310 -0.600254
O7    O     O_R   0.683250 0.500010 0.614670 -0.596691
O8    O     O_R   0.683230 0.499970 0.385330 -0.601783
Zn1   Zn    Zn3+2 0.500010 0.500020 0.653130 0.985098
Zn2   Zn    Zn3+2 0.499990 0.499980 0.346870 0.996883
N3    N     N_3   0.266021 0.736114 0.913367 -0.456514
H16   H     H_    0.328697 0.805195 0.945507 0.152754
H17   H     H_    0.316518 0.669968 0.861262 0.237013
N4    N     N_3   0.570034 0.714998 0.145292 -0.392393
H18   H     H_    0.661089 0.738179 0.124908 0.165034
H19   H     H_    0.513249 0.789002 0.114906 0.162008
N5    N     N_3   0.580155 0.711139 0.860258 -0.389806
H20   H     H_    0.666237 0.736066 0.899595 0.211716
H21   H     H_    0.521861 0.786579 0.877921 0.148010
F1    F     F_    0.615654 0.254540 0.134353 -0.657107
N6    N     N_3   0.095017 0.787965 0.354082 -0.462818
H22   H     H_    0.034717 0.855481 0.315223 0.196449
H23   H     H_    0.173687 0.834427 0.390695 0.176353
N7    N     N_3   0.114793 0.363926 0.162800 -0.466346
H24   H     H_    0.199786 0.318700 0.158471 0.170658
H25   H     H_    0.058812 0.331615 0.084029 0.191015
N8    N     N_3   0.194953 0.470585 0.915990 -0.431034
H26   H     H_    0.105982 0.448269 0.883223 0.200303
H27   H     H_    0.232408 0.384232 0.942766 0.161916
N9    N     N_3   0.130799 0.629007 0.710571 -0.413087
H28   H     H_    0.072597 0.661468 0.783162 0.253709
H29   H     H_    0.160740 0.710319 0.662237 0.196033
F2    F     F_    0.869485 0.705835 0.820439 -0.728569

loop_
_geom_bond_atom_site_label_1
_geom_bond_atom_site_label_2
_ccdc_geom_bond_type
O5    Zn1   S    
C23   O5    A    
C16   C21   A    
C31   O8    A    
C19   C20   A    
C7    C8    A    
N7    H24   S    
C25   C28   A    
C23   O6    A    
C26   C27   A    
N6    H23   S    
C29   H11   S    
C24   H9    S    
C2    C32   A    
C28   C29   S    
C18   C19   A    
C5    C6    A    
O7    Zn1   S    
C34   C35   A    
O8    Zn2   S    
C18   H4    S    
C14   H3    S    
C22   H7    S    
C16   C17   A    
O2    Zn2   S    
N5    H20   S    
C9    C10   A    
C16   C24   S    
C21   C22   S    
C32   H10   S    
C10   H15   S    
C3    H14   S    
C2    N3    S    
O4    Zn2   S    
N7    H25   S    
C7    C12   S    
N6    H22   S    
C29   H12   S    
N4    H18   S    
N8    H27   S    
C3    C8    A    
C36   N8    S    
C30   F1    S    
N8    H26   S    
O1    Zn1   S    
C35   N7    S    
N4    H19   S    
C35   C36   A    
N3    H17   S    
C31   O7    A    
C1    O1    A    
C29   C30   S    
C26   N1    A    
C9    F2    S    
N2    Zn1   S    
N9    H28   S    
C20   C23   S    
C17   C18   A    
C8    C34   S    
C13   H2    S    
C12   O3    A    
C27   N5    S    
C12   O4    A    
N9    H29   S    
C30   H13   S    
C24   H8    S    
O3    Zn1   S    
C26   N4    S    
C3    C4    A    
C11   H1    S    
C2    C36   A    
C25   C30   S    
C6    N9    S    
O6    Zn2   S    
C4    C5    A    
N1    Zn2   S    
C28   N2    A    
C27   N2    A    
C6    C7    A    
C1    C17   S    
C32   C33   A    
C1    O2    A    
C25   N1    A    
N3    H16   S    
C11   C13   A    
C22   H6    S    
C33   C34   A    
C22   C24   S    
C9    C15   A    
C5    C15   S    
C4    C31   S    
C10   C11   A    
C33   N6    S    
C20   C21   A    
C14   C15   A    
N5    H21   S    
C13   C14   A    
C19   H5    S    
