data_mof_unit_5688.cif
_audit_creation_date              2012-12-11T14:23:13-0500
_audit_creation_method            fapswitch 2.2
_symmetry_space_group_name_H-M    P1
_symmetry_Int_Tables_number       1
_space_group_crystal_system       triclinic
_cell_length_a                    10.992646
_cell_length_b                    11.004132
_cell_length_c                    18.775433
_cell_angle_alpha                 90.350038
_cell_angle_beta                  90.044127
_cell_angle_gamma                 59.962391
_cell_volume                      1966.09407596

loop_
_atom_site_label
_atom_site_type_symbol
_atom_type_description
_atom_site_fract_x
_atom_site_fract_y
_atom_site_fract_z
_atom_type_partial_charge
C1    C     C_R   0.242071 0.643084 0.611452 0.547767
C2    C     C_R   0.560570 0.180564 0.715952 -0.153191
C3    C     C_R   0.566584 0.182778 0.788319 -0.161751
C4    C     C_R   0.656533 0.624095 0.599851 0.575125
C5    C     C_R   0.918050 0.153421 0.815128 0.301062
C6    C     C_R   0.041023 0.105786 0.775459 0.228907
C7    C     C_R   0.040107 0.085494 0.701864 -0.124016
C8    C     C_R   0.919931 0.103863 0.668196 0.369984
C9    C     C_R   0.670059 0.169726 0.674396 0.027135
C10   C     C_R   0.198111 0.657474 0.838739 -0.012936
C11   C     C_R   0.210234 0.540292 0.802083 0.020707
C12   C     C_3   0.641377 0.618430 0.803033 -0.245883
C13   C     C_R   0.204153 0.540750 0.726405 0.001561
C14   C     C_R   0.225839 0.749904 0.728314 -0.161051
C15   C     C_R   0.220314 0.753275 0.801751 -0.169817
C16   C     C_R   0.629942 0.225748 0.602126 0.598841
C17   C     C_R   0.226693 0.423578 0.839821 -0.108129
C18   C     C_R   0.220496 0.316177 0.805167 -0.141576
C19   C     C_R   0.200042 0.321034 0.731955 -0.100340
C20   C     C_R   0.190792 0.432545 0.692699 -0.081278
C21   C     C_R   0.211219 0.649520 0.688694 -0.000661
C22   C     C_R   0.643395 0.663967 0.163337 -0.010084
C23   C     C_3   0.727578 0.694592 0.807380 -0.008921
C24   C     C_R   0.700141 0.525165 0.187135 0.025288
C25   C     C_R   0.713212 0.498903 0.261126 0.019869
C26   C     C_R   0.568272 0.750279 0.283464 -0.132641
C27   C     C_R   0.581230 0.775110 0.212241 -0.153849
C28   C     C_R   0.217714 0.653373 0.402405 0.547050
C29   C     C_R   0.762616 0.411288 0.138572 -0.085712
C30   C     C_R   0.868480 0.281842 0.161156 -0.107457
C31   C     C_R   0.897941 0.260130 0.233086 -0.150894
C32   C     C_R   0.814228 0.361851 0.282886 -0.109677
C33   C     C_R   0.633400 0.612837 0.309252 0.005424
C34   C     C_3   0.683090 0.655450 0.673776 0.072788
C35   C     C_R   0.658461 0.144434 0.178452 0.010654
C36   C     C_R   0.523423 0.212375 0.208188 0.017581
C37   C     C_R   0.511683 0.199674 0.281517 0.038950
C38   C     C_R   0.765507 0.094278 0.295249 -0.169972
C39   C     C_R   0.777761 0.074708 0.222494 -0.140218
C40   C     C_R   0.618853 0.590115 0.385349 0.546198
C41   C     C_R   0.400931 0.277731 0.165730 -0.086239
C42   C     C_R   0.274274 0.298293 0.191960 -0.122211
C43   C     C_R   0.264171 0.269013 0.262622 -0.148794
C44   C     C_R   0.380888 0.219596 0.307151 -0.082027
C45   C     C_3   0.844610 0.575394 0.691127 0.081762
C46   C     C_R   0.632887 0.165308 0.324960 0.010142
C47   C     C_R   0.144975 0.673294 0.184979 -0.006160
C48   C     C_R   0.198966 0.752106 0.217467 0.023110
C49   C     C_R   0.170246 0.783917 0.289565 0.031835
C50   C     C_R   0.106037 0.603217 0.300959 -0.146630
C51   C     C_R   0.091067 0.606048 0.227511 -0.141490
C52   C     C_R   0.615102 0.226710 0.395720 0.548031
C53   C     C_R   0.261031 0.816876 0.178321 -0.075130
C54   C     C_R   0.266697 0.930872 0.206865 -0.122635
C55   C     C_R   0.222601 0.973217 0.276353 -0.153255
C56   C     C_3   0.608881 0.602690 0.725199 -0.242470
C57   C     C_R   0.168734 0.905284 0.316247 -0.094933
C58   C     C_R   0.150330 0.688945 0.332610 0.000559
C59   C     C_R   0.701807 0.103992 0.896316 0.527006
C60   C     C_R   0.755595 0.710952 0.883122 0.555548
C61   C     C_R   0.122648 0.703357 0.907236 0.522032
C62   C     C_R   0.676803 0.104052 0.104544 0.527745
C63   C     C_R   0.693402 0.688921 0.095960 0.537764
C64   C     C_3   0.645493 0.838261 0.768750 -0.225371
C65   C     C_R   0.093927 0.708563 0.112596 0.523457
C66   C     C_3   0.628335 0.815045 0.688190 0.068267
C67   C     C_R   0.686326 0.163194 0.824024 -0.023267
C68   C     C_3   0.869061 0.607885 0.768092 -0.226493
C69   C     C_R   0.799286 0.156133 0.783499 -0.104240
C70   C     C_R   0.796098 0.144726 0.707734 -0.033427
Cr1   Cr    Cr6+3 0.392940 0.397950 0.502230 1.012924
Cr2   Cr    Cr6+3 0.398400 0.708500 0.501260 1.058467
Cr3   Cr    Cr6+3 0.708640 0.393530 0.496460 1.073351
Cr4   Cr    Cr6+3 0.937880 0.938320 0.007620 1.048379
Cr5   Cr    Cr6+3 0.625560 0.937220 0.994510 1.009381
Cr6   Cr    Cr6+3 0.938080 0.625010 0.001190 1.011208
F1    F     F_    0.931369 0.065244 0.598617 -0.620267
H1    H     H_    0.704564 0.895377 0.774058 0.112046
H2    H     H_    0.227551 0.834670 0.830128 0.195693
H3    H     H_    0.238831 0.227489 0.836408 0.192553
H4    H     H_    0.194522 0.237032 0.704926 0.159091
H5    H     H_    0.167971 0.433338 0.636876 0.167900
H6    H     H_    0.515133 0.839360 0.319252 0.146393
H7    H     H_    0.739939 0.425551 0.082098 0.127311
H8    H     H_    0.546924 0.881717 0.195906 0.143437
H9    H     H_    0.927079 0.198155 0.123150 0.142674
H10   H     H_    0.977240 0.159100 0.250916 0.123125
H11   H     H_    0.838160 0.329273 0.337143 0.168788
H12   H     H_    0.640769 0.491188 0.714036 0.125454
H13   H     H_    0.858541 0.056915 0.327933 0.119077
H14   H     H_    0.403881 0.305861 0.110878 0.127060
H15   H     H_    0.882235 0.010185 0.200540 0.158795
H16   H     H_    0.184028 0.336506 0.157224 0.124103
H17   H     H_    0.164594 0.286808 0.283202 0.105982
H18   H     H_    0.367593 0.189249 0.359830 0.146357
H19   H     H_    0.081463 0.536682 0.332920 0.133633
H20   H     H_    0.297914 0.784682 0.124239 0.128769
H21   H     H_    0.036340 0.556767 0.204204 0.147554
H22   H     H_    0.695005 0.845588 0.657155 0.151703
H23   H     H_    0.937221 0.508760 0.796864 0.197530
H24   H     H_    0.304443 0.986817 0.174965 0.125616
H25   H     H_    0.226707 0.060495 0.299582 0.107029
H26   H     H_    0.124458 0.950056 0.367796 0.146227
H27   H     H_    0.924804 0.668765 0.767219 0.095371
H28   H     H_    0.897202 0.613709 0.654280 0.139405
H29   H     H_    0.701191 0.512572 0.827442 0.138477
H30   H     H_    0.541087 0.678349 0.833186 0.137391
H31   H     H_    0.494264 0.662006 0.716752 0.124134
H32   H     H_    0.876083 0.389740 0.718492 0.327293
H33   H     H_    0.816697 0.274893 0.894654 0.301706
H34   H     H_    0.466435 0.190466 0.692448 0.181131
H35   H     H_    0.242172 0.032711 0.776832 0.280902
H36   H     H_    0.426157 0.886919 0.696424 0.310599
H37   H     H_    0.480801 0.184763 0.816415 0.158183
H38   H     H_    0.134030 0.052839 0.670363 0.135792
H39   H     H_    0.247408 0.824150 0.702566 0.133677
H40   H     H_    0.541124 0.904285 0.794398 0.157641
H41   H     H_    0.249480 0.412043 0.896284 0.133495
O1    O     O_R   0.507340 0.255690 0.581430 -0.532089
O2    O     O_R   0.837290 0.593240 0.915240 -0.511571
O3    O     O_R   0.065320 0.635310 0.931580 -0.525605
O4    O     O_R   0.280360 0.527380 0.578910 -0.525725
O5    O     O_R   0.068470 0.828620 0.091850 -0.530312
O6    O     O_R   0.799150 0.057200 0.079350 -0.515812
O7    O     O_R   0.585220 0.080180 0.076770 -0.526899
O8    O     O_R   0.627170 0.809480 0.067050 -0.500724
O9    O     O_R   0.816200 0.596410 0.076500 -0.516667
O10   O     O_R   0.045770 0.638240 0.081070 -0.510872
O11   O     O_3   0.833840 0.833520 0.001110 -0.266928
O12   O     O_R   0.524510 0.695820 0.424050 -0.499372
O13   O     O_R   0.260600 0.739610 0.584580 -0.485163
O14   O     O_R   0.532370 0.695050 0.573830 -0.468343
O15   O     O_R   0.744850 0.503430 0.576380 -0.460388
O16   O     O_R   0.699080 0.276500 0.571950 -0.429554
O17   O     O_R   0.498860 0.256520 0.419860 -0.533681
O18   O     O_R   0.272490 0.528150 0.429140 -0.498588
O19   O     O_R   0.252110 0.740440 0.423010 -0.524753
O20   O     O_3   0.908520 0.429069 0.680523 -0.686396
O21   O     O_3   0.915557 0.205717 0.882435 -0.627323
O22   O     O_3   0.162370 0.075022 0.810852 -0.703244
O23   O     O_R   0.736370 0.504260 0.414810 -0.539591
O24   O     O_3   0.489276 0.902896 0.665262 -0.701856
O25   O     O_R   0.691220 0.277270 0.422180 -0.517764
O26   O     O_3   0.499990 0.499990 0.499980 -0.291799
O27   O     O_R   0.089570 0.825450 0.930590 -0.486463
O28   O     O_R   0.818700 0.054260 0.929860 -0.454141
O29   O     O_R   0.606310 0.077010 0.915520 -0.543817
O30   O     O_R   0.646730 0.806540 0.917560 -0.504429

loop_
_geom_bond_atom_site_label_1
_geom_bond_atom_site_label_2
_ccdc_geom_bond_type
C23   C68   S    
Cr4   O6    S    
C34   C56   S    
C26   H6    S    
C20   H5    S    
C42   H16   S    
C41   C42   A    
H35   O22   S    
C54   H24   S    
C19   C20   A    
C16   O16   A    
C34   C66   S    
C62   O6    A    
C7    C8    A    
C4    O14   A    
Cr3   O23   S    
C53   C54   A    
C1    C21   S    
C55   H25   S    
C26   C27   A    
Cr6   O2    S    
Cr6   O3    S    
C14   C21   A    
H33   O21   S    
C9    C16   S    
C10   C15   A    
Cr1   O17   S    
C30   C31   A    
C14   H39   S    
C52   O25   A    
C32   H11   S    
C46   C52   S    
C43   H17   S    
C49   C57   A    
H36   O24   S    
C61   O3    A    
C18   C19   A    
C7    H38   S    
C27   H8    S    
C61   O27   A    
C1    O4    A    
C56   H31   S    
C5    C69   A    
Cr1   O4    S    
C59   C67   S    
C22   C63   S    
C24   C29   A    
C15   H2    S    
C35   C36   A    
C47   C48   A    
C5    O21   S    
C30   H9    S    
C51   H21   S    
Cr4   O5    S    
C40   O23   A    
C36   C41   A    
C23   C60   S    
C45   H28   S    
Cr2   O14   S    
Cr2   O19   S    
C48   C53   A    
C57   H26   S    
C4    C34   S    
C2    H34   S    
C33   C40   S    
C31   H10   S    
C50   C58   A    
C65   O10   A    
C38   C39   A    
C9    C70   A    
C29   H7    S    
C16   O1    A    
Cr1   O18   S    
C47   C51   A    
Cr5   O29   S    
C64   H40   S    
H32   O20   S    
C67   C69   A    
C64   C66   S    
C66   H22   S    
C35   C39   A    
C43   C44   A    
C68   H23   S    
C40   O12   A    
C29   C30   A    
C12   H30   S    
Cr6   O11   S    
C26   C33   A    
C31   C32   A    
C12   C23   S    
C45   C68   S    
C17   C18   A    
C13   C21   A    
C50   C51   A    
C34   C45   S    
C24   C25   A    
C12   C56   S    
Cr4   O27   S    
C17   H41   S    
C23   C64   S    
C41   H14   S    
Cr3   O15   S    
C22   C27   A    
C55   C57   A    
C8    F1    S    
Cr6   O10   S    
C22   C24   A    
C10   C61   S    
C42   C43   A    
C52   O17   A    
C39   H15   S    
Cr2   O13   S    
Cr3   O25   S    
Cr2   O26   S    
C56   H12   S    
C54   C55   A    
C36   C37   A    
C13   C20   A    
C28   O18   A    
C64   H1    S    
Cr4   O28   S    
C3    C67   A    
C28   O19   A    
C68   H27   S    
C1    O13   A    
C3    H37   S    
C11   C17   A    
C62   O7    A    
Cr2   O12   S    
C6    C7    A    
C66   O24   S    
C28   C58   S    
Cr5   O30   S    
C38   H13   S    
C8    C70   A    
Cr1   O1    S    
Cr5   O8    S    
C53   H20   S    
C37   C44   A    
C2    C3    A    
C44   H18   S    
C12   H29   S    
C11   C13   A    
C50   H19   S    
C5    C6    A    
C25   C32   A    
C48   C49   A    
C45   O20   S    
C60   O2    A    
C35   C62   S    
C65   O5    A    
C6    O22   S    
C69   C70   A    
C38   C46   A    
C63   O8    A    
C10   C11   A    
C49   C58   A    
C59   O28   A    
Cr3   O16   S    
C18   H3    S    
Cr4   O11   S    
Cr6   O9    S    
C14   C15   A    
C4    O15   A    
C60   O30   A    
Cr5   O7    S    
C37   C46   A    
C19   H4    S    
C2    C9    A    
C47   C65   S    
C63   O9    A    
Cr5   O11   S    
C25   C33   A    
Cr1   O26   S    
Cr3   O26   S    
C59   O29   A    
