data_mof_unit_61122.cif
_audit_creation_date              2012-12-10T19:20:45-0500
_audit_creation_method            fapswitch 2.2
_symmetry_space_group_name_H-M    P1
_symmetry_Int_Tables_number       1
_space_group_crystal_system       triclinic
_cell_length_a                    38.893765
_cell_length_b                    38.893182
_cell_length_c                    18.245362
_cell_angle_alpha                 90.001544
_cell_angle_beta                  89.99941
_cell_angle_gamma                 90.0
_cell_volume                      27599.8007001

loop_
_atom_site_label
_atom_site_type_symbol
_atom_type_description
_atom_site_fract_x
_atom_site_fract_y
_atom_site_fract_z
_atom_type_partial_charge
C1    C     C_R   0.567066 0.000000 0.500000 0.882814
C2    C     C_R   1.000000 0.567231 0.499999 0.873424
C3    C     C_R   0.432936 0.000000 0.500000 0.883881
C4    C     C_R   1.000000 0.432769 0.500000 0.873445
C5    C     C_R   0.067232 0.500000 0.000000 0.873416
C6    C     C_R   0.500000 0.067063 1.000000 0.884049
C7    C     C_R   0.932770 0.500000 0.000000 0.873495
C8    C     C_R   0.500000 0.932937 0.000000 0.884045
C9    C     C_R   0.713639 1.000000 0.500001 0.128292
C10   C     C_R   0.000003 0.714307 0.499993 0.128214
C11   C     C_R   0.285890 1.000000 0.499998 0.131545
C12   C     C_R   0.000003 0.285693 0.500003 0.128241
C13   C     C_R   0.214308 0.500000 0.000001 0.128275
C14   C     C_R   0.499999 0.214110 0.999991 0.131532
C15   C     C_R   0.785692 0.500000 0.999998 0.128307
C16   C     C_R   0.499999 0.785890 0.000009 0.131532
C17   C     C_R   0.785436 1.000000 0.500001 0.107226
C18   C     C_R   0.000004 0.785909 0.499993 0.104260
C19   C     C_R   0.214087 1.000000 0.499998 0.103288
C20   C     C_R   0.000004 0.214090 0.500005 0.104269
C21   C     C_R   0.285908 0.500000 0.000001 0.104383
C22   C     C_R   0.499998 0.285912 0.999990 0.103272
C23   C     C_R   0.714087 0.500000 0.999998 0.104324
C24   C     C_R   0.499999 0.714088 0.000009 0.103272
C25   C     C_R   0.658299 0.981705 0.446136 -0.209309
C26   C     C_R   0.025908 0.658979 0.463148 -0.213925
C27   C     C_R   0.341722 0.017970 0.445677 -0.208760
C28   C     C_R   0.974109 0.341020 0.463109 -0.213879
C29   C     C_R   0.341721 0.982030 0.554320 -0.208758
C30   C     C_R   0.974094 0.658982 0.536842 -0.213891
C31   C     C_R   0.658298 0.018295 0.553866 -0.209307
C32   C     C_R   0.025894 0.341022 0.536897 -0.213916
C33   C     C_R   0.158982 0.474081 0.963189 -0.213954
C34   C     C_R   0.517967 0.158277 0.945668 -0.208762
C35   C     C_R   0.841027 0.525844 0.962950 -0.213850
C36   C     C_R   0.482032 0.841721 0.945678 -0.208796
C37   C     C_R   0.841026 0.474155 0.037047 -0.213850
C38   C     C_R   0.482032 0.158279 0.054321 -0.208796
C39   C     C_R   0.158981 0.525919 0.036813 -0.213955
C40   C     C_R   0.517966 0.841723 0.054333 -0.208759
C41   C     C_R   0.622379 0.981398 0.445789 0.072936
C42   C     C_R   0.025997 0.623071 0.461955 0.080146
C43   C     C_R   0.377641 0.018276 0.445376 0.073276
C44   C     C_R   0.974018 0.376929 0.461916 0.080142
C45   C     C_R   0.377640 0.981724 0.554622 0.073274
C46   C     C_R   0.974004 0.623073 0.538037 0.080147
C47   C     C_R   0.622379 0.018602 0.554212 0.072937
C48   C     C_R   0.025982 0.376931 0.538089 0.080142
C49   C     C_R   0.123073 0.473992 0.961994 0.080151
C50   C     C_R   0.518273 0.122358 0.945368 0.073171
C51   C     C_R   0.876935 0.525934 0.961768 0.080115
C52   C     C_R   0.481727 0.877640 0.945374 0.073221
C53   C     C_R   0.876935 0.474066 0.038231 0.080115
C54   C     C_R   0.481726 0.122360 0.054625 0.073219
C55   C     C_R   0.123073 0.526008 0.038008 0.080151
C56   C     C_R   0.518272 0.877642 0.054633 0.073170
C57   C     C_R   0.604466 1.000000 0.500000 -0.054556
C58   C     C_R   0.000000 0.604926 0.499997 -0.070801
C59   C     C_R   0.395537 0.000000 0.499999 -0.054197
C60   C     C_R   0.000000 0.395075 0.500002 -0.070772
C61   C     C_R   0.104927 0.500000 0.000000 -0.070829
C62   C     C_R   0.500000 0.104462 0.999998 -0.054248
C63   C     C_R   0.895079 0.500000 1.000000 -0.070665
C64   C     C_R   0.500000 0.895538 0.000002 -0.054250
C65   C     C_R   0.676140 0.000000 0.500001 0.054702
C66   C     C_R   0.000002 0.676806 0.499995 0.055791
C67   C     C_R   0.323671 1.000000 0.499999 0.059658
C68   C     C_R   0.000002 0.323195 0.500003 0.055808
C69   C     C_R   0.176807 0.500000 0.000001 0.055787
C70   C     C_R   0.499999 0.176329 0.999993 0.059627
C71   C     C_R   0.823197 0.500000 0.999998 0.055856
C72   C     C_R   0.499999 0.823671 0.000007 0.059626
C73   C     C_R   0.000000 0.932602 0.499999 0.873053
C74   C     C_R   0.067397 1.000000 0.500000 0.872540
C75   C     C_R   0.000001 0.067398 0.500001 0.873034
C76   C     C_R   0.932601 1.000000 0.500000 0.872840
C77   C     C_R   0.500000 0.432603 0.999999 0.872496
C78   C     C_R   0.567397 0.500000 1.000000 0.872768
C79   C     C_R   0.500000 0.567397 0.000001 0.872496
C80   C     C_R   0.432602 0.500000 0.000000 0.872816
C81   C     C_R   0.500000 0.000000 0.641036 0.921188
C82   C     C_R   1.000000 0.500000 0.641034 0.919924
C83   C     C_R   0.500000 1.000000 0.358964 0.921190
C84   C     C_R   0.000000 0.500000 0.358965 0.919924
C85   C     C_R   1.000000 0.500000 0.141035 0.919932
C86   C     C_R   0.500000 1.000000 0.141035 0.921651
C87   C     C_R   1.000000 0.500000 0.858965 0.919933
C88   C     C_R   0.500000 0.000000 0.858965 0.921652
C89   C     C_1   0.500000 0.000001 0.717576 -0.197309
C90   C     C_1   1.000000 0.499999 0.717576 -0.196375
C91   C     C_1   0.499999 0.999999 0.282424 -0.197309
C92   C     C_1   0.000000 0.500001 0.282424 -0.196375
C93   C     C_1   0.000000 0.500001 0.217576 -0.196387
C94   C     C_1   0.499999 0.999999 0.217576 -0.197375
C95   C     C_1   1.000000 0.499999 0.782424 -0.196387
C96   C     C_1   0.500000 0.000001 0.782424 -0.197375
C97   C     C_R   0.877077 0.989529 0.437369 -0.191355
C98   C     C_R   0.009279 0.877071 0.563554 -0.192678
C99   C     C_R   0.122923 0.010839 0.437573 -0.192492
C100  C     C_R   0.990674 0.122929 0.563530 -0.192158
C101  C     C_R   0.122923 0.989160 0.562425 -0.192482
C102  C     C_R   0.990725 0.877071 0.436439 -0.192153
C103  C     C_R   0.877077 0.010471 0.562632 -0.191365
C104  C     C_R   0.009332 0.122928 0.436478 -0.192682
C105  C     C_R   0.377070 0.490752 0.063578 -0.192541
C106  C     C_R   0.510839 0.377077 0.937569 -0.192441
C107  C     C_R   0.622924 0.509489 0.063417 -0.192504
C108  C     C_R   0.489161 0.622923 0.937578 -0.192412
C109  C     C_R   0.622924 0.490510 0.936582 -0.192507
C110  C     C_R   0.489160 0.377077 0.062422 -0.192413
C111  C     C_R   0.377070 0.509248 0.936424 -0.192539
C112  C     C_R   0.510839 0.622923 0.062430 -0.192441
C113  C     C_R   0.841351 0.989281 0.437545 -0.174709
C114  C     C_R   0.009511 0.841349 0.563368 -0.175945
C115  C     C_R   0.158656 0.011109 0.437818 -0.175067
C116  C     C_R   0.990445 0.158651 0.563345 -0.175743
C117  C     C_R   0.158656 0.988890 0.562179 -0.175068
C118  C     C_R   0.990496 0.841348 0.436621 -0.175749
C119  C     C_R   0.841351 0.010719 0.562458 -0.174707
C120  C     C_R   0.009564 0.158650 0.436665 -0.175940
C121  C     C_R   0.341348 0.490522 0.063394 -0.175997
C122  C     C_R   0.511109 0.341344 0.937813 -0.175001
C123  C     C_R   0.658647 0.509722 0.063226 -0.175872
C124  C     C_R   0.488890 0.658656 0.937825 -0.175024
C125  C     C_R   0.658647 0.490277 0.936771 -0.175871
C126  C     C_R   0.488890 0.341344 0.062175 -0.175024
C127  C     C_R   0.341348 0.509478 0.936608 -0.175998
C128  C     C_R   0.511109 0.658656 0.062187 -0.175001
C129  C     C_R   0.823207 1.000000 0.500001 0.117388
C130  C     C_R   0.000004 0.823407 0.499994 0.113988
C131  C     C_R   0.176592 1.000000 0.499998 0.113077
C132  C     C_R   0.000005 0.176592 0.500005 0.113990
C133  C     C_R   0.323407 0.500000 0.000001 0.114011
C134  C     C_R   0.499999 0.323408 0.999992 0.113031
C135  C     C_R   0.676588 0.500000 0.999999 0.113918
C136  C     C_R   0.499999 0.676592 0.000007 0.113031
C137  C     C_R   0.895103 1.000000 0.500000 -0.034164
C138  C     C_R   0.000002 0.895107 0.499997 -0.034387
C139  C     C_R   0.104891 1.000000 0.499999 -0.033508
C140  C     C_R   0.000002 0.104893 0.500003 -0.034343
C141  C     C_R   0.395106 0.500000 0.000001 -0.034369
C142  C     C_R   0.500000 0.395108 0.999997 -0.033534
C143  C     C_R   0.604890 0.500000 0.999999 -0.034230
C144  C     C_R   0.500000 0.604891 0.000003 -0.033535
C145  C     C_R   0.767289 0.989741 0.562852 -0.187705
C146  C     C_R   0.970674 0.767965 0.477105 -0.188652
C147  C     C_R   0.232018 0.969895 0.517448 -0.187318
C148  C     C_R   0.029352 0.232035 0.477224 -0.188868
C149  C     C_R   0.232018 0.030104 0.482548 -0.187318
C150  C     C_R   0.029333 0.767965 0.522880 -0.188869
C151  C     C_R   0.767290 0.010259 0.437150 -0.187704
C152  C     C_R   0.970655 0.232034 0.522785 -0.188651
C153  C     C_R   0.267964 0.529318 0.977045 -0.188847
C154  C     C_R   0.469894 0.267982 0.017441 -0.187295
C155  C     C_R   0.732031 0.470589 0.977587 -0.188738
C156  C     C_R   0.530103 0.732019 0.017461 -0.187219
C157  C     C_R   0.732031 0.529411 0.022409 -0.188738
C158  C     C_R   0.530103 0.267981 0.982539 -0.187218
C159  C     C_R   0.267964 0.470682 0.022958 -0.188846
C160  C     C_R   0.469895 0.732018 0.982559 -0.187294
C161  C     C_R   0.731565 0.989990 0.562988 -0.182474
C162  C     C_R   0.970591 0.732244 0.477593 -0.183755
C163  C     C_R   0.267744 0.969806 0.516903 -0.183153
C164  C     C_R   0.029433 0.267757 0.477710 -0.183830
C165  C     C_R   0.267744 0.030193 0.483093 -0.183153
C166  C     C_R   0.029414 0.732243 0.522393 -0.183826
C167  C     C_R   0.731565 0.010010 0.437015 -0.182474
C168  C     C_R   0.970573 0.267756 0.522298 -0.183761
C169  C     C_R   0.232244 0.529400 0.977532 -0.183834
C170  C     C_R   0.469806 0.232255 0.016897 -0.183110
C171  C     C_R   0.767753 0.470509 0.978071 -0.183781
C172  C     C_R   0.530192 0.767745 0.016916 -0.183143
C173  C     C_R   0.767753 0.529490 0.021924 -0.183781
C174  C     C_R   0.530192 0.232255 0.983084 -0.183143
C175  C     C_R   0.232243 0.470600 0.022471 -0.183835
C176  C     C_R   0.469806 0.767745 0.983103 -0.183110
H1    H     H_    0.890583 0.981071 0.388677 0.150469
H2    H     H_    0.016625 0.890552 0.613086 0.151687
H3    H     H_    0.109420 0.019418 0.388977 0.150704
H4    H     H_    0.983288 0.109448 0.613034 0.151773
H5    H     H_    0.109419 0.980582 0.611022 0.150709
H6    H     H_    0.983379 0.890551 0.386908 0.151805
H7    H     H_    0.890583 0.018929 0.611324 0.150465
H8    H     H_    0.016718 0.109446 0.386972 0.151654
H9    H     H_    0.390550 0.483429 0.113125 0.151776
H10   H     H_    0.519417 0.390581 0.888974 0.150760
H11   H     H_    0.609441 0.517003 0.112831 0.151653
H12   H     H_    0.480583 0.609419 0.888980 0.150756
H13   H     H_    0.609441 0.482996 0.887168 0.151652
H14   H     H_    0.480582 0.390581 0.111020 0.150757
H15   H     H_    0.390550 0.516571 0.886876 0.151777
H16   H     H_    0.519417 0.609419 0.111026 0.150759
H17   H     H_    0.827951 0.980318 0.389158 0.128049
H18   H     H_    0.016718 0.827687 0.612781 0.132444
H19   H     H_    0.172335 0.019595 0.389356 0.132565
H20   H     H_    0.983197 0.172313 0.612735 0.132538
H21   H     H_    0.172335 0.980405 0.610641 0.132565
H22   H     H_    0.983289 0.827686 0.387206 0.132535
H23   H     H_    0.827951 0.019682 0.610844 0.128048
H24   H     H_    0.016813 0.172311 0.387276 0.132447
H25   H     H_    0.327686 0.483338 0.112824 0.132475
H26   H     H_    0.519594 0.327664 0.889350 0.132642
H27   H     H_    0.672308 0.517099 0.112528 0.132532
H28   H     H_    0.480405 0.672336 0.889364 0.132602
H29   H     H_    0.672308 0.482900 0.887469 0.132532
H30   H     H_    0.480404 0.327664 0.110636 0.132603
H31   H     H_    0.327687 0.516662 0.887178 0.132475
H32   H     H_    0.519594 0.672336 0.110650 0.132642
H33   H     H_    0.780683 0.981136 0.611537 0.131406
H34   H     H_    0.947814 0.781620 0.459680 0.135062
H35   H     H_    0.218335 0.946398 0.530353 0.134916
H36   H     H_    0.052228 0.218381 0.459887 0.134707
H37   H     H_    0.218336 0.053601 0.469643 0.134915
H38   H     H_    0.052193 0.781620 0.540306 0.134707
H39   H     H_    0.780684 0.018864 0.388465 0.131406
H40   H     H_    0.947780 0.218380 0.540123 0.135061
H41   H     H_    0.281620 0.552169 0.959565 0.134714
H42   H     H_    0.446397 0.281665 0.030347 0.134930
H43   H     H_    0.718377 0.447665 0.960537 0.134765
H44   H     H_    0.553600 0.718336 0.030366 0.134966
H45   H     H_    0.718377 0.552334 0.039459 0.134765
H46   H     H_    0.553600 0.281664 0.969633 0.134966
H47   H     H_    0.281619 0.447831 0.040438 0.134714
H48   H     H_    0.446398 0.718335 0.969652 0.134929
H49   H     H_    0.717876 0.981903 0.611749 0.135019
H50   H     H_    0.947792 0.718575 0.459853 0.136449
H51   H     H_    0.281148 0.946055 0.528842 0.132554
H52   H     H_    0.052249 0.281423 0.460055 0.136277
H53   H     H_    0.281149 0.053944 0.471155 0.132553
H54   H     H_    0.052214 0.718575 0.540134 0.136292
H55   H     H_    0.717877 0.018097 0.388254 0.135019
H56   H     H_    0.947757 0.281422 0.539952 0.136435
H57   H     H_    0.218575 0.552191 0.959739 0.136298
H58   H     H_    0.446055 0.218851 0.028837 0.132562
H59   H     H_    0.781417 0.447644 0.960697 0.136286
H60   H     H_    0.553942 0.781150 0.028856 0.132548
H61   H     H_    0.781417 0.552355 0.039298 0.136286
H62   H     H_    0.553942 0.218850 0.971145 0.132547
H63   H     H_    0.218575 0.447809 0.040264 0.136299
H64   H     H_    0.446055 0.781149 0.971163 0.132563
H65   H     H_    0.672433 0.967545 0.404785 0.135406
H66   H     H_    0.045613 0.673152 0.433957 0.135154
H67   H     H_    0.327849 0.031288 0.402738 0.131045
H68   H     H_    0.954416 0.326846 0.433883 0.135194
H69   H     H_    0.327848 0.968711 0.597260 0.131045
H70   H     H_    0.954390 0.673157 0.566031 0.135208
H71   H     H_    0.672432 0.032455 0.595217 0.135405
H72   H     H_    0.045587 0.326850 0.566123 0.135142
H73   H     H_    0.173156 0.454367 0.934027 0.135161
H74   H     H_    0.531283 0.172150 0.902724 0.131141
H75   H     H_    0.826857 0.545498 0.933601 0.135125
H76   H     H_    0.468717 0.827846 0.902736 0.131061
H77   H     H_    0.826856 0.454501 0.066395 0.135126
H78   H     H_    0.468715 0.172154 0.097263 0.131061
H79   H     H_    0.173155 0.545632 0.065975 0.135160
H80   H     H_    0.531282 0.827850 0.097277 0.131141
O1    O     O_R   0.550910 0.028770 0.500030 -0.606964
O2    O     O_R   0.971230 0.550910 0.500030 -0.602445
O3    O     O_R   0.449090 0.971230 0.500030 -0.607294
O4    O     O_R   0.028770 0.449090 0.500030 -0.602483
O5    O     O_R   0.449090 0.028770 0.499970 -0.607295
O6    O     O_R   0.028770 0.550910 0.499970 -0.602477
O7    O     O_R   0.550910 0.971230 0.499970 -0.606963
O8    O     O_R   0.971230 0.449090 0.499970 -0.602451
O9    O     O_R   0.050910 0.528770 0.000030 -0.602470
O10   O     O_R   0.471230 0.050910 0.000030 -0.607240
O11   O     O_R   0.949090 0.471230 0.000030 -0.602482
O12   O     O_R   0.528770 0.949090 0.000030 -0.607589
O13   O     O_R   0.949090 0.528770 0.999970 -0.602483
O14   O     O_R   0.528770 0.050910 0.999970 -0.607590
O15   O     O_R   0.050910 0.471230 0.999970 -0.602469
O16   O     O_R   0.471230 0.949090 0.999970 -0.607241
O17   O     O_R   0.499990 0.028770 0.607330 -0.618631
O18   O     O_R   0.971230 0.499990 0.607330 -0.619761
O19   O     O_R   0.500010 0.971230 0.607330 -0.618519
O20   O     O_R   0.028770 0.500010 0.607330 -0.619772
O21   O     O_R   0.500010 0.028770 0.392670 -0.618518
O22   O     O_R   0.028770 0.499990 0.392670 -0.619785
O23   O     O_R   0.499990 0.971230 0.392670 -0.618631
O24   O     O_R   0.971230 0.500010 0.392670 -0.619748
O25   O     O_R   0.999990 0.528770 0.107330 -0.619792
O26   O     O_R   0.471230 0.999990 0.107330 -0.618440
O27   O     O_R   0.000010 0.471230 0.107330 -0.619741
O28   O     O_R   0.528770 0.000010 0.107330 -0.618927
O29   O     O_R   0.000010 0.528770 0.892670 -0.619740
O30   O     O_R   0.528770 0.999990 0.892670 -0.618928
O31   O     O_R   0.999990 0.471230 0.892670 -0.619793
O32   O     O_R   0.471230 0.000010 0.892670 -0.618440
O33   O     O_R   1.000000 0.949040 0.560460 -0.624811
O34   O     O_R   0.050960 0.000000 0.560460 -0.624160
O35   O     O_R   1.000000 0.050960 0.560460 -0.624663
O36   O     O_R   0.949040 0.000000 0.560460 -0.624372
O37   O     O_R   1.000000 0.949040 0.439540 -0.624678
O38   O     O_R   0.949040 1.000000 0.439540 -0.624365
O39   O     O_R   1.000000 0.050960 0.439540 -0.624796
O40   O     O_R   0.050960 1.000000 0.439540 -0.624167
O41   O     O_R   0.500000 0.449040 0.060460 -0.624122
O42   O     O_R   0.550960 0.500000 0.060460 -0.624644
O43   O     O_R   0.500000 0.550960 0.060460 -0.624159
O44   O     O_R   0.449040 0.500000 0.060460 -0.624721
O45   O     O_R   0.500000 0.449040 0.939540 -0.624159
O46   O     O_R   0.449040 0.500000 0.939540 -0.624721
O47   O     O_R   0.500000 0.550960 0.939540 -0.624122
O48   O     O_R   0.550960 0.500000 0.939540 -0.624643
Zn1   Zn    Zn3+2 0.500000 0.038410 0.500000 0.975614
Zn2   Zn    Zn3+2 0.961590 0.500000 0.500000 0.975382
Zn3   Zn    Zn3+2 0.500000 0.961590 0.500000 0.975615
Zn4   Zn    Zn3+2 0.038410 0.500000 0.500000 0.975253
Zn5   Zn    Zn3+2 1.000000 0.538410 0.000000 0.975297
Zn6   Zn    Zn3+2 0.461590 0.000000 0.000000 0.975444
Zn7   Zn    Zn3+2 1.000000 0.461590 0.000000 0.975296
Zn8   Zn    Zn3+2 0.538410 0.000000 0.000000 0.973611
Zn9   Zn    Zn3+2 1.000000 0.000000 0.580910 0.944050
Zn10  Zn    Zn3+2 0.000000 1.000000 0.419090 0.944050
Zn11  Zn    Zn3+2 0.500000 0.500000 0.080910 0.944517
Zn12  Zn    Zn3+2 0.500000 0.500000 0.919090 0.944517
N1    N     N_3   0.603929 0.962794 0.390148 -0.436109
H81   H     H_    0.620966 0.949264 0.356473 0.180146
H82   H     H_    0.591647 0.980862 0.356746 0.172635
N2    N     N_3   0.051855 0.604987 0.420823 -0.427798
H83   H     H_    0.070086 0.622102 0.399757 0.175164
H84   H     H_    0.039693 0.593676 0.375754 0.178419
N3    N     N_3   0.396119 0.036436 0.389106 -0.437448
H85   H     H_    0.379128 0.049886 0.355184 0.180003
H86   H     H_    0.408255 0.018101 0.356123 0.173677
N4    N     N_3   0.948174 0.395011 0.420741 -0.427772
H87   H     H_    0.929952 0.377896 0.399644 0.175246
H88   H     H_    0.960352 0.406323 0.375695 0.178392
N5    N     N_3   0.396118 0.963564 0.610893 -0.437447
H89   H     H_    0.379126 0.950114 0.644815 0.180002
H90   H     H_    0.408254 0.981899 0.643875 0.173676
N6    N     N_3   0.948145 0.604992 0.579170 -0.427747
H91   H     H_    0.929915 0.622108 0.600233 0.175238
H92   H     H_    0.960306 0.593682 0.624241 0.178404
N7    N     N_3   0.603928 0.037206 0.609853 -0.436109
H93   H     H_    0.620965 0.050736 0.643529 0.180145
H94   H     H_    0.591645 0.019138 0.643254 0.172636
N8    N     N_3   0.051826 0.395016 0.579266 -0.427826
H95   H     H_    0.070048 0.377901 0.600364 0.175173
H96   H     H_    0.039647 0.406328 0.624311 0.178407
N9    N     N_3   0.104992 0.448120 0.920893 -0.427791
H97   H     H_    0.122108 0.429882 0.899859 0.175162
H98   H     H_    0.093685 0.460268 0.875804 0.178425
N10   N     N_3   0.536430 0.103878 0.889094 -0.437686
H99   H     H_    0.549877 0.120869 0.855166 0.180051
H100  H     H_    0.518093 0.091741 0.856118 0.173716
N11   N     N_3   0.895023 0.551728 0.920460 -0.427853
H101  H     H_    0.877909 0.569919 0.899238 0.175238
H102  H     H_    0.906348 0.539493 0.875496 0.178354
N12   N     N_3   0.463571 0.896117 0.889097 -0.437456
H103  H     H_    0.450124 0.879125 0.855171 0.180015
H104  H     H_    0.481908 0.908252 0.856120 0.173594
N13   N     N_3   0.895022 0.448272 0.079539 -0.427854
H105  H     H_    0.877908 0.430081 0.100761 0.175240
H106  H     H_    0.906346 0.460507 0.124504 0.178356
N14   N     N_3   0.463569 0.103883 0.110902 -0.437456
H107  H     H_    0.450121 0.120875 0.144826 0.180016
H108  H     H_    0.481906 0.091748 0.143880 0.173594
N15   N     N_3   0.104992 0.551880 0.079108 -0.427790
H109  H     H_    0.122107 0.570118 0.100143 0.175160
H110  H     H_    0.093684 0.539731 0.124197 0.178423
N16   N     N_3   0.536429 0.896122 0.110908 -0.437687
H111  H     H_    0.549873 0.879131 0.144839 0.180052
H112  H     H_    0.518092 0.908261 0.143879 0.173717

loop_
_geom_bond_atom_site_label_1
_geom_bond_atom_site_label_2
_ccdc_geom_bond_type
O14   Zn8   S    
C111  H15   S    
C23   C155  A    
C6    O14   A    
C14   C170  A    
O5    Zn1   S    
C42   C58   A    
C38   C70   A    
C90   C95   T    
C78   O48   A    
O4    Zn4   S    
C34   H74   S    
C103  H7    S    
C45   N5    S    
C82   O18   A    
C87   O31   A    
C83   O23   A    
C75   C140  S    
C88   O32   A    
C98   C114  A    
C39   H79   S    
C154  C170  A    
C13   C175  A    
C127  H31   S    
O47   Zn12  S    
C1    O7    A    
C158  C174  A    
C3    O5    A    
C16   C72   S    
N4    H87   S    
C30   H70   S    
O13   Zn5   S    
O37   Zn10  S    
C33   C69   A    
C125  C135  A    
C10   C66   S    
C35   C71   A    
C10   C162  A    
C85   O25   A    
C165  H53   S    
C21   C159  A    
C17   C151  A    
C113  H17   S    
C108  C124  A    
C163  H51   S    
C21   C133  S    
N13   H106  S    
O48   Zn12  S    
C172  H60   S    
C5    O15   A    
C15   C173  A    
N3    H85   S    
C102  H6    S    
C106  H10   S    
C148  H36   S    
C25   C41   A    
N7    H94   S    
O3    Zn3   S    
C54   C62   A    
C28   C44   A    
C104  C140  A    
C29   C45   A    
C148  C164  A    
C11   C163  A    
C145  C161  A    
C168  H56   S    
O23   Zn3   S    
C7    O13   A    
C156  H44   S    
O12   Zn8   S    
C75   O35   A    
C38   H78   S    
C32   H72   S    
C37   C71   A    
C35   C51   A    
C18   C130  S    
O9    Zn5   S    
C55   C61   A    
C107  C143  A    
C108  C144  A    
O11   Zn7   S    
O18   Zn2   S    
C77   O41   A    
C31   C65   A    
C45   C59   A    
C114  H18   S    
C108  H12   S    
C87   O29   A    
O25   Zn5   S    
C83   O21   A    
C52   N12   S    
C123  H27   S    
C83   C91   S    
C114  C130  A    
C50   N10   S    
O35   Zn9   S    
C89   C96   T    
C103  C137  A    
C121  H25   S    
O20   Zn4   S    
C91   C94   T    
C122  H26   S    
C2    O6    A    
O29   Zn5   S    
C3    O3    A    
C125  H29   S    
C36   H76   S    
N12   H103  S    
C9    C65   S    
N7    H93   S    
C40   H80   S    
C126  C134  A    
C85   O27   A    
N15   H109  S    
C11   C165  A    
C21   C153  A    
C28   H68   S    
C53   N13   S    
C18   C150  A    
C24   C156  A    
C100  C140  A    
O45   Zn12  S    
C149  H37   S    
C101  C139  A    
C171  H59   S    
C76   C137  S    
C12   C68   S    
C169  H57   S    
C28   C68   A    
C126  H30   S    
C173  H61   S    
N16   H111  S    
C150  C166  A    
C122  C134  A    
C85   C93   S    
C84   O22   A    
C6    O10   A    
O34   Zn9   S    
C56   C64   A    
C98   H2    S    
C153  H41   S    
C151  C167  A    
C36   C52   A    
C43   C59   A    
C37   C53   A    
C24   C136  S    
C13   C169  A    
C46   C58   A    
C157  H45   S    
N5    H90   S    
C99   C139  A    
C97   C137  A    
C162  H50   S    
C48   N8    S    
C145  H33   S    
N9    H98   S    
C86   O26   A    
O40   Zn10  S    
C26   C66   A    
C149  C165  A    
N6    H91   S    
N15   H110  S    
C79   O43   A    
O30   Zn8   S    
C156  C172  A    
C123  C135  A    
N3    H86   S    
N2    H84   S    
C7    O11   A    
C1    C57   S    
C47   C57   A    
C116  C132  A    
C47   N7    S    
C10   C166  A    
C4    C60   S    
C46   N6    S    
C39   C69   A    
C5    C61   S    
C9    C161  A    
C7    C63   S    
C8    C64   S    
C110  C126  A    
N8    H96   S    
C118  H22   S    
C55   N15   S    
C101  H5    S    
C26   C42   A    
O33   Zn9   S    
C40   C72   A    
O46   Zn12  S    
C30   C46   A    
C27   H67   S    
C44   N4    S    
C25   H65   S    
C128  H32   S    
C8    O16   A    
C147  C163  A    
C53   C63   A    
C54   N14   S    
C13   C69   S    
C175  H63   S    
C84   O24   A    
C119  C129  A    
C51   N11   S    
C117  C131  A    
C76   O36   A    
C27   C67   A    
C111  C141  A    
C116  H20   S    
C49   N9    S    
C78   O42   A    
N10   H99   S    
C4    O4    A    
C151  H39   S    
C84   C92   S    
O6    Zn4   S    
O1    Zn1   S    
C36   C72   A    
C100  H4    S    
C88   C96   S    
C14   C70   S    
C100  C116  A    
C107  C123  A    
O21   Zn1   S    
N13   H105  S    
C80   O46   A    
C146  C162  A    
C119  H23   S    
C20   C132  S    
C128  C136  A    
C99   C115  A    
O27   Zn7   S    
C33   C49   A    
C42   N2    S    
N1    H82   S    
C75   O39   A    
C29   C67   A    
C39   C55   A    
C73   O33   A    
C40   C56   A    
C106  C142  A    
C34   C70   A    
C81   C89   S    
C16   C176  A    
C166  H54   S    
C31   C47   A    
C32   C48   A    
C147  H35   S    
C152  C168  A    
C1    O1    A    
C49   C61   A    
C124  C136  A    
C104  H8    S    
C26   H66   S    
C51   C63   A    
C52   C64   A    
N11   H101  S    
C22   C158  A    
O39   Zn10  S    
C19   C147  A    
C20   C152  A    
C155  H43   S    
C98   C138  A    
O15   Zn7   S    
C17   C145  A    
C106  C122  A    
C99   H3    S    
C118  C130  A    
C112  H16   S    
C152  H40   S    
C97   H1    S    
C38   C54   A    
C41   N1    S    
C35   H75   S    
C15   C171  A    
C109  C143  A    
N12   H104  S    
O41   Zn11  S    
C176  H64   S    
C124  H28   S    
C37   H77   S    
C4    O8    A    
C79   O47   A    
O22   Zn4   S    
C115  H19   S    
C29   H69   S    
C127  C133  A    
C2    C58   S    
C15   C71   S    
C82   C90   S    
C23   C135  S    
C101  C117  A    
C6    C62   S    
C41   C57   A    
C14   C174  A    
N16   H112  S    
C44   C60   A    
C92   C93   T    
C120  H24   S    
C110  H14   S    
C81   O17   A    
O16   Zn6   S    
C112  C128  A    
C27   C43   A    
C80   C141  S    
C153  C169  A    
C157  C173  A    
C104  C120  A    
C107  H11   S    
N5    H89   S    
C8    O12   A    
O28   Zn8   S    
C115  C131  A    
N9    H97   S    
C76   O38   A    
C170  H58   S    
C56   N16   S    
C113  C129  A    
C22   C134  S    
N6    H92   S    
C174  H62   S    
C105  C141  A    
C19   C131  S    
C12   C164  A    
C73   C138  S    
O44   Zn11  S    
C23   C157  A    
C73   O37   A    
C102  C138  A    
C105  H9    S    
C110  C142  A    
C77   C142  S    
O2    Zn2   S    
C19   C149  A    
O38   Zn10  S    
C109  H13   S    
C154  H42   S    
C86   C94   S    
C102  C118  A    
O43   Zn11  S    
C32   C68   A    
C158  H46   S    
C159  C175  A    
C160  C176  A    
C31   H71   S    
O10   Zn6   S    
O26   Zn6   S    
O32   Zn6   S    
C146  H34   S    
C11   C67   S    
C48   C60   A    
C161  H49   S    
O24   Zn2   S    
C34   C50   A    
C17   C129  S    
C9    C167  A    
C25   C65   A    
C43   N3    S    
O36   Zn9   S    
O17   Zn1   S    
C77   O45   A    
C87   C95   S    
C81   O19   A    
N14   H108  S    
C82   O20   A    
C88   O30   A    
N11   H102  S    
C74   O34   A    
C16   C172  A    
C79   C144  S    
C5    O9    A    
C20   C148  A    
C105  C121  A    
C164  H52   S    
C86   O28   A    
C30   C66   A    
C109  C125  A    
C2    O2    A    
N10   H100  S    
C111  C127  A    
C50   C62   A    
C97   C113  A    
O19   Zn3   S    
C117  H21   S    
C22   C154  A    
O8    Zn2   S    
C160  H48   S    
C120  C132  A    
C103  C119  A    
C18   C146  A    
O42   Zn11  S    
C12   C168  A    
N4    H88   S    
C24   C160  A    
C167  H55   S    
C74   C139  S    
C121  C133  A    
N2    H83   S    
C112  C144  A    
C74   O40   A    
O7    Zn3   S    
C78   C143  S    
C159  H47   S    
C33   H73   S    
N14   H107  S    
C150  H38   S    
N1    H81   S    
C80   O44   A    
C155  C171  A    
N8    H95   S    
O31   Zn7   S    
C3    C59   S    
