data_mof_unit_12848.cif
_audit_creation_date              2013-03-05T16:19:19-0500
_audit_creation_method            fapswitch 2.2
_symmetry_space_group_name_H-M    P1
_symmetry_Int_Tables_number       1
_space_group_crystal_system       triclinic
_cell_length_a                    10.935928
_cell_length_b                    10.198025
_cell_length_c                    23.376993
_cell_angle_alpha                 89.931575
_cell_angle_beta                  88.189238
_cell_angle_gamma                 89.731379
_cell_volume                      2605.78409074

loop_
_atom_site_label
_atom_site_type_symbol
_atom_site_description
_atom_site_fract_x
_atom_site_fract_y
_atom_site_fract_z
_atom_type_partial_charge
O1    O     O_R   0.314910 0.616040 0.499990 -0.593653
O2    O     O_R   0.314910 0.383960 0.499990 -0.636300
C1    C     C_R   0.259365 0.500212 0.506495 0.948595
O3    O     O_R   0.500080 0.616070 0.416130 -0.605556
O4    O     O_R   0.500080 0.383930 0.416130 -0.542808
C2    C     C_R   0.499675 0.500542 0.390262 0.853412
Zn1   Zn    Zn3+2 0.500150 0.654960 0.499970 1.049312
Zn2   Zn    Zn3+2 0.500150 0.345040 0.499970 1.057488
O5    O     O_R   0.685320 0.616040 0.499970 -0.570114
O6    O     O_R   0.685320 0.383960 0.499970 -0.591033
O7    O     O_R   0.500150 0.616010 0.583820 -0.606344
O8    O     O_R   0.500150 0.383990 0.583820 -0.559283
C3    C     C_R   0.741411 0.499925 0.501049 0.942510
C4    C     C_R   0.500665 0.499449 0.609737 0.934466
C5    C     C_R   0.618205 0.471448 0.878765 0.606163
N1    N     N_R   0.509138 0.481997 0.851943 -0.348917
C6    C     C_R   0.400269 0.492549 0.882178 0.478261
C7    C     C_R   0.398450 0.493233 0.941893 0.003287
C8    C     C_R   0.510395 0.489672 0.970113 -0.022644
C9    C     C_R   0.621324 0.479710 0.938341 -0.112714
C10   C     C_R   0.287775 0.499645 0.973774 -0.156507
C11   C     C_R   0.288115 0.502757 0.033185 -0.160798
C12   C     C_R   0.399205 0.502464 0.061662 -0.007303
C13   C     C_R   0.511183 0.497127 0.030131 -0.087729
C14   C     C_R   0.623480 0.499626 0.058419 -0.136278
C15   C     C_R   0.734895 0.489074 0.026125 0.545562
C16   C     C_R   0.732535 0.479943 0.966458 -0.256195
C17   C     C_R   0.401041 0.506282 0.121191 0.571940
N2    N     N_R   0.510057 0.512126 0.148056 -0.349441
C18   C     C_R   0.619879 0.511295 0.118300 0.512596
O9    O     O_2   0.723137 0.453138 0.847764 -0.516942
O10   O     O_2   0.294365 0.504697 0.854446 -0.552454
H1    H     H_    0.200637 0.501753 0.952994 0.196831
H2    H     H_    0.201162 0.506938 0.056645 0.196100
O11   O     O_2   0.294814 0.502616 0.152194 -0.536906
O12   O     O_2   0.724599 0.521870 0.146931 -0.514215
H3    H     H_    0.818601 0.475412 0.942268 0.208321
C19   C     C_R   0.563891 0.408125 0.237768 -0.218640
H4    H     H_    0.608375 0.329238 0.213992 0.162089
C20   C     C_R   0.561969 0.405528 0.296986 -0.228903
H5    H     H_    0.609581 0.328212 0.318464 0.179936
C21   C     C_R   0.501154 0.503873 0.328159 -0.093193
C22   C     C_R   0.446754 0.609197 0.299733 -0.327258
H6    H     H_    0.400315 0.686852 0.323570 0.197440
C23   C     C_R   0.453868 0.616176 0.240207 0.594609
C24   C     C_R   0.509424 0.512655 0.209122 0.198306
C25   C     C_R   0.442305 0.392860 0.761197 -0.204508
H7    H     H_    0.393629 0.315795 0.784110 0.179566
C26   C     C_R   0.437223 0.399288 0.702104 -0.189704
H8    H     H_    0.383879 0.327240 0.680052 0.245718
C27   C     C_R   0.502545 0.496175 0.671865 -0.118550
C28   C     C_R   0.572892 0.586427 0.701181 -0.327305
H9    H     H_    0.627212 0.657919 0.678008 0.175487
C29   C     C_R   0.572312 0.586075 0.760675 0.600345
C30   C     C_R   0.508829 0.486401 0.790847 0.185492
C31   C     C_3   0.061207 0.609361 0.550637 -0.289096
C32   C     C_3   0.067470 0.366178 0.532716 -0.282780
H10   H     H_    0.090061 0.701259 0.532641 0.155459
H11   H     H_    0.093191 0.295742 0.498809 0.166402
C33   C     C_3   0.919193 0.616411 0.543937 0.275554
C34   C     C_3   0.924871 0.371453 0.533655 0.285535
H12   H     H_    0.896567 0.706847 0.520710 0.143042
H13   H     H_    0.893101 0.286546 0.507937 0.125601
H14   H     H_    0.121467 0.613887 0.435287 0.225312
H15   H     H_    0.125081 0.443302 0.421609 0.189999
C35   C     C_3   0.081196 0.519953 0.449274 -0.615084
C36   C     C_3   0.120566 0.499340 0.511478 -0.208459
C37   C     C_3   0.879137 0.501009 0.504778 -0.140049
C38   C     C_3   0.939628 0.518209 0.442584 0.875972
C39   C     C_3   0.375323 0.080220 0.489649 -0.309891
C40   C     C_3   0.384445 0.926759 0.476628 -0.301227
H16   H     H_    0.337536 0.127983 0.451096 0.186666
H17   H     H_    0.384193 0.920177 0.429344 0.177507
C41   C     C_3   0.579657 0.085435 0.448948 0.786014
C42   C     C_3   0.598831 0.918442 0.456952 0.709375
C43   C     C_3   0.548176 0.075535 0.552627 0.334742
C44   C     C_3   0.522565 0.919355 0.556365 0.318337
N3    N     N_3   0.499750 0.138610 0.498760 -0.177779
N4    N     N_3   0.499750 0.861390 0.498760 -0.186254
H18   H     H_    0.647258 0.090073 0.551145 0.007030
H19   H     H_    0.604193 0.868850 0.572242 0.067858
O13   O     O_3   0.640004 0.678538 0.788832 -0.575421
C45   C     C_3   0.561886 0.783115 0.805264 -0.331018
H20   H     H_    0.488355 0.750414 0.835938 0.174870
H21   H     H_    0.521379 0.830835 0.767460 0.131647
H22   H     H_    0.616537 0.858115 0.827217 0.208361
C46   C     C_2   0.103802 0.607457 0.612188 1.026478
O14   O     O_2   0.046300 0.548425 0.649787 -0.537244
O15   O     O_R   0.211932 0.670185 0.625774 -0.756201
H23   H     H_    0.230359 0.660427 0.667805 0.326514
C47   C     C_2   0.119194 0.319004 0.589843 1.119925
O16   O     O_2   0.215183 0.362606 0.607102 -0.655122
O17   O     O_R   0.058717 0.222996 0.622507 -0.782464
H24   H     H_    0.094426 0.210871 0.661692 0.338776
O18   O     O_3   0.851400 0.614546 0.597032 -0.521981
C48   C     C_3   0.852494 0.736828 0.625566 -0.218346
H25   H     H_    0.761667 0.783601 0.622940 0.127753
H26   H     H_    0.925142 0.805258 0.609729 0.118201
H27   H     H_    0.867348 0.719150 0.671658 0.227836
O19   O     O_3   0.879886 0.369652 0.591259 -0.509128
C49   C     C_3   0.811547 0.257258 0.603806 -0.178783
H28   H     H_    0.852578 0.166095 0.585385 0.147074
H29   H     H_    0.718654 0.273180 0.588689 0.198844
H30   H     H_    0.808402 0.244857 0.650923 0.197167
O20   O     O_3   0.892425 0.638143 0.419701 -0.648060
C50   C     C_3   0.955314 0.694632 0.371465 -0.351721
H31   H     H_    0.975929 0.798354 0.381220 0.207425
H32   H     H_    0.894555 0.695219 0.334441 0.164229
H33   H     H_    0.041210 0.646659 0.356545 0.174285
O21   O     O_3   0.902289 0.406627 0.410743 -0.662576
C51   C     C_3   0.929046 0.411224 0.351232 -0.289777
H34   H     H_    0.024863 0.438460 0.340445 0.164292
H35   H     H_    0.861649 0.473829 0.329427 0.198246
H36   H     H_    0.918990 0.311501 0.333394 0.158837
C52   C     C_2   0.273634 0.107446 0.534313 1.064840
O22   O     O_2   0.168620 0.099321 0.518371 -0.715761
O23   O     O_R   0.292042 0.104505 0.592848 -0.675333
H37   H     H_    0.221821 0.063182 0.615462 0.358054
C53   C     C_2   0.266259 0.861186 0.490449 1.081856
O24   O     O_2   0.234250 0.844796 0.540238 -0.552936
O25   O     O_R   0.183678 0.844083 0.446611 -0.860483
H38   H     H_    0.096106 0.836349 0.461277 0.315782
O26   O     O_3   0.517188 0.129969 0.398526 -0.598180
C54   C     C_3   0.530537 0.067149 0.344806 -0.296727
H39   H     H_    0.462012 0.988197 0.340836 0.206498
H40   H     H_    0.624180 0.033815 0.333625 0.151366
H41   H     H_    0.505652 0.138068 0.311254 0.174002
O27   O     O_3   0.574311 0.858718 0.403069 -0.654265
C55   C     C_3   0.671364 0.794276 0.372916 -0.105533
H42   H     H_    0.694832 0.701724 0.394182 0.264475
H43   H     H_    0.753233 0.854628 0.366739 0.133611
H44   H     H_    0.640721 0.769409 0.329588 0.114116
O28   O     O_3   0.503687 0.142797 0.602188 -0.487292
C56   C     C_3   0.574243 0.124061 0.651404 -0.291498
H45   H     H_    0.606549 0.220030 0.666341 0.175398
H46   H     H_    0.653208 0.055611 0.645505 0.091339
H47   H     H_    0.514558 0.090785 0.687489 0.174502
O29   O     O_3   0.420364 0.892729 0.593472 -0.494491
C57   C     C_3   0.448394 0.858161 0.650088 -0.079634
H48   H     H_    0.393030 0.920334 0.679965 0.152548
H49   H     H_    0.546326 0.864542 0.660533 0.057217
H50   H     H_    0.417000 0.757885 0.658893 0.188795
O30   O     O_3   0.689451 0.158008 0.451097 -0.619785
C58   C     C_3   0.769670 0.144658 0.403269 -0.232052
H51   H     H_    0.740540 0.207395 0.367650 0.189697
H52   H     H_    0.783460 0.043190 0.390324 0.132762
H53   H     H_    0.861638 0.175548 0.415878 0.209237
O31   O     O_3   0.718306 0.870602 0.473060 -0.591765
C59   C     C_3   0.802537 0.941278 0.506102 -0.400522
H54   H     H_    0.788972 0.922144 0.551884 0.132120
H55   H     H_    0.813026 0.045643 0.500682 0.197994
H56   H     H_    0.895461 0.906784 0.493599 0.202752
O32   O     O_3   0.846580 0.495949 0.052160 -0.555390
C60   C     C_3   0.899074 0.369407 0.053298 -0.237220
H57   H     H_    0.836635 0.297682 0.075030 0.156487
H58   H     H_    0.983799 0.373638 0.078092 0.202053
H59   H     H_    0.925313 0.334998 0.009464 0.141517
O33   O     O_3   0.400800 0.720510 0.212424 -0.574578
C61   C     C_3   0.488999 0.820062 0.205512 -0.335922
H60   H     H_    0.569599 0.785754 0.179235 0.177249
H61   H     H_    0.518499 0.857172 0.247608 0.143563
H62   H     H_    0.447310 0.903495 0.182566 0.205190

loop_
_geom_bond_atom_site_label_1
_geom_bond_atom_site_label_2
_geom_bond_distance
_ccdc_geom_bond_type
C46   O14   1.223841 D    
O17   H24   1.014273 S    
C39   N3    1.509219 S    
C7    C10   1.402506 A    
C8    C9    1.405603 A    
C41   O30   1.415695 S    
O27   C55   1.415107 S    
C26   H8    1.081602 S    
C56   H47   1.104245 S    
C40   N4    1.527953 S    
O28   C56   1.417661 S    
O26   C54   1.413595 S    
C25   C26   1.385746 A    
C23   C24   1.406989 A    
Zn1   O7    1.999535 S    
C15   C16   1.399108 A    
C49   H28   1.111713 S    
Zn1   N4    2.105321 S    
C54   H40   1.101204 S    
C17   N2    1.366505 A    
C43   N3    1.522149 S    
C7    C8    1.409184 A    
C58   H53   1.104348 S    
C61   H60   1.113581 S    
O4    C2    1.333540 A    
O7    C4    1.333622 A    
C32   H11   1.099425 S    
C35   C38   1.561147 S    
C10   H1    1.083305 S    
C50   H31   1.108041 S    
O30   C58   1.405523 S    
C48   H27   1.109148 S    
C33   H12   1.100815 S    
C42   O27   1.433255 S    
C34   H13   1.117668 S    
O5    C3    1.331619 A    
O21   C51   1.413322 S    
C45   H20   1.112434 S    
C17   O11   1.350302 S    
C37   C38   1.588058 S    
C26   C27   1.399744 A    
C48   H26   1.114121 S    
C12   C13   1.410074 A    
C61   H61   1.112581 S    
C39   C40   1.596741 S    
C41   O26   1.452260 S    
C60   H58   1.109359 S    
C44   O29   1.420004 S    
C55   H44   1.106989 S    
C53   O25   1.398795 S    
C35   C36   1.543413 S    
C49   H29   1.097379 S    
C10   C11   1.389362 A    
Zn2   N3    2.105430 S    
C32   C36   1.554139 S    
O3    Zn1   2.000140 S    
C28   C29   1.390622 A    
C44   N4    1.499873 S    
C5    C9    1.396858 A    
C11   H2    1.083302 S    
C57   H48   1.107758 S    
O2    Zn2   2.062445 S    
C41   C42   1.725564 S    
C27   C28   1.396444 A    
C43   C44   1.620240 S    
C60   H59   1.112128 S    
C58   H52   1.086954 S    
C59   H56   1.104530 S    
C47   O16   1.222294 D    
C40   H17   1.107551 S    
C38   O20   1.434771 S    
N1    C6    1.369095 A    
C31   C46   1.526413 S    
C56   H46   1.113141 S    
C52   O23   1.389650 S    
C14   C15   1.416652 A    
C31   C33   1.567153 S    
O1    C1    1.337106 A    
H14   C35   1.101184 S    
C22   H6    1.083975 S    
N2    C18   1.368739 A    
C47   O17   1.396949 S    
C38   O21   1.428710 S    
C25   H7    1.082960 S    
C44   H19   1.102761 S    
Zn2   O8    2.000465 S    
C48   H25   1.103276 S    
C6    C7    1.395507 A    
C60   H57   1.114107 S    
C61   H62   1.109176 S    
C51   H35   1.108717 S    
C12   C17   1.392993 A    
C13   C14   1.413427 A    
C5    O9    1.350053 S    
C22   C23   1.392994 A    
O25   H38   1.010355 S    
C54   H41   1.105710 S    
O3    C2    1.325016 A    
C20   H5    1.075465 S    
C45   H21   1.111637 S    
O8    C4    1.324947 A    
H15   C35   1.112523 S    
C49   H30   1.108009 S    
C46   O15   1.392739 S    
C2    C21   1.451728 S    
O33   C61   1.409289 S    
C42   O31   1.453136 S    
C43   O28   1.418688 S    
C34   O19   1.419113 S    
C21   C22   1.402316 A    
C29   O13   1.381735 S    
C28   H9    1.077347 S    
C25   C30   1.399879 A    
C55   H42   1.099333 S    
C14   C18   1.404336 A    
Zn1   O5    2.061711 S    
C29   C30   1.409479 A    
C32   C47   1.542241 S    
C51   H34   1.106607 S    
O1    Zn1   2.066097 S    
C1    C36   1.518749 S    
C23   O33   1.380984 S    
C43   H18   1.093793 S    
C58   H51   1.103507 S    
O6    C3    1.335413 A    
O4    Zn2   1.999210 S    
C53   O24   1.216351 D    
C32   C34   1.559591 S    
C56   H45   1.102935 S    
C9    C16   1.400610 A    
C18   O12   1.349391 S    
C39   C52   1.525888 S    
C31   C36   1.573633 S    
O20   C50   1.424613 S    
C40   C53   1.484347 S    
N2    C24   1.427363 S    
C59   H55   1.077914 S    
C8    C13   1.405478 A    
O32   C60   1.410516 S    
N1    C30   1.428994 S    
O23   H37   1.011745 S    
C19   C20   1.384065 A    
C57   H49   1.108175 S    
C34   C37   1.569867 S    
C52   O22   1.221731 D    
C19   H4    1.083086 S    
C50   H32   1.107663 S    
C16   H3    1.083419 S    
C20   C21   1.394299 A    
O19   C49   1.397030 S    
C57   H50   1.097409 S    
C31   H10   1.071577 S    
O2    C1    1.336205 A    
C51   H36   1.106886 S    
O31   C59   1.420262 S    
C19   C24   1.398974 A    
O29   C57   1.411890 S    
C33   O18   1.425665 S    
C45   H22   1.109127 S    
C33   C37   1.564500 S    
C4    C27   1.453499 S    
Zn2   O6    2.065363 S    
O13   C45   1.409416 S    
C41   N3    1.531789 S    
O18   C48   1.415206 S    
C6    O10   1.350134 S    
C11   C12   1.403616 A    
C15   O32   1.383832 S    
C39   H16   1.113958 S    
O15   H23   1.013903 S    
C59   H54   1.093269 S    
C42   N4    1.550931 S    
C3    C37   1.511523 S    
C5    N1    1.368680 A    
C54   H39   1.108462 S    
C55   H43   1.094546 S    
C50   H33   1.103986 S    
