data_mof_unit_27913.cif
_audit_creation_date              2013-03-05T15:45:32-0500
_audit_creation_method            fapswitch 2.2
_symmetry_space_group_name_H-M    P1
_symmetry_Int_Tables_number       1
_space_group_crystal_system       triclinic
_cell_length_a                    11.155355
_cell_length_b                    11.024252
_cell_length_c                    18.919222
_cell_angle_alpha                 90.024758
_cell_angle_beta                  89.469415
_cell_angle_gamma                 59.95792
_cell_volume                      2013.98419599

loop_
_atom_site_label
_atom_site_type_symbol
_atom_site_description
_atom_site_fract_x
_atom_site_fract_y
_atom_site_fract_z
_atom_type_partial_charge
O1    O     O_R   0.507430 0.255570 0.581420 -0.466519
O2    O     O_R   0.280190 0.527390 0.578910 -0.433293
C1    C     C_R   0.231942 0.648425 0.608453 0.598165
O3    O     O_R   0.260310 0.739740 0.584580 -0.472123
O4    O     O_R   0.532250 0.695150 0.573830 -0.424586
C2    C     C_R   0.654191 0.622255 0.600346 0.572403
O5    O     O_R   0.744930 0.503430 0.576380 -0.473672
O6    O     O_R   0.699250 0.276390 0.571950 -0.487673
C3    C     C_R   0.630020 0.223970 0.601155 0.581993
O7    O     O_R   0.499020 0.256400 0.419850 -0.467643
O8    O     O_R   0.272400 0.528160 0.429140 -0.488671
C4    C     C_R   0.222527 0.650128 0.401907 0.560872
O9    O     O_R   0.251910 0.740570 0.423020 -0.500620
O10   O     O_R   0.524460 0.695920 0.424060 -0.516267
C5    C     C_R   0.640097 0.617014 0.390575 0.539069
O11   O     O_R   0.736530 0.504260 0.414810 -0.473516
O12   O     O_R   0.691460 0.277160 0.422180 -0.463637
C6    C     C_R   0.612242 0.235096 0.393682 0.588364
Cr1   Cr    Cr6+3 0.392930 0.397900 0.502230 1.167523
Cr2   Cr    Cr6+3 0.398240 0.708600 0.501260 1.146436
Cr3   Cr    Cr6+3 0.708800 0.393470 0.496460 1.153463
O13   O     O_3   0.499990 0.499990 0.499980 -0.314768
C7    C     C_3   0.591748 0.811919 0.780203 -0.227069
H1    H     H_    0.605886 0.901456 0.793957 0.183370
H2    H     H_    0.491769 0.834479 0.804774 0.248378
C8    C     C_3   0.586195 0.803355 0.699444 0.070180
H3    H     H_    0.634243 0.861250 0.675766 0.149546
H4    H     H_    0.857796 0.660799 0.648350 0.168156
C9    C     C_3   0.848062 0.638105 0.765814 0.386332
C10   C     C_3   0.670248 0.559478 0.801678 0.045127
C11   C     C_3   0.712390 0.672846 0.810286 -0.075736
H5    H     H_    0.569576 0.600761 0.830573 0.180347
C12   C     C_3   0.676368 0.645242 0.675211 -0.056229
C13   C     C_3   0.831646 0.602017 0.687071 0.068083
C14   C     C_3   0.650145 0.542480 0.722092 0.096811
H6    H     H_    0.723439 0.433177 0.705154 0.200129
C15   C     C_R   0.787385 0.146443 0.706990 -0.087000
H7    H     H_    0.869605 0.150634 0.678231 0.184531
C16   C     C_R   0.796730 0.127874 0.780489 -0.049920
H8    H     H_    0.890939 0.102793 0.807017 0.223581
C17   C     C_R   0.683494 0.143408 0.820333 0.043869
C18   C     C_R   0.563711 0.162676 0.783416 0.187601
C19   C     C_R   0.570596 0.148906 0.710531 -0.057526
H9    H     H_    0.487087 0.145796 0.683710 0.229147
C20   C     C_R   0.670972 0.160475 0.671713 0.011706
C21   C     C_R   0.211478 0.551833 0.724573 0.304293
C22   C     C_R   0.212913 0.562858 0.797737 -0.040892
H10   H     H_    0.232948 0.475297 0.829509 0.238664
C23   C     C_R   0.170689 0.689273 0.831103 0.013891
C24   C     C_R   0.147043 0.806468 0.789045 0.238751
C25   C     C_R   0.136890 0.798491 0.715274 -0.026432
H11   H     H_    0.119639 0.887308 0.683462 0.189851
C26   C     C_R   0.178130 0.668927 0.681888 0.051142
C27   C     C_R   0.718767 0.520614 0.268937 0.132258
C28   C     C_R   0.707905 0.540953 0.196110 0.197911
C29   C     C_R   0.655018 0.677184 0.169794 0.046552
C30   C     C_R   0.593337 0.793313 0.217128 0.209307
C31   C     C_R   0.588778 0.772508 0.288988 -0.127914
H12   H     H_    0.535184 0.861921 0.324267 0.191961
C32   C     C_R   0.653949 0.637826 0.315656 -0.061896
C33   C     C_R   0.512072 0.241016 0.276266 0.210932
C34   C     C_R   0.526855 0.239978 0.203500 0.281119
C35   C     C_R   0.658464 0.161457 0.174421 -0.002127
C36   C     C_R   0.776702 0.104719 0.217723 -0.127956
H13   H     H_    0.879728 0.040171 0.195643 0.211041
C37   C     C_R   0.764187 0.119675 0.290453 0.155106
C38   C     C_R   0.631169 0.190836 0.320207 -0.026364
C39   C     C_R   0.209866 0.750478 0.287637 -0.063974
H14   H     H_    0.259366 0.806868 0.307881 0.209132
C40   C     C_R   0.189825 0.755667 0.216783 0.154345
C41   C     C_R   0.132585 0.679501 0.186320 0.017657
C42   C     C_R   0.094723 0.599037 0.230066 0.223628
C43   C     C_R   0.112037 0.598714 0.302715 -0.065663
H15   H     H_    0.084613 0.536639 0.336601 0.201026
C44   C     C_R   0.172019 0.672069 0.330955 -0.017146
O14   O     O_R   0.089490 0.825610 0.930610 -0.452642
O15   O     O_R   0.818370 0.054540 0.929880 -0.463559
C45   C     C_R   0.701660 0.099237 0.895228 0.613291
O16   O     O_R   0.605870 0.077310 0.915530 -0.454279
O17   O     O_R   0.646440 0.806700 0.917570 -0.505192
C46   C     C_R   0.729840 0.690530 0.886745 0.613796
O18   O     O_R   0.837200 0.593290 0.915250 -0.395171
O19   O     O_R   0.065330 0.635370 0.931590 -0.456117
C47   C     C_R   0.117324 0.709274 0.904954 0.594269
O20   O     O_R   0.068300 0.828790 0.091860 -0.480200
O21   O     O_R   0.798730 0.057480 0.079370 -0.504966
C48   C     C_R   0.676105 0.107001 0.103260 0.607961
O22   O     O_R   0.584680 0.080480 0.076790 -0.405956
O23   O     O_R   0.626790 0.809640 0.067050 -0.453732
C49   C     C_R   0.696912 0.692398 0.098337 0.599050
O24   O     O_R   0.816010 0.596460 0.076500 -0.438479
O25   O     O_R   0.045680 0.638310 0.081070 -0.449653
C50   C     C_R   0.087437 0.711668 0.113859 0.567955
Cr4   Cr    Cr6+3 0.937620 0.938540 0.007640 1.199799
Cr5   Cr    Cr6+3 0.625150 0.937450 0.994520 1.213451
Cr6   Cr    Cr6+3 0.937990 0.625080 0.001190 1.240645
O26   O     O_3   0.833590 0.833690 0.001120 -0.350168
Cl1   Cl    Cl    0.997920 0.492053 0.803693 -0.358620
Cl2   Cl    Cl    0.956081 0.421269 0.662053 -0.403568
N1    N     N_R   0.437253 0.187404 0.818472 0.098548
O27   O     O_R   0.389519 0.268373 0.874130 -0.293026
O28   O     O_R   0.362969 0.138218 0.791565 -0.198920
Cl3   Cl    Cl    0.251149 0.388095 0.689910 -0.389380
N2    N     N_R   0.166137 0.917281 0.817532 0.109209
O29   O     O_R   0.257340 0.887765 0.866529 -0.271048
O30   O     O_R   0.128026 0.030961 0.781345 -0.228316
N3    N     N_R   0.798624 0.380292 0.294484 -0.105711
O31   O     O_R   0.926501 0.332862 0.313492 -0.000187
O32   O     O_R   0.926694 0.332800 0.313530 -0.000187
N4    N     N_R   0.753413 0.423291 0.148668 0.094123
O33   O     O_R   0.676353 0.431030 0.095721 -0.294770
O34   O     O_R   0.874162 0.311488 0.155740 -0.202903
Cl4   Cl    Cl    0.498568 0.967919 0.189952 -0.426057
Cl5   Cl    Cl    0.345237 0.284897 0.307979 -0.432802
Cl6   Cl    Cl    0.380029 0.328563 0.148750 -0.385297
N5    N     N_R   0.886080 0.053152 0.333412 0.091928
O35   O     O_R   0.886724 0.988761 0.391199 -0.343292
O36   O     O_R   0.001083 0.044361 0.311341 -0.267783
Cl7   Cl    Cl    0.408952 0.905904 0.671699 -0.422372
N6    N     N_R   0.231799 0.837550 0.176146 0.118189
O37   O     O_R   0.143646 0.971259 0.167455 -0.193990
O38   O     O_R   0.364763 0.793599 0.172286 -0.311482
Cl8   Cl    Cl    0.029155 0.494076 0.198165 -0.421579
N7    N     N_R   0.868304 0.761020 0.768478 0.009049
O39   O     O_R   0.869713 0.815123 0.829161 -0.401016
O40   O     O_R   0.863965 0.830476 0.712075 -0.457749
N8    N     N_R   0.764205 0.425219 0.835771 0.081499
O41   O     O_R   0.876181 0.330383 0.804215 -0.236135
O42   O     O_R   0.727928 0.394221 0.895678 -0.292313
N9    N     N_R   0.512493 0.565038 0.711742 0.050729
O43   O     O_R   0.408857 0.676451 0.738112 -0.352867
O44   O     O_R   0.495459 0.463003 0.689982 -0.368924

loop_
_geom_bond_atom_site_label_1
_geom_bond_atom_site_label_2
_geom_bond_distance
_ccdc_geom_bond_type
C28   C29   1.403710 A    
C3    C20   1.473956 S    
O11   Cr3   2.084417 S    
N3    O32   1.306056 A    
C17   C18   1.432358 A    
C14   H6    1.109742 S    
C48   O22   1.297813 A    
O14   C47   1.254917 A    
N2    O30   1.301049 A    
C46   O18   1.265434 A    
C30   C31   1.383539 A    
C16   C17   1.399593 A    
O4    Cr2   1.989494 S    
C27   C32   1.423186 A    
O15   C45   1.319618 A    
C29   C30   1.421258 A    
C39   C44   1.398823 A    
C24   N2    1.445792 S    
O8    Cr1   1.971045 S    
C8    H3    1.110689 S    
C15   H7    1.082889 S    
C37   N5    1.438694 S    
C27   N3    1.431441 S    
C23   C47   1.485962 S    
C10   C11   1.548890 S    
C31   C32   1.383573 A    
C5    O11   1.258297 A    
C9    N7    1.481949 S    
O15   Cr4   1.975813 S    
O25   Cr6   1.989281 S    
N5    O35   1.301890 A    
C5    C32   1.455102 S    
C7    C8    1.534509 S    
N4    O33   1.300886 A    
O25   C50   1.279815 A    
O21   Cr4   1.971514 S    
O14   Cr4   2.094001 S    
O24   Cr6   2.091784 S    
C27   C28   1.392678 A    
O20   C50   1.269672 A    
O19   C47   1.312342 A    
C40   N6    1.429094 S    
O6    C3    1.294189 A    
C7    H1    1.106046 S    
C40   C41   1.410019 A    
C42   C43   1.389485 A    
C29   C49   1.463278 S    
C37   C38   1.397414 A    
O22   Cr5   2.094006 S    
H4    C13   1.107902 S    
Cr3   O13   2.016807 S    
C9    C11   1.594036 S    
C43   C44   1.391121 A    
N2    O29   1.298672 A    
N6    O38   1.310935 A    
O12   C6    1.305984 A    
C43   H15   1.085940 S    
C15   C16   1.402832 A    
C10   N8    1.471513 S    
O1    Cr1   2.090187 S    
O18   Cr6   2.111517 S    
C25   H11   1.082584 S    
O10   Cr2   1.974839 S    
Cr1   O13   2.009915 S    
O1    C3    1.289758 A    
C8    Cl7   1.801270 S    
C22   C23   1.378060 A    
C16   H8    1.073193 S    
C45   O16   1.264484 A    
C39   H14   1.088801 S    
C30   Cl4   1.749455 S    
Cr4   O26   2.010889 S    
C24   C25   1.407580 A    
C6    C38   1.451138 S    
O5    Cr3   2.101681 S    
C9    C13   1.577560 S    
O12   Cr3   1.976935 S    
C25   C26   1.409495 A    
C36   C37   1.383198 A    
O23   Cr5   1.960850 S    
N9    O44   1.298447 A    
C19   H9    1.080373 S    
N8    O42   1.302088 A    
O16   Cr5   2.081536 S    
C34   C35   1.385493 A    
C18   N1    1.449722 S    
O20   Cr4   2.099171 S    
C33   C38   1.430796 A    
C8    C12   1.579725 S    
C22   H10   1.063037 S    
O7    Cr1   2.092455 S    
N3    O31   1.304033 A    
Cr6   O26   1.990867 S    
N1    O28   1.302817 A    
C12   C13   1.568011 S    
O17   Cr5   1.975489 S    
C19   C20   1.391851 A    
C14   N9    1.442703 S    
N5    O36   1.301983 A    
C10   C14   1.549403 S    
Cr2   O13   1.990888 S    
C42   Cl8   1.758752 S    
C18   C19   1.384405 A    
C15   C20   1.403857 A    
N8    O41   1.299169 A    
C17   C45   1.480896 S    
N6    O37   1.310994 A    
N7    O40   1.300724 A    
C21   C22   1.390411 A    
O9    Cr2   2.109284 S    
C35   C48   1.444916 S    
O2    Cr1   1.972546 S    
O21   C48   1.270490 A    
O17   C46   1.281454 A    
O6    Cr3   1.963048 S    
O8    C4    1.280557 A    
Cr5   O26   2.018181 S    
C2    O5    1.268661 A    
C41   C50   1.446782 S    
C13   Cl2   1.827275 S    
C21   Cl3   1.754419 S    
C11   C46   1.487053 S    
C2    C12   1.483422 S    
C36   H13   1.083386 S    
O2    C1    1.287325 A    
C31   H12   1.084684 S    
C34   Cl6   1.772019 S    
C28   N4    1.441212 S    
C10   H5    1.115277 S    
C1    C26   1.479903 S    
C49   O24   1.279427 A    
O4    C2    1.290861 A    
O7    C6    1.259691 A    
O19   Cr6   1.972687 S    
C21   C26   1.408045 A    
N1    O27   1.304628 A    
C12   C14   1.575918 S    
C9    Cl1   1.796889 S    
N9    O43   1.288820 A    
C7    H2    1.111042 S    
C33   C34   1.384366 A    
N4    O34   1.300996 A    
C35   C36   1.412981 A    
O3    Cr2   2.096647 S    
C41   C42   1.421111 A    
C4    O9    1.261121 A    
C39   C40   1.357573 A    
C23   C24   1.426714 A    
C4    C44   1.433785 S    
C33   Cl5   1.770687 S    
O10   C5    1.297263 A    
O23   C49   1.276610 A    
C1    O3    1.278378 A    
C7    C11   1.560354 S    
N7    O39   1.297382 A    
