data_mof_unit_7718.cif
_audit_creation_date              2013-03-05T16:07:36-0500
_audit_creation_method            fapswitch 2.2
_symmetry_space_group_name_H-M    P1
_symmetry_Int_Tables_number       1
_space_group_crystal_system       triclinic
_cell_length_a                    21.682436
_cell_length_b                    7.084045
_cell_length_c                    15.127818
_cell_angle_alpha                 89.999168
_cell_angle_beta                  107.911655
_cell_angle_gamma                 89.996621
_cell_volume                      2211.00136003

loop_
_atom_site_label
_atom_site_type_symbol
_atom_site_description
_atom_site_fract_x
_atom_site_fract_y
_atom_site_fract_z
_atom_type_partial_charge
O1    O     O_R   0.585850 0.505770 0.002130 -0.600609
O2    O     O_R   0.414150 0.005770 0.997870 -0.600540
O3    O     O_R   0.467530 0.173560 0.861970 -0.589334
O4    O     O_R   0.532470 0.673560 0.138030 -0.589360
C1    C     C_R   0.458794 0.345359 0.825141 0.915679
C2    C     C_R   0.541206 0.845354 0.174860 0.915588
O5    O     O_R   0.588690 0.175900 0.993250 -0.597035
O6    O     O_R   0.411310 0.675900 0.006750 -0.597047
O7    O     O_R   0.536170 0.007950 0.130090 -0.587032
O8    O     O_R   0.463830 0.507950 0.869910 -0.587033
C3    C     C_R   0.614375 0.346041 0.994786 0.920844
C4    C     C_R   0.385630 0.846055 0.005234 0.920974
O9    O     O_3   0.482630 0.339970 0.044740 -0.281278
O10   O     O_3   0.517370 0.839970 0.955260 -0.281329
V1    V     V_3+5 0.503220 0.064200 0.991700 1.163413
V2    V     V_3+5 0.496780 0.564200 0.008300 1.163374
C5    C     C_R   0.277653 0.012519 0.967571 0.036468
C6    C     C_R   0.722332 0.512556 0.032443 0.036041
C7    C     C_R   0.318047 0.860679 0.009292 -0.159528
C8    C     C_R   0.681971 0.360633 0.990782 -0.159175
C9    C     C_R   0.291699 0.722578 0.054250 -0.126645
C10   C     C_R   0.708349 0.222497 0.945888 -0.125723
H1    H     H_    0.321614 0.607362 0.090801 0.127773
H2    H     H_    0.678457 0.107223 0.909369 0.127640
C11   C     C_R   0.227291 0.737353 0.056639 -0.002852
C12   C     C_R   0.772758 0.237301 0.943522 -0.003150
H3    H     H_    0.210745 0.640375 0.098901 0.155711
H4    H     H_    0.789331 0.140273 0.901315 0.155665
C13   C     C_R   0.185600 0.880999 0.008118 -0.148738
C14   C     C_R   0.814417 0.381053 0.991975 -0.148681
C15   C     C_R   0.212863 0.020041 0.966750 0.001554
C16   C     C_R   0.787128 0.520186 0.033284 0.000650
C17   C     C_3   0.214480 0.227017 0.985584 0.527493
C18   C     C_3   0.785414 0.727149 0.014283 0.527598
C19   C     C_3   0.286059 0.220493 0.990316 -0.389151
C20   C     C_3   0.713836 0.720439 0.009599 -0.388877
H5    H     H_    0.321184 0.248475 0.060076 0.200834
H6    H     H_    0.678684 0.748240 0.939837 0.200831
C21   C     C_R   0.923157 0.873549 0.725626 -0.137729
C22   C     C_R   0.076843 0.373528 0.274373 -0.137715
C23   C     C_R   0.565417 0.856260 0.277280 -0.165460
C24   C     C_R   0.434581 0.356276 0.722722 -0.165518
C25   C     C_R   0.921116 0.695588 0.588946 -0.158790
C26   C     C_R   0.078891 0.195576 0.411060 -0.158637
C27   C     C_R   0.955333 0.770092 0.674731 -0.149894
C28   C     C_R   0.044671 0.270071 0.325271 -0.150102
C29   C     C_R   0.856661 0.912224 0.687968 -0.183094
C30   C     C_R   0.143337 0.412206 0.312030 -0.183115
C31   C     C_R   0.820436 0.837480 0.600474 0.101516
C32   C     C_R   0.179564 0.337471 0.399528 0.101518
C33   C     C_R   0.854037 0.722436 0.553148 0.167625
C34   C     C_R   0.145968 0.222432 0.446860 0.167505
C35   C     C_R   0.752042 0.866742 0.559283 0.052064
C36   C     C_R   0.247957 0.366742 0.440719 0.052069
C37   C     C_R   0.720346 0.785448 0.471311 0.100525
C38   C     C_R   0.279655 0.285457 0.528696 0.100457
C39   C     C_R   0.753971 0.650905 0.435015 -0.162707
C40   C     C_R   0.246037 0.150920 0.565001 -0.162659
C41   C     C_R   0.820045 0.625822 0.473004 -0.226755
C42   C     C_R   0.179964 0.125830 0.527011 -0.226451
C43   C     C_R   0.714322 0.975645 0.601327 -0.226180
C44   C     C_R   0.285670 0.475644 0.398670 -0.226260
C45   C     C_R   0.647270 0.000596 0.559542 0.082171
C46   C     C_R   0.352722 0.500598 0.440455 0.082179
C47   C     C_R   0.615832 0.923379 0.470410 -0.017521
C48   C     C_R   0.384163 0.423386 0.529590 -0.017507
C49   C     C_R   0.655205 0.836099 0.422271 0.037925
C50   C     C_R   0.344793 0.336112 0.577734 0.037949
C51   C     C_R   0.547762 0.943015 0.423751 0.446334
C52   C     C_R   0.452232 0.443021 0.576246 0.446316
C53   C     C_R   0.524049 0.909639 0.327422 -0.281985
C54   C     C_R   0.475947 0.409648 0.672577 -0.281982
C55   C     C_R   0.630780 0.820815 0.324273 -0.032842
C56   C     C_R   0.369220 0.320836 0.675732 -0.032837
H7    H     H_    0.844529 0.527468 0.440184 0.148158
H8    H     H_    0.155485 0.027480 0.559837 0.148292
H9    H     H_    0.472981 0.928167 0.290591 0.160462
H10   H     H_    0.527014 0.428171 0.709406 0.160472
H11   H     H_    0.946664 0.608808 0.552552 0.131293
H12   H     H_    0.053347 0.108798 0.447458 0.131283
H13   H     H_    0.006283 0.736096 0.704442 0.142404
H14   H     H_    0.993723 0.236073 0.295560 0.142261
H15   H     H_    0.833960 0.988611 0.731277 0.137339
H16   H     H_    0.166034 0.488587 0.268716 0.137281
H17   H     H_    0.729329 0.561666 0.376945 0.150078
H18   H     H_    0.270683 0.061690 0.623077 0.150099
H19   H     H_    0.735522 0.044760 0.667172 0.135626
H20   H     H_    0.264467 0.544754 0.332821 0.135594
O11   O     O_R   0.036080 0.231270 0.130120 -0.582978
O12   O     O_R   0.963920 0.731270 0.869880 -0.582941
O13   O     O_R   0.911300 0.558970 0.006750 -0.548567
O14   O     O_R   0.088700 0.058970 0.993250 -0.549366
C57   C     C_R   0.883944 0.390525 0.996776 0.936395
C58   C     C_R   0.116064 0.890511 0.003274 0.936496
O15   O     O_R   0.032450 0.561140 0.138040 -0.596527
O16   O     O_R   0.967550 0.061140 0.861960 -0.596731
O17   O     O_R   0.085870 0.728910 0.002130 -0.567425
O18   O     O_R   0.914130 0.228910 0.997870 -0.567871
C59   C     C_R   0.045829 0.391853 0.174496 1.008927
C60   C     C_R   0.954170 0.891859 0.825504 1.009063
O19   O     O_3   0.017320 0.394650 0.955270 -0.243746
O20   O     O_3   0.982680 0.894650 0.044730 -0.243392
V3    V     V_3+5 0.996780 0.670490 0.008300 1.310261
V4    V     V_3+5 0.003220 0.170490 0.991700 1.309878
N1    N     N_3   0.613772 0.125205 0.603750 -0.152968
H21   H     H_    0.636440 0.257090 0.611198 0.154192
H22   H     H_    0.619024 0.073143 0.670370 0.149692
N2    N     N_3   0.386213 0.625205 0.396242 -0.152970
H23   H     H_    0.363540 0.757092 0.388789 0.154160
H24   H     H_    0.380963 0.573143 0.329623 0.149658
N3    N     N_R   0.501413 0.987094 0.471831 0.246347
O21   O     O_R   0.445362 0.058522 0.426114 -0.401237
O22   O     O_R   0.508201 0.917624 0.553837 -0.381770
N4    N     N_R   0.498578 0.487091 0.528163 0.246339
O23   O     O_R   0.554626 0.558520 0.573876 -0.401209
O24   O     O_R   0.491793 0.417612 0.446162 -0.381786
N5    N     N_R   0.204363 0.273086 0.074961 0.189079
O25   O     O_R   0.243580 0.208451 0.152546 -0.461601
O26   O     O_R   0.151608 0.357963 0.076727 -0.417105
N6    N     N_R   0.795489 0.772980 0.924855 0.189066
O27   O     O_R   0.756234 0.708252 0.847326 -0.461412
O28   O     O_R   0.848268 0.857577 0.923000 -0.417421
N7    N     N_R   0.170950 0.331564 0.906520 0.237770
O29   O     O_R   0.124105 0.245439 0.844532 -0.410502
O30   O     O_R   0.179323 0.510881 0.896339 -0.409986
N8    N     N_R   0.828927 0.831986 0.093243 0.237480
O31   O     O_R   0.876571 0.746872 0.154241 -0.409301
O32   O     O_R   0.819989 0.010726 0.104041 -0.410811
N9    N     N_3   0.300374 0.331576 0.918065 -0.175563
H25   H     H_    0.271000 0.284022 0.853486 0.150329
H26   H     H_    0.348718 0.307041 0.922486 0.156026
N10   N     N_3   0.699472 0.831499 0.081818 -0.175236
H27   H     H_    0.728875 0.784054 0.146405 0.150135
H28   H     H_    0.651143 0.806823 0.077425 0.156158
N11   N     N_3   0.674716 0.801226 0.271377 -0.216473
H29   H     H_    0.672025 0.925028 0.232794 0.112135
H30   H     H_    0.660278 0.684748 0.227427 0.097777
N12   N     N_3   0.325283 0.301262 0.728631 -0.216423
H31   H     H_    0.327968 0.425071 0.767204 0.112043
H32   H     H_    0.339726 0.184794 0.772591 0.097848

loop_
_geom_bond_atom_site_label_1
_geom_bond_atom_site_label_2
_geom_bond_distance
_ccdc_geom_bond_type
C48   C50   1.422605 A    
C1    C24   1.477098 S    
C45   C47   1.420092 A    
C17   N5    1.471446 S    
N8    O31   1.302219 A    
O14   C58   1.320500 A    
N3    O21   1.301653 A    
O1    C3    1.310506 A    
O2    C4    1.310495 A    
C22   C59   1.458412 S    
N4    O23   1.301653 A    
N7    O29   1.302888 A    
C29   C31   1.417666 A    
C52   N4    1.444300 S    
C22   C28   1.395355 A    
N1    H22   1.045987 S    
C32   C36   1.435958 A    
O11   C59   1.304677 A    
C19   H5    1.112960 S    
C14   C57   1.488307 S    
N5    O26   1.299766 A    
C13   C58   1.488340 S    
O15   C59   1.314537 A    
C39   C41   1.381263 A    
C40   C42   1.381264 A    
N2    H23   1.045530 S    
C43   C45   1.406848 A    
C51   C53   1.408192 A    
C54   H10   1.083602 S    
C34   C42   1.389968 A    
C17   C19   1.532224 S    
C28   H14   1.083951 S    
C35   C43   1.410135 A    
C55   N11   1.426898 S    
O15   V3    2.028926 S    
N10   H27   1.044443 S    
C31   C33   1.424188 A    
C2    C23   1.477115 S    
C44   C46   1.406844 A    
C15   C17   1.492019 S    
C49   C55   1.416711 A    
C29   H15   1.078270 S    
C38   C40   1.409832 A    
C45   N1    1.432729 S    
C43   H19   1.077783 S    
C19   N9    1.455634 S    
C18   C20   1.532418 S    
O6    C4    1.324984 A    
C23   C53   1.393352 A    
C26   C34   1.400109 A    
O5    V1    2.008600 S    
O6    V2    2.008513 S    
N11   H30   1.045428 S    
C18   N6    1.471430 S    
C2    O7    1.323563 A    
C40   H18   1.080816 S    
O12   C60   1.304680 A    
N6    O28   1.299763 A    
C46   N2    1.432732 S    
C35   C37   1.418640 A    
C9    H1    1.082576 S    
C11   C13   1.408248 A    
C36   C38   1.418639 A    
C3    C8    1.488980 S    
C24   C56   1.398981 A    
N11   H29   1.045118 S    
O4    C2    1.327596 A    
C36   C44   1.410138 A    
C58   O17   1.316266 A    
C47   C49   1.422602 A    
C38   C50   1.424581 A    
C44   H20   1.077783 S    
C42   H8    1.084380 S    
C30   H16   1.078273 S    
C46   C48   1.420088 A    
O4    V2    2.028919 S    
O5    C3    1.324969 A    
O13   C57   1.320422 A    
C56   N12   1.426909 S    
C32   C34   1.424190 A    
C26   H12   1.084183 S    
C18   N8    1.474934 S    
C24   C54   1.393351 A    
N3    O22   1.300203 A    
O1    V2    2.005139 S    
O20   V4    2.209094 S    
O2    V1    2.005185 S    
C25   C27   1.385987 A    
O17   V3    2.005594 S    
C25   H11   1.084182 S    
N12   H32   1.045429 S    
N10   H28   1.044146 S    
C8    C10   1.408839 A    
C12   C14   1.408207 A    
O19   V4    1.738525 S    
C37   C39   1.409831 A    
O11   V4    2.039657 S    
C5    C15   1.402049 A    
C10   H2    1.082571 S    
C6    C16   1.402108 A    
C20   H6    1.112954 S    
C41   H7    1.084380 S    
C53   H9    1.083603 S    
O3    V1    2.028861 S    
N6    O27   1.302418 A    
C21   C29   1.404676 A    
N9    H25   1.044445 S    
C22   C30   1.404668 A    
O16   V4    2.028984 S    
C9    C11   1.411935 A    
N8    O32   1.298830 A    
C7    C9    1.408927 A    
C27   H13   1.083951 S    
O13   V3    2.008297 S    
O3    C1    1.327587 A    
N4    O24   1.300202 A    
N2    H24   1.045988 S    
C11   H3    1.072616 S    
N1    H21   1.045530 S    
C12   H4    1.072558 S    
C21   C27   1.395357 A    
C20   N10   1.455637 S    
O7    V1    2.032743 S    
C37   C49   1.424588 A    
C13   C15   1.392424 A    
O8    V2    2.032773 S    
N5    O25   1.302424 A    
C14   C16   1.392648 A    
C51   N3    1.444300 S    
C25   C33   1.400110 A    
C21   C60   1.458423 S    
C48   C52   1.433562 A    
C6    C20   1.510916 S    
C47   C51   1.433566 A    
O16   C60   1.314542 A    
C4    C7    1.488986 S    
C30   C32   1.417662 A    
C5    C7    1.407940 A    
C39   H17   1.080817 S    
C6    C8    1.407910 A    
O20   V3    1.738507 S    
O12   V3    2.039626 S    
C31   C35   1.435965 A    
N7    O30   1.299053 A    
N12   H31   1.045116 S    
O14   V4    2.008211 S    
C23   C55   1.398987 A    
C1    O8    1.323558 A    
C33   C41   1.389969 A    
O19   V3    2.209068 S    
C10   C12   1.411874 A    
O9    V2    1.739329 S    
C17   N7    1.474926 S    
O10   V1    1.739311 S    
C52   C54   1.408188 A    
C5    C19   1.511184 S    
C50   C56   1.416708 A    
C57   O18   1.316310 A    
O18   V4    2.005548 S    
C26   C28   1.385987 A    
C16   C18   1.492305 S    
N9    H26   1.044161 S    
