data_mof_unit_39298.cif
_audit_creation_date              2012-12-11T14:46:02-0500
_audit_creation_method            fapswitch 2.2
_symmetry_space_group_name_H-M    P1
_symmetry_Int_Tables_number       1
_space_group_crystal_system       triclinic
_cell_length_a                    10.907727
_cell_length_b                    10.942652
_cell_length_c                    18.871334
_cell_angle_alpha                 90.167303
_cell_angle_beta                  90.015484
_cell_angle_gamma                 119.86415
_cell_volume                      1953.3508536

loop_
_atom_site_label
_atom_site_type_symbol
_atom_type_description
_atom_site_fract_x
_atom_site_fract_y
_atom_site_fract_z
_atom_type_partial_charge
C1    C     C_R   0.864579 0.637240 0.603620 0.559187
C2    C     C_R   0.422160 0.625306 0.777433 -0.135658
C3    C     C_R   0.399007 0.616673 0.705532 -0.179097
C4    C     C_R   0.318725 0.671045 0.676575 0.061112
C5    C     C_R   0.838960 0.162001 0.821448 -0.032518
C6    C     C_R   0.087911 0.223787 0.824618 -0.089885
C7    C     C_R   0.209707 0.245643 0.789978 -0.124064
C8    C     C_R   0.206691 0.221275 0.717476 -0.126442
C9    C     C_R   0.083921 0.182759 0.678598 -0.080121
C10   C     C_R   0.962371 0.172200 0.711394 0.008543
C11   C     C_R   0.962072 0.183242 0.786475 -0.003944
C12   C     C_R   0.268141 0.631714 0.604494 0.569228
C13   C     C_R   0.716407 0.117299 0.707833 0.008783
C14   C     C_R   0.724302 0.151372 0.779990 0.029671
C15   C     C_R   0.586197 0.066216 0.671735 -0.071413
C16   C     C_R   0.476298 0.077652 0.702126 -0.113892
C17   C     C_R   0.492559 0.134383 0.769591 -0.148860
C18   C     C_R   0.615708 0.172934 0.807907 -0.074541
C19   C     C_R   0.841902 0.151328 0.671593 -0.042502
C20   C     C_R   0.730530 0.533382 0.714014 -0.134855
C21   C     C_R   0.720963 0.545751 0.786898 -0.155329
C22   C     C_R   0.800300 0.677509 0.818985 0.029552
C23   C     C_R   0.860958 0.221807 0.601709 0.529466
C24   C     C_R   0.877490 0.798370 0.777236 -0.134400
C25   C     C_R   0.884845 0.786616 0.704838 -0.131182
C26   C     C_R   0.818351 0.653580 0.673378 0.036266
C27   C     C_R   0.257665 0.537062 0.276096 -0.120733
C28   C     C_R   0.271776 0.551868 0.203721 -0.123539
C29   C     C_R   0.332458 0.686071 0.173495 0.024895
C30   C     C_R   0.363411 0.803578 0.216098 -0.127809
C31   C     C_R   0.343988 0.787472 0.289204 -0.124594
C32   C     C_R   0.297310 0.654964 0.319593 0.026142
C33   C     C_R   0.719361 0.147544 0.287293 0.205972
C34   C     C_R   0.865242 0.638054 0.397438 0.537372
C35   C     C_R   0.723135 0.149547 0.214315 -0.118397
C36   C     C_R   0.833817 0.148693 0.177285 -0.053639
C37   C     C_R   0.946769 0.153187 0.214430 -0.111298
C38   C     C_R   0.949458 0.158639 0.288301 0.163244
C39   C     C_R   0.838712 0.164600 0.325115 0.047587
C40   C     C_R   0.897835 0.783008 0.293870 -0.148567
C41   C     C_R   0.892258 0.792054 0.221622 -0.149443
C42   C     C_R   0.809667 0.671287 0.180072 0.021464
C43   C     C_R   0.728228 0.538876 0.212994 0.228295
C44   C     C_R   0.734012 0.531585 0.286490 -0.059653
C45   C     C_R   0.264983 0.630200 0.394549 0.544964
C46   C     C_R   0.823180 0.652611 0.326568 -0.026756
C47   C     C_R   0.807560 0.105624 0.895103 0.527878
C48   C     C_R   0.400874 0.702516 0.895328 0.547095
C49   C     C_R   0.793305 0.697496 0.894506 0.544503
C50   C     C_R   0.806694 0.105308 0.103304 0.546067
C51   C     C_R   0.393785 0.704381 0.103226 0.548020
C52   C     C_R   0.796803 0.696418 0.105577 0.534469
C53   C     C_R   0.860555 0.225579 0.396444 0.553429
C54   C     C_R   0.266798 0.741338 0.720209 0.234420
C55   C     C_R   0.295089 0.753057 0.792789 -0.121957
C56   C     C_R   0.367777 0.690808 0.821160 0.009523
Cr1   Cr    Cr6+3 0.791660 0.390250 0.499930 1.043701
Cr2   Cr    Cr6+3 0.098520 0.708290 0.500540 1.053069
Cr3   Cr    Cr6+3 0.109770 0.401430 0.499480 1.024744
Cr4   Cr    Cr6+3 0.874790 0.925890 0.000070 1.012274
Cr5   Cr    Cr6+3 0.574120 0.948670 0.999300 1.018940
Cr6   Cr    Cr6+3 0.551420 0.625320 0.000920 1.024423
H1    H     H_    0.380772 0.047430 0.672244 0.147432
H2    H     H_    0.572239 0.024505 0.618365 0.129399
H3    H     H_    0.409158 0.146936 0.792756 0.100554
H4    H     H_    0.676726 0.429159 0.690436 0.147839
H5    H     H_    0.655450 0.453189 0.818266 0.109132
H6    H     H_    0.950784 0.880373 0.674235 0.132754
H7    H     H_    0.214256 0.432315 0.297895 0.196651
H8    H     H_    0.409353 0.908080 0.193596 0.129054
H9    H     H_    0.256680 0.806049 0.827284 0.105964
H10   H     H_    0.367775 0.877812 0.322074 0.161854
H11   H     H_    0.633035 0.142932 0.186658 0.162998
H12   H     H_    0.030102 0.146921 0.186363 0.151185
H13   H     H_    0.967144 0.877108 0.323742 0.169820
H14   H     H_    0.953062 0.895587 0.198423 0.161045
H15   H     H_    0.677059 0.429102 0.311389 0.185903
H16   H     H_    0.482895 0.580425 0.799009 0.149454
H17   H     H_    0.306402 0.281206 0.819768 0.105044
H18   H     H_    0.300233 0.233685 0.691050 0.104970
H19   H     H_    0.094831 0.245091 0.880943 0.130172
H20   H     H_    0.084706 0.158478 0.623114 0.130205
H21   H     H_    0.626097 0.223315 0.858661 0.133745
O1    O     O_R   0.766500 0.250040 0.579790 -0.518671
O2    O     O_R   0.218690 0.701900 0.425960 -0.504225
O3    O     O_R   0.249490 0.516440 0.419420 -0.510976
O4    O     O_R   0.982880 0.281910 0.424890 -0.512281
O5    O     O_3   0.999980 0.499990 0.499980 -0.256538
O6    O     O_R   0.895110 0.806860 0.920430 -0.522915
O7    O     O_R   0.872260 0.046970 0.925000 -0.507991
O8    O     O_R   0.691430 0.085060 0.918550 -0.523696
O9    O     O_R   0.451490 0.822460 0.925250 -0.497913
O10   O     O_R   0.413330 0.603360 0.920440 -0.531098
O11   O     O_R   0.676110 0.626250 0.926750 -0.513893
O12   O     O_R   0.798570 0.516780 0.574780 -0.513220
O13   O     O_R   0.895350 0.809870 0.080950 -0.526255
O14   O     O_R   0.872490 0.049760 0.073800 -0.506696
O15   O     O_R   0.691680 0.088070 0.079070 -0.522710
O16   O     O_R   0.451720 0.825250 0.074050 -0.506757
O17   O     O_R   0.413580 0.606370 0.080960 -0.509693
O18   O     O_R   0.676340 0.629040 0.075550 -0.485222
O19   O     O_3   0.666780 0.833290 0.000090 -0.247996
O20   O     O_R   0.984000 0.732950 0.581090 -0.481350
O21   O     O_R   0.218600 0.700890 0.574760 -0.444663
O22   O     O_R   0.249390 0.515350 0.579940 -0.530745
O23   O     O_R   0.982790 0.280900 0.573700 -0.509024
O24   O     O_R   0.766600 0.251130 0.419260 -0.446583
O25   O     O_R   0.798660 0.517790 0.425980 -0.506613
O26   O     O_R   0.984100 0.734040 0.420570 -0.521945
O27   O     O_3   0.183671 0.791571 0.691996 -0.682360
H22   H     H_    0.160924 0.840681 0.729549 0.311326
H23   H     H_    0.933861 0.902595 0.800637 0.150176
H24   H     H_    0.244194 0.459020 0.171913 0.144728
O28   O     O_3   0.601140 0.132725 0.322384 -0.689170
H25   H     H_    0.530783 0.128925 0.287831 0.320997
O29   O     O_3   0.060639 0.156986 0.322154 -0.714810
H26   H     H_    0.027791 0.113591 0.369367 0.329491
O30   O     O_3   0.647107 0.415001 0.176109 -0.709984
H27   H     H_    0.681093 0.427275 0.126618 0.330857
H28   H     H_    0.438804 0.562283 0.672986 0.134040

loop_
_geom_bond_atom_site_label_1
_geom_bond_atom_site_label_2
_ccdc_geom_bond_type
C55   C56   A    
C40   C41   A    
Cr2   O26   S    
C41   C42   A    
C14   C18   A    
C19   C23   S    
C35   C36   A    
C24   H23   S    
C37   H12   S    
O28   H25   S    
C7    C8    A    
C39   C53   S    
Cr4   O6    S    
C40   C46   A    
C5    C47   S    
C33   O28   S    
C33   C39   A    
C20   H4    S    
C36   C37   A    
C5    C11   A    
C2    C3    A    
C30   C31   A    
C15   C16   A    
O29   H26   S    
C54   O27   S    
C32   C45   S    
O30   H27   S    
Cr3   O5    S    
C35   H11   S    
Cr5   O15   S    
C8    C9    A    
C15   H2    S    
C34   C46   S    
C16   H1    S    
C49   O11   A    
C4    C12   S    
C29   C30   A    
C9    C10   A    
C1    O20   A    
C27   H7    S    
Cr5   O9    S    
C9    H20   S    
Cr6   O18   S    
C6    H19   S    
C21   C22   A    
C21   H5    S    
Cr5   O16   S    
C25   H6    S    
Cr4   O19   S    
C30   H8    S    
C44   C46   A    
C17   C18   A    
C51   O16   A    
C38   C39   A    
C52   O18   A    
C50   O15   A    
Cr3   O23   S    
C48   O10   A    
C13   C19   A    
C24   C25   A    
Cr4   O14   S    
C23   O1    A    
C6    C11   A    
C16   C17   A    
C25   C26   A    
C23   O23   A    
O27   H22   S    
C45   O2    A    
C43   C44   A    
C37   C38   A    
C2    H16   S    
C38   O29   S    
C53   O24   A    
C31   C32   A    
C10   C19   A    
C1    O12   A    
C18   H21   S    
Cr1   O1    S    
C53   O4    A    
Cr3   O22   S    
C5    C14   A    
C22   C49   S    
Cr6   O17   S    
Cr4   O13   S    
C31   H10   S    
Cr1   O24   S    
C10   C11   A    
C13   C15   A    
C48   O9    A    
C1    C26   S    
C47   O7    A    
C22   C24   A    
Cr2   O21   S    
C42   C43   A    
C3    C4    A    
Cr2   O2    S    
C36   C50   S    
C7    H17   S    
C29   C51   S    
C51   O17   A    
C48   C56   S    
C54   C55   A    
C28   C29   A    
C50   O14   A    
C4    C54   A    
C27   C32   A    
C47   O8    A    
C3    H28   S    
C49   O6    A    
Cr2   O5    S    
Cr5   O19   S    
C40   H13   S    
C12   O21   A    
C6    C7    A    
Cr4   O7    S    
C44   H15   S    
C17   H3    S    
Cr1   O5    S    
C34   O25   A    
Cr6   O11   S    
C45   O3    A    
Cr3   O3    S    
C2    C56   A    
C41   H14   S    
C12   O22   A    
C20   C26   A    
C33   C35   A    
C52   O13   A    
Cr3   O4    S    
C28   H24   S    
C43   O30   S    
Cr1   O25   S    
C20   C21   A    
Cr1   O12   S    
Cr6   O10   S    
C27   C28   A    
C8    H18   S    
C34   O26   A    
Cr2   O20   S    
C13   C14   A    
C55   H9    S    
Cr5   O8    S    
C42   C52   S    
Cr6   O19   S    
