data_mof_unit_60231.cif
_audit_creation_date              2013-03-05T16:21:30-0500
_audit_creation_method            fapswitch 2.2
_symmetry_space_group_name_H-M    P1
_symmetry_Int_Tables_number       1
_space_group_crystal_system       triclinic
_cell_length_a                    30.516787
_cell_length_b                    30.516786
_cell_length_c                    27.712196
_cell_angle_alpha                 90.000193
_cell_angle_beta                  90.000506
_cell_angle_gamma                 89.999768
_cell_volume                      25807.654774

loop_
_atom_site_label
_atom_site_type_symbol
_atom_site_description
_atom_site_fract_x
_atom_site_fract_y
_atom_site_fract_z
_atom_type_partial_charge
Zn1   Zn    Zn3+2 0.448040 0.000000 0.289870 1.006641
Zn2   Zn    Zn3+2 0.551960 0.000000 0.710130 1.006537
Zn3   Zn    Zn3+2 1.000000 0.551960 0.289870 1.006698
Zn4   Zn    Zn3+2 0.000000 0.448040 0.710130 1.006574
Zn5   Zn    Zn3+2 0.551960 0.000000 0.289870 1.006663
Zn6   Zn    Zn3+2 0.448040 0.000000 0.710130 1.006623
Zn7   Zn    Zn3+2 1.000000 0.448040 0.289870 1.006583
Zn8   Zn    Zn3+2 1.000000 0.551960 0.710130 1.006663
Zn9   Zn    Zn3+2 0.948040 0.500000 0.789870 1.006648
Zn10  Zn    Zn3+2 0.051960 0.500000 0.210130 1.006598
Zn11  Zn    Zn3+2 0.500000 0.051960 0.789870 1.006616
Zn12  Zn    Zn3+2 0.500000 0.948040 0.210130 1.006651
Zn13  Zn    Zn3+2 0.051960 0.500000 0.789870 1.006589
Zn14  Zn    Zn3+2 0.948040 0.500000 0.210130 1.006682
Zn15  Zn    Zn3+2 0.500000 0.948040 0.789870 1.006543
Zn16  Zn    Zn3+2 0.500000 0.051960 0.210130 1.006653
C1    C     C_R   0.118390 0.381610 0.250000 -0.023972
C2    C     C_R   0.881632 0.618368 0.750000 -0.025071
C3    C     C_R   0.381614 0.881614 0.250000 -0.023751
C4    C     C_R   0.618383 0.118383 0.750000 -0.025351
C5    C     C_R   0.881615 0.618385 0.250000 -0.023855
C6    C     C_R   0.118377 0.381623 0.750000 -0.025364
C7    C     C_R   0.618384 0.118384 0.250000 -0.023694
C8    C     C_R   0.381616 0.881617 0.750000 -0.025371
C9    C     C_R   0.118385 0.618385 0.750000 -0.023703
C10   C     C_R   0.881616 0.381616 0.250000 -0.025529
C11   C     C_R   0.381610 0.118390 0.750000 -0.023959
C12   C     C_R   0.618383 0.881617 0.250000 -0.025589
C13   C     C_R   0.881615 0.381615 0.750000 -0.023704
C14   C     C_R   0.118382 0.618382 0.250000 -0.025477
C15   C     C_R   0.618398 0.881601 0.750000 -0.024278
C16   C     C_R   0.381622 0.118378 0.250000 -0.025399
C17   C     C_R   0.214406 0.246997 0.217577 0.202107
C18   C     C_R   0.784994 0.752289 0.783343 0.202770
C19   C     C_R   0.246604 0.786012 0.218173 0.202225
C20   C     C_R   0.713739 0.253635 0.718543 0.202324
C21   C     C_R   0.786073 0.753453 0.218263 0.202247
C22   C     C_R   0.214207 0.246863 0.782181 0.202496
C23   C     C_R   0.713845 0.253530 0.281617 0.202261
C24   C     C_R   0.286294 0.746329 0.718598 0.202340
C25   C     C_R   0.253498 0.713879 0.718333 0.202238
C26   C     C_R   0.746296 0.286326 0.281353 0.202315
C27   C     C_R   0.247007 0.214417 0.782438 0.202112
C28   C     C_R   0.753623 0.786250 0.218527 0.202371
C29   C     C_R   0.746536 0.286085 0.718279 0.202262
C30   C     C_R   0.213807 0.753563 0.218436 0.202358
C31   C     C_R   0.752186 0.784726 0.783590 0.201928
C32   C     C_R   0.246850 0.214195 0.217837 0.202515
C33   C     C_R   0.715274 0.747814 0.716409 0.201926
C34   C     C_R   0.285805 0.253150 0.282163 0.202512
C35   C     C_R   0.786085 0.246537 0.781721 0.202229
C36   C     C_R   0.253563 0.713807 0.281563 0.202371
C37   C     C_R   0.285583 0.252993 0.717562 0.202115
C38   C     C_R   0.713750 0.746377 0.281473 0.202375
C39   C     C_R   0.213879 0.753498 0.781667 0.202272
C40   C     C_R   0.786326 0.246296 0.218648 0.202328
C41   C     C_R   0.753530 0.213844 0.218383 0.202239
C42   C     C_R   0.246329 0.786294 0.781403 0.202316
C43   C     C_R   0.746547 0.713926 0.281737 0.202241
C44   C     C_R   0.253137 0.285793 0.717819 0.202495
C45   C     C_R   0.286013 0.746604 0.281826 0.202202
C46   C     C_R   0.753635 0.213740 0.781456 0.202347
C47   C     C_R   0.253003 0.285594 0.282423 0.202113
C48   C     C_R   0.747711 0.715006 0.716657 0.202770
O1    O     O_3   0.500000 0.000000 0.250000 -0.489711
O2    O     O_3   0.500000 0.000000 0.750000 -0.489584
O3    O     O_3   0.000000 0.500000 0.250000 -0.489667
O4    O     O_3   0.000000 0.500000 0.750000 -0.489756
O5    O     O_R   0.500000 0.036340 0.143790 -0.629067
O6    O     O_R   0.500000 0.963660 0.856210 -0.629003
O7    O     O_R   0.036340 0.500000 0.143790 -0.629070
O8    O     O_R   0.963660 0.500000 0.856210 -0.628935
O9    O     O_R   0.500000 0.963660 0.143790 -0.629111
O10   O     O_R   0.500000 0.036340 0.856210 -0.629108
O11   O     O_R   0.963660 0.500000 0.143790 -0.629120
O12   O     O_R   0.036340 0.500000 0.856210 -0.629100
O13   O     O_R   0.000000 0.536340 0.643790 -0.628932
O14   O     O_R   0.000000 0.463660 0.356210 -0.629102
O15   O     O_R   0.536340 0.000000 0.643790 -0.629000
O16   O     O_R   0.463660 0.000000 0.356210 -0.629048
O17   O     O_R   1.000000 0.463660 0.643790 -0.629103
O18   O     O_R   1.000000 0.536340 0.356210 -0.629088
O19   O     O_R   0.463660 0.000000 0.643790 -0.629111
O20   O     O_R   0.536340 0.000000 0.356210 -0.629130
O21   O     O_R   0.448830 0.912520 0.222210 -0.640169
O22   O     O_R   0.551170 0.087480 0.777790 -0.638675
O23   O     O_R   0.912520 0.551170 0.222210 -0.640139
O24   O     O_R   0.087480 0.448830 0.777790 -0.638498
O25   O     O_R   0.551170 0.087480 0.222210 -0.640191
O26   O     O_R   0.448830 0.912520 0.777790 -0.638810
O27   O     O_R   0.087480 0.448830 0.222210 -0.640270
O28   O     O_R   0.912520 0.551170 0.777790 -0.638336
O29   O     O_R   0.448830 0.087480 0.777790 -0.640269
O30   O     O_R   0.551170 0.912520 0.222210 -0.638614
O31   O     O_R   0.912520 0.448830 0.777790 -0.640276
O32   O     O_R   0.087480 0.551170 0.222210 -0.638687
O33   O     O_R   0.551170 0.912520 0.777790 -0.640434
O34   O     O_R   0.448830 0.087480 0.222210 -0.638522
O35   O     O_R   0.087480 0.551170 0.777790 -0.640183
O36   O     O_R   0.912520 0.448830 0.222210 -0.638635
O37   O     O_R   0.948830 0.412520 0.722210 -0.640195
O38   O     O_R   0.051170 0.587480 0.277790 -0.638605
O39   O     O_R   0.412520 0.051170 0.722210 -0.640265
O40   O     O_R   0.587480 0.948830 0.277790 -0.638592
O41   O     O_R   0.051170 0.587480 0.722210 -0.640265
O42   O     O_R   0.948830 0.412520 0.277790 -0.638717
O43   O     O_R   0.587480 0.948830 0.722210 -0.640438
O44   O     O_R   0.412520 0.051170 0.277790 -0.638544
O45   O     O_R   0.948830 0.587480 0.277790 -0.640154
O46   O     O_R   0.051170 0.412520 0.722210 -0.638505
O47   O     O_R   0.412520 0.948830 0.277790 -0.640221
O48   O     O_R   0.587480 0.051170 0.722210 -0.638806
O49   O     O_R   0.051170 0.412520 0.277790 -0.640254
O50   O     O_R   0.948830 0.587480 0.722210 -0.638330
O51   O     O_R   0.587480 0.051170 0.277790 -0.640139
O52   O     O_R   0.412520 0.948830 0.722210 -0.638679
C49   C     C_R   0.500000 1.000000 0.120825 0.829936
C50   C     C_R   0.500000 0.000000 0.879174 0.830094
C51   C     C_R   1.000000 0.500000 0.120825 0.829972
C52   C     C_R   0.000000 0.500000 0.879174 0.829925
C53   C     C_R   0.000000 0.500000 0.620826 0.829924
C54   C     C_R   0.000000 0.500000 0.379174 0.829972
C55   C     C_R   0.500000 1.000000 0.620826 0.830093
C56   C     C_R   0.500000 1.000000 0.379174 0.829936
C57   C     C_R   0.415723 0.915723 0.250000 0.816497
C58   C     C_R   0.584276 0.084276 0.750000 0.818416
C59   C     C_R   0.915723 0.584277 0.250000 0.816586
C60   C     C_R   0.084274 0.415726 0.750000 0.818355
C61   C     C_R   0.584276 0.084276 0.250000 0.816446
C62   C     C_R   0.415724 0.915724 0.750000 0.818442
C63   C     C_R   0.084278 0.415722 0.250000 0.816715
C64   C     C_R   0.915729 0.584271 0.750000 0.818007
C65   C     C_R   0.415721 0.084278 0.750000 0.816701
C66   C     C_R   0.584276 0.915724 0.250000 0.818580
C67   C     C_R   0.915723 0.415723 0.750000 0.816295
C68   C     C_R   0.084276 0.584276 0.250000 0.818464
C69   C     C_R   0.584281 0.915719 0.750000 0.816972
C70   C     C_R   0.415726 0.084274 0.250000 0.818357
C71   C     C_R   0.084276 0.584276 0.750000 0.816290
C72   C     C_R   0.915724 0.415724 0.250000 0.818522
C73   C     C_1   0.500000 1.000000 0.430989 -0.114919
C74   C     C_1   0.500000 1.000000 0.569011 -0.114881
C75   C     C_1   1.000000 0.500000 0.430989 -0.114927
C76   C     C_1   1.000000 0.500000 0.569011 -0.114851
C77   C     C_1   0.000000 0.500000 0.930989 -0.114851
C78   C     C_1   1.000000 0.500000 0.069011 -0.114927
C79   C     C_1   0.500000 0.000000 0.930989 -0.114881
C80   C     C_1   0.500000 1.000000 0.069011 -0.114919
C81   C     C_1   0.500000 1.000000 0.474511 0.032010
C82   C     C_1   0.500000 1.000000 0.525489 0.032037
C83   C     C_1   1.000000 0.500000 0.474511 0.032006
C84   C     C_1   1.000000 0.500000 0.525489 0.032031
C85   C     C_1   0.000000 0.500000 0.974511 0.032031
C86   C     C_1   1.000000 0.500000 0.025489 0.032006
C87   C     C_1   0.500000 0.000000 0.974511 0.032037
C88   C     C_1   0.500000 1.000000 0.025489 0.032010
C89   C     C_R   0.119733 0.350075 0.286932 -0.163767
C90   C     C_R   0.840547 0.610140 0.771034 -0.161589
C91   C     C_R   0.350331 0.880025 0.287177 -0.163902
C92   C     C_R   0.659035 0.110600 0.727766 -0.161825
C93   C     C_R   0.879991 0.649633 0.287211 -0.163710
C94   C     C_R   0.159210 0.389591 0.771745 -0.161500
C95   C     C_R   0.620057 0.149582 0.212742 -0.163904
C96   C     C_R   0.340976 0.889386 0.727733 -0.161629
C97   C     C_R   0.149603 0.620038 0.787239 -0.163985
C98   C     C_R   0.889374 0.340989 0.272299 -0.161623
C99   C     C_R   0.350083 0.119739 0.713060 -0.163795
C100  C     C_R   0.610593 0.840958 0.227785 -0.161398
C101  C     C_R   0.850373 0.379986 0.787216 -0.164088
C102  C     C_R   0.159059 0.610575 0.227831 -0.161627
C103  C     C_R   0.650437 0.880756 0.713577 -0.163817
C104  C     C_R   0.389558 0.159180 0.228170 -0.161480
C105  C     C_R   0.619244 0.849562 0.786423 -0.163813
C106  C     C_R   0.340820 0.110442 0.271830 -0.161508
C107  C     C_R   0.879985 0.350372 0.712784 -0.163999
C108  C     C_R   0.110575 0.659059 0.272169 -0.161510
C109  C     C_R   0.380260 0.149917 0.786940 -0.163798
C110  C     C_R   0.659042 0.889407 0.272215 -0.161370
C111  C     C_R   0.120037 0.649603 0.712761 -0.164074
C112  C     C_R   0.840988 0.389374 0.227701 -0.161505
C113  C     C_R   0.649583 0.120057 0.287259 -0.163849
C114  C     C_R   0.389387 0.840977 0.772267 -0.161807
C115  C     C_R   0.850367 0.620009 0.212789 -0.163692
C116  C     C_R   0.110409 0.340790 0.728255 -0.161511
C117  C     C_R   0.380025 0.850330 0.212823 -0.163845
C118  C     C_R   0.610600 0.159036 0.772234 -0.161647
C119  C     C_R   0.149924 0.380267 0.213068 -0.163786
C120  C     C_R   0.889860 0.659453 0.728966 -0.161578
H1    H     H_    0.095901 0.350460 0.315885 0.171771
H2    H     H_    0.833346 0.578692 0.787318 0.172395
H3    H     H_    0.350919 0.903660 0.316320 0.171593
H4    H     H_    0.665905 0.079503 0.710523 0.172567
H5    H     H_    0.903598 0.649016 0.316382 0.171664
H6    H     H_    0.166219 0.420835 0.788596 0.172679
H7    H     H_    0.596488 0.148925 0.183534 0.171541
H8    H     H_    0.334116 0.920473 0.710463 0.172746
H9    H     H_    0.148963 0.596453 0.816432 0.171546
H10   H     H_    0.920451 0.334138 0.289594 0.172776
H11   H     H_    0.350474 0.095914 0.684101 0.171763
H12   H     H_    0.579490 0.834082 0.210557 0.172861
H13   H     H_    0.850994 0.403589 0.816391 0.171568
H14   H     H_    0.165947 0.579458 0.210640 0.172729
H15   H     H_    0.650460 0.904984 0.685022 0.172033
H16   H     H_    0.420776 0.166164 0.211250 0.172721
H17   H     H_    0.595017 0.849539 0.814978 0.172033
H18   H     H_    0.333836 0.079224 0.288750 0.172693
H19   H     H_    0.903588 0.350993 0.683609 0.171549
H20   H     H_    0.079458 0.665948 0.289360 0.172837
H21   H     H_    0.404086 0.149526 0.815899 0.171763
H22   H     H_    0.665918 0.920510 0.289443 0.172889
H23   H     H_    0.096453 0.648963 0.683569 0.171565
H24   H     H_    0.834137 0.420451 0.210405 0.172883
H25   H     H_    0.648926 0.096489 0.316466 0.171539
H26   H     H_    0.420474 0.834117 0.789537 0.172583
H27   H     H_    0.850983 0.596402 0.183618 0.171661
H28   H     H_    0.079165 0.333781 0.711404 0.172669
H29   H     H_    0.403660 0.850918 0.183679 0.171591
H30   H     H_    0.579503 0.165906 0.789477 0.172729
H31   H     H_    0.149539 0.404099 0.184115 0.171773
H32   H     H_    0.921307 0.666654 0.712682 0.172405
C121  C     C_R   0.152224 0.317927 0.287064 -0.053793
C122  C     C_R   0.808135 0.642369 0.770708 -0.052625
C123  C     C_R   0.318191 0.847525 0.287313 -0.053737
C124  C     C_R   0.691439 0.142836 0.728051 -0.053332
C125  C     C_R   0.847489 0.681772 0.287348 -0.053529
C126  C     C_R   0.191617 0.357358 0.771444 -0.052952
C127  C     C_R   0.652560 0.181720 0.212604 -0.053678
C128  C     C_R   0.308572 0.857150 0.728017 -0.053261
C129  C     C_R   0.181742 0.652540 0.787376 -0.053726
C130  C     C_R   0.857137 0.308585 0.272017 -0.053252
C131  C     C_R   0.317934 0.152231 0.712929 -0.053813
C132  C     C_R   0.642829 0.808553 0.228071 -0.053063
C133  C     C_R   0.818234 0.347484 0.787353 -0.053792
C134  C     C_R   0.191463 0.642810 0.228118 -0.053201
C135  C     C_R   0.682602 0.848282 0.713456 -0.054128
C136  C     C_R   0.357325 0.191588 0.228470 -0.052937
C137  C     C_R   0.651718 0.817397 0.786544 -0.054126
C138  C     C_R   0.308413 0.142675 0.271530 -0.052950
C139  C     C_R   0.847484 0.318233 0.712647 -0.053757
C140  C     C_R   0.142811 0.691464 0.271881 -0.053148
C141  C     C_R   0.347769 0.182066 0.787071 -0.053815
C142  C     C_R   0.691447 0.857171 0.271930 -0.053051
C143  C     C_R   0.152539 0.681741 0.712624 -0.053761
C144  C     C_R   0.808584 0.357137 0.227984 -0.053199
C145  C     C_R   0.681721 0.152560 0.287396 -0.053655
C146  C     C_R   0.357150 0.808573 0.771983 -0.053333
C147  C     C_R   0.818227 0.652510 0.212652 -0.053522
C148  C     C_R   0.142642 0.308383 0.728556 -0.052957
C149  C     C_R   0.347525 0.818190 0.212687 -0.053713
C150  C     C_R   0.642836 0.191440 0.771948 -0.053259
C151  C     C_R   0.182073 0.347776 0.212936 -0.053801
C152  C     C_R   0.857631 0.691865 0.729292 -0.052619
H33   H     H_    0.153018 0.293920 0.315845 0.157251
H34   H     H_    0.776511 0.635554 0.786800 0.157901
H35   H     H_    0.294385 0.846528 0.316288 0.157136
H36   H     H_    0.722713 0.136366 0.710987 0.157720
H37   H     H_    0.846463 0.705549 0.316351 0.157331
H38   H     H_    0.223037 0.363972 0.788112 0.157910
H39   H     H_    0.653626 0.205457 0.183564 0.157129
H40   H     H_    0.277308 0.863610 0.710925 0.157806
H41   H     H_    0.205496 0.653590 0.816402 0.157107
H42   H     H_    0.863588 0.277331 0.289134 0.157839
H43   H     H_    0.293933 0.153031 0.684141 0.157248
H44   H     H_    0.636352 0.777274 0.211021 0.157983
H45   H     H_    0.794461 0.346454 0.816359 0.157092
H46   H     H_    0.222757 0.636320 0.211106 0.157835
H47   H     H_    0.707014 0.847897 0.685079 0.157288
H48   H     H_    0.363914 0.222983 0.211734 0.157921
H49   H     H_    0.652103 0.792986 0.814921 0.157288
H50   H     H_    0.277018 0.136086 0.288266 0.157909
H51   H     H_    0.846453 0.294460 0.683640 0.157088
H52   H     H_    0.136321 0.722758 0.288893 0.157887
H53   H     H_    0.346970 0.206067 0.815859 0.157248
H54   H     H_    0.722727 0.863648 0.288979 0.157995
H55   H     H_    0.153589 0.705495 0.683599 0.157111
H56   H     H_    0.777330 0.363588 0.210866 0.157890
H57   H     H_    0.705458 0.153627 0.316437 0.157129
H58   H     H_    0.363611 0.777309 0.789075 0.157732
H59   H     H_    0.794450 0.653536 0.183649 0.157331
H60   H     H_    0.136028 0.276963 0.711888 0.157904
H61   H     H_    0.346527 0.794384 0.183712 0.157137
H62   H     H_    0.636366 0.222714 0.789013 0.157794
H63   H     H_    0.206080 0.346982 0.184155 0.157251
H64   H     H_    0.864445 0.723489 0.713200 0.157907
C153  C     C_R   0.183378 0.316622 0.250000 0.225810
C154  C     C_R   0.816661 0.683339 0.750000 0.224219
C155  C     C_R   0.316630 0.816630 0.250000 0.225898
C156  C     C_R   0.683365 0.183366 0.750000 0.224800
C157  C     C_R   0.816631 0.683368 0.250000 0.225615
C158  C     C_R   0.183356 0.316644 0.750000 0.224423
C159  C     C_R   0.683367 0.183367 0.250000 0.225883
C160  C     C_R   0.316633 0.816634 0.750000 0.224779
C161  C     C_R   0.183368 0.683368 0.750000 0.225987
C162  C     C_R   0.816633 0.316633 0.250000 0.224652
C163  C     C_R   0.316622 0.183378 0.750000 0.225828
C164  C     C_R   0.683365 0.816635 0.250000 0.224353
C165  C     C_R   0.816631 0.316631 0.750000 0.226020
C166  C     C_R   0.183364 0.683364 0.250000 0.224622
C167  C     C_R   0.683394 0.816606 0.750000 0.225899
C168  C     C_R   0.316643 0.183357 0.250000 0.224395
C169  C     C_R   0.282550 0.217450 0.250000 -0.265957
C170  C     C_R   0.717499 0.782501 0.750000 -0.265132
C171  C     C_R   0.217460 0.717460 0.250000 -0.265751
C172  C     C_R   0.782535 0.282535 0.750000 -0.265942
C173  C     C_R   0.717462 0.782538 0.250000 -0.265612
C174  C     C_R   0.282522 0.217478 0.750000 -0.265556
C175  C     C_R   0.782536 0.282536 0.250000 -0.265670
C176  C     C_R   0.217464 0.717464 0.750000 -0.265947
C177  C     C_R   0.282537 0.782537 0.750000 -0.265744
C178  C     C_R   0.717463 0.217463 0.250000 -0.265927
C179  C     C_R   0.217449 0.282551 0.750000 -0.265922
C180  C     C_R   0.782535 0.717465 0.250000 -0.265758
C181  C     C_R   0.717462 0.217462 0.750000 -0.265773
C182  C     C_R   0.282533 0.782533 0.250000 -0.265850
C183  C     C_R   0.782573 0.717427 0.750000 -0.266405
C184  C     C_R   0.217477 0.282522 0.250000 -0.265566
N1    N     N_R   0.178818 0.244618 0.183662 0.245817
O53   O     O_R   0.186687 0.238446 0.138016 -0.279527
O54   O     O_R   0.138451 0.248223 0.198255 -0.333590
N2    N     N_R   0.821280 0.755359 0.816284 0.246820
O55   O     O_R   0.843398 0.791672 0.819880 -0.276551
O56   O     O_R   0.832090 0.722111 0.843165 -0.336303
N3    N     N_R   0.243813 0.822014 0.184831 0.245945
O57   O     O_R   0.237045 0.814711 0.139175 -0.279471
O58   O     O_R   0.247630 0.862196 0.199964 -0.334097
N4    N     N_R   0.676204 0.257957 0.687529 0.246458
O59   O     O_R   0.653927 0.294308 0.686827 -0.278151
O60   O     O_R   0.664364 0.225798 0.659592 -0.335256
N5    N     N_R   0.822136 0.756304 0.185006 0.245978
O61   O     O_R   0.814916 0.763162 0.139351 -0.278528
O62   O     O_R   0.862290 0.752455 0.200218 -0.333933
N6    N     N_R   0.177135 0.243004 0.813936 0.246607
O63   O     O_R   0.154904 0.206654 0.815731 -0.277349
O64   O     O_R   0.165688 0.275580 0.841483 -0.335389
N7    N     N_R   0.677701 0.256462 0.314758 0.246000
O65   O     O_R   0.684807 0.263436 0.360412 -0.279304
O66   O     O_R   0.637584 0.252569 0.299440 -0.334208
N8    N     N_R   0.323862 0.741973 0.687639 0.246430
O67   O     O_R   0.346142 0.705623 0.687018 -0.278275
O68   O     O_R   0.335731 0.774100 0.659674 -0.335184
N9    N     N_R   0.256395 0.677768 0.685143 0.245983
O69   O     O_R   0.263322 0.684923 0.639488 -0.279276
O70   O     O_R   0.252523 0.637636 0.700417 -0.334254
N10   N     N_R   0.741909 0.323925 0.312261 0.246462
O71   O     O_R   0.705562 0.346208 0.312807 -0.277966
O72   O     O_R   0.774010 0.335821 0.340251 -0.335136
N11   N     N_R   0.244639 0.178838 0.816365 0.245804
O73   O     O_R   0.238489 0.186720 0.862011 -0.279565
O74   O     O_R   0.248235 0.138468 0.801783 -0.333640
N12   N     N_R   0.757935 0.823774 0.187496 0.246523
O75   O     O_R   0.794284 0.846052 0.186771 -0.277686
O76   O     O_R   0.725767 0.835603 0.159566 -0.334614
N13   N     N_R   0.743674 0.322158 0.685037 0.245954
O77   O     O_R   0.736801 0.314953 0.639381 -0.279476
O78   O     O_R   0.747528 0.362307 0.700264 -0.334493
N14   N     N_R   0.176338 0.757819 0.187314 0.246492
O79   O     O_R   0.154067 0.794170 0.186453 -0.277808
O80   O     O_R   0.164555 0.725599 0.159433 -0.335264
N15   N     N_R   0.753712 0.819456 0.818622 0.245532
O81   O     O_R   0.758667 0.810445 0.864194 -0.280759
O82   O     O_R   0.750524 0.860174 0.805137 -0.333096
N16   N     N_R   0.242976 0.177107 0.186106 0.246637
O83   O     O_R   0.206625 0.154876 0.184344 -0.277276
O84   O     O_R   0.275538 0.165647 0.158545 -0.335387
N17   N     N_R   0.680544 0.746288 0.681378 0.245533
O85   O     O_R   0.689554 0.741333 0.635805 -0.280752
O86   O     O_R   0.639825 0.749476 0.694863 -0.333081
N18   N     N_R   0.322893 0.257024 0.313894 0.246641
O87   O     O_R   0.345124 0.293375 0.315656 -0.277260
O88   O     O_R   0.334354 0.224462 0.341455 -0.335386
N19   N     N_R   0.822158 0.243675 0.814963 0.245972
O89   O     O_R   0.814954 0.236802 0.860618 -0.279405
O90   O     O_R   0.862308 0.247529 0.799737 -0.334239
N20   N     N_R   0.257819 0.676338 0.312685 0.246479
O91   O     O_R   0.294170 0.654067 0.313545 -0.277867
O92   O     O_R   0.225599 0.664555 0.340566 -0.335264
N21   N     N_R   0.321161 0.255361 0.683635 0.245802
O93   O     O_R   0.313280 0.261511 0.637988 -0.279572
O94   O     O_R   0.361532 0.251765 0.698217 -0.333656
N22   N     N_R   0.676226 0.742065 0.312504 0.246519
O95   O     O_R   0.653948 0.705716 0.313229 -0.277702
O96   O     O_R   0.664397 0.774233 0.340434 -0.334617
N23   N     N_R   0.177769 0.756396 0.814857 0.245964
O97   O     O_R   0.184924 0.763323 0.860512 -0.279348
O98   O     O_R   0.137636 0.752524 0.799582 -0.334508
N24   N     N_R   0.823925 0.241909 0.187740 0.246450
O99   O     O_R   0.846208 0.205562 0.187194 -0.278027
O100  O     O_R   0.835821 0.274009 0.159751 -0.335138
N25   N     N_R   0.756462 0.177700 0.185242 0.246012
O101  O     O_R   0.763436 0.184806 0.139588 -0.279249
O102  O     O_R   0.752569 0.137584 0.200560 -0.334045
N26   N     N_R   0.241973 0.823863 0.812361 0.246453
O103  O     O_R   0.205623 0.846143 0.812983 -0.278170
O104  O     O_R   0.274101 0.835732 0.840327 -0.335162
N27   N     N_R   0.743696 0.677863 0.314994 0.245981
O105  O     O_R   0.736838 0.685083 0.360649 -0.278518
O106  O     O_R   0.747545 0.637709 0.299782 -0.333890
N28   N     N_R   0.256996 0.322865 0.686064 0.246608
O107  O     O_R   0.293346 0.345096 0.684269 -0.277343
O108  O     O_R   0.224419 0.334313 0.658517 -0.335390
N29   N     N_R   0.322015 0.743813 0.315169 0.245957
O109  O     O_R   0.314712 0.737045 0.360824 -0.279416
O110  O     O_R   0.362197 0.747630 0.300036 -0.333934
N30   N     N_R   0.757958 0.176205 0.812470 0.246435
O111  O     O_R   0.794308 0.153928 0.813172 -0.278255
O112  O     O_R   0.725799 0.164364 0.840407 -0.335278
N31   N     N_R   0.255382 0.321182 0.316338 0.245815
O113  O     O_R   0.261554 0.313313 0.361983 -0.279538
O114  O     O_R   0.251776 0.361548 0.301745 -0.333633
N32   N     N_R   0.744641 0.678720 0.683716 0.246819
O115  O     O_R   0.708328 0.656602 0.680120 -0.276555
O116  O     O_R   0.777889 0.667911 0.656835 -0.336303

loop_
_geom_bond_atom_site_label_1
_geom_bond_atom_site_label_2
_geom_bond_distance
_ccdc_geom_bond_type
C1    C63   1.472169 S    
N5    O62   1.301174 A    
C2    C64   1.471551 S    
C36   C171  1.411145 A    
C43   N27   1.438093 S    
C133  C165  1.400129 A    
O34   C70   1.274065 A    
C156  C181  1.471514 S    
C155  C182  1.471523 S    
C33   C170  1.411250 A    
C39   N23   1.438093 S    
C17   C184  1.411186 A    
C36   C45   1.407980 A    
C18   C183  1.411045 A    
C113  C145  1.394881 A    
O27   C63   1.274155 A    
Zn11  O22   1.930147 S    
O25   C61   1.274103 A    
C40   C41   1.407991 A    
C29   C172  1.411146 A    
C120  C152  1.394896 A    
O45   C59   1.274110 A    
O47   C57   1.274118 A    
N4    O59   1.301184 A    
C107  H19   1.082979 S    
C15   C69   1.472397 S    
C79   C87   1.206087 T    
Zn9   O31   1.930144 S    
C7    C95   1.405395 A    
Zn8   O50   1.930141 S    
Zn10  O7    1.899214 S    
Zn11  O29   1.930138 S    
C157  C180  1.471502 S    
O37   C67   1.274112 A    
C16   C104  1.405348 A    
C158  C179  1.471375 S    
C37   N21   1.438061 S    
Zn12  O9    1.899220 S    
C159  C178  1.471488 S    
C97   C129  1.394881 A    
C116  C148  1.394880 A    
C8    C96   1.405381 A    
Zn15  O33   1.930139 S    
C34   C169  1.411106 A    
C95   C127  1.394881 A    
C14   C108  1.405374 A    
N18   O87   1.301251 A    
N13   O78   1.301181 A    
C104  C136  1.394887 A    
C115  H27   1.082981 S    
N3    O57   1.301188 A    
C5    C93   1.405399 A    
N26   O104  1.301181 A    
N7    O66   1.301161 A    
Zn15  O2    1.932637 S    
C3    C57   1.472049 S    
C40   N24   1.438097 S    
O17   C53   1.278608 A    
C36   N20   1.438091 S    
C28   C173  1.411148 A    
N24   O100  1.301164 A    
C98   H10   1.082982 S    
C100  C132  1.394873 A    
C78   C86   1.206087 T    
Zn7   O42   1.930144 S    
N6    O63   1.301242 A    
N21   O94   1.301199 A    
C121  C153  1.400161 A    
Zn6   O52   1.930149 S    
C45   C182  1.411153 A    
C92   C124  1.394879 A    
Zn10  O27   1.930139 S    
C14   C68   1.471950 S    
N25   O101  1.301135 A    
N23   O97   1.301189 A    
C168  C169  1.471353 S    
C124  H36   1.083268 S    
Zn6   O19   1.899222 S    
C32   N16   1.438106 S    
Zn11  O10   1.899220 S    
Zn14  O36   1.930149 S    
O7    C51   1.278607 A    
C26   C175  1.411154 A    
C108  H20   1.082983 S    
C21   C28   1.407972 A    
C22   C27   1.407964 A    
C122  C154  1.400089 A    
N17   O85   1.301313 A    
Zn16  O34   1.930141 S    
C165  C172  1.471501 S    
C119  C151  1.394862 A    
N12   O75   1.301175 A    
C102  H14   1.082985 S    
C31   N15   1.438015 S    
C12   C100  1.405382 A    
C4    C118  1.405378 A    
N7    O65   1.301135 A    
C163  C174  1.471642 S    
O52   C62   1.274098 A    
C4    C92   1.405382 A    
N15   O81   1.301313 A    
C106  H18   1.082989 S    
Zn16  O1    1.932636 S    
C151  C153  1.400159 A    
C42   N26   1.438088 S    
O18   C54   1.278608 A    
C27   N11   1.438062 S    
C164  C173  1.471508 S    
O46   C60   1.274049 A    
N22   O95   1.301175 A    
C139  C165  1.400129 A    
C23   N7    1.438097 S    
C109  C141  1.394864 A    
O22   C58   1.274097 A    
Zn9   O8    1.899214 S    
Zn8   O41   1.930141 S    
C34   N18   1.438109 S    
N29   O109  1.301187 A    
C103  C135  1.394840 A    
C145  C159  1.400124 A    
C51   C78   1.435899 S    
C118  H30   1.082982 S    
C146  C160  1.400143 A    
O12   C52   1.278608 A    
O40   C66   1.274092 A    
C148  C158  1.400126 A    
C49   C80   1.435899 S    
C127  C159  1.400122 A    
C50   C79   1.435899 S    
O28   C64   1.273989 A    
Zn3   O45   1.930138 S    
O29   C65   1.274147 A    
C136  C168  1.400117 A    
C105  C137  1.394840 A    
C26   N10   1.438095 S    
N16   O83   1.301250 A    
C110  H22   1.082990 S    
C104  H16   1.082989 S    
C112  H24   1.082980 S    
C38   N22   1.438090 S    
N20   O91   1.301183 A    
C6    C116  1.405339 A    
Zn1   O1    1.932642 S    
Zn14  O3    1.932628 S    
C160  C177  1.471527 S    
C1    C89   1.405440 A    
C33   C48   1.407941 A    
C29   N13   1.438093 S    
Zn5   O51   1.930147 S    
C89   C121  1.394860 A    
C34   C47   1.407958 A    
C134  C166  1.400136 A    
C53   C76   1.435899 S    
O35   C71   1.274108 A    
C35   C46   1.407982 A    
C54   C75   1.435899 S    
Zn9   O28   1.930136 S    
O33   C69   1.274220 A    
C94   C126  1.394883 A    
C37   C44   1.407962 A    
N20   O92   1.301179 A    
C38   C43   1.407974 A    
N9    O70   1.301181 A    
C135  H47   1.083290 S    
O10   C50   1.278608 A    
C37   C174  1.411182 A    
C121  H33   1.083278 S    
N30   O111  1.301182 A    
C128  C160  1.400143 A    
C32   C169  1.411107 A    
Zn4   O4    1.932632 S    
Zn5   O20   1.899222 S    
C135  C167  1.400220 A    
C117  C149  1.394878 A    
N3    O58   1.301182 A    
N2    O56   1.301220 A    
Zn13  O35   1.930147 S    
C16   C70   1.471834 S    
O8    C52   1.278607 A    
N14   O80   1.301182 A    
C93   H5    1.082980 S    
C151  H63   1.083276 S    
N32   O115  1.301361 A    
C125  C157  1.400127 A    
Zn8   O13   1.899217 S    
N28   O108  1.301192 A    
C56   C73   1.435899 S    
C48   C183  1.411048 A    
C48   N32   1.438137 S    
C87   C88   1.412710 S    
N25   O102  1.301158 A    
Zn1   O16   1.899214 S    
Zn15  O6    1.899217 S    
C131  H43   1.083274 S    
C132  H44   1.083273 S    
Zn2   O2    1.932641 S    
C40   C175  1.411154 A    
C105  H17   1.082968 S    
C128  H40   1.083269 S    
C129  H41   1.083272 S    
C25   C176  1.411142 A    
N8    O68   1.301180 A    
C13   C101  1.405401 A    
C76   C84   1.206087 T    
C15   C103  1.405497 A    
O6    C50   1.278607 A    
C107  C139  1.394879 A    
C75   C83   1.206087 T    
C166  C171  1.471493 S    
N31   O114  1.301201 A    
C147  H59   1.083270 S    
C167  C170  1.471873 S    
C111  C143  1.394877 A    
C148  H60   1.083278 S    
O13   C53   1.278607 A    
Zn7   O3    1.932637 S    
C8    C62   1.471980 S    
Zn16  O25   1.930141 S    
N10   O71   1.301118 A    
C144  H56   1.083265 S    
C99   H11   1.082972 S    
N4    O60   1.301183 A    
Zn13  O4    1.932623 S    
C130  H42   1.083262 S    
C143  H55   1.083270 S    
N17   O86   1.301229 A    
N15   O82   1.301231 A    
C38   C173  1.411150 A    
C126  H38   1.083275 S    
N18   O88   1.301191 A    
N13   O77   1.301189 A    
O32   C68   1.274091 A    
C90   H2    1.083005 S    
Zn2   O48   1.930141 S    
C149  H61   1.083271 S    
C13   C67   1.472028 S    
C12   C66   1.471957 S    
C9    C71   1.472015 S    
C13   C107  1.405403 A    
C7    C113  1.405395 A    
C10   C72   1.471989 S    
C114  C146  1.394881 A    
O51   C61   1.274106 A    
C43   C180  1.411150 A    
C6    C94   1.405340 A    
C116  H28   1.083004 S    
N19   O89   1.301187 A    
C7    C61   1.472004 S    
C33   N17   1.438015 S    
C141  H53   1.083274 S    
N1    O54   1.301201 A    
C30   N14   1.438093 S    
C14   C102  1.405376 A    
Zn2   O15   1.899214 S    
C140  C166  1.400137 A    
Zn4   O17   1.899220 S    
C21   N5    1.438092 S    
C83   C84   1.412710 S    
C25   N9    1.438095 S    
O48   C58   1.274098 A    
Zn11  O2    1.932628 S    
C133  H45   1.083269 S    
C122  H34   1.083268 S    
C52   C77   1.435899 S    
C98   C130  1.394878 A    
Zn12  O30   1.930135 S    
O23   C59   1.274109 A    
C23   C26   1.407989 A    
C120  H32   1.083006 S    
C132  C164  1.400144 A    
C28   N12   1.438091 S    
C11   C65   1.472162 S    
C91   H3    1.082978 S    
C92   H4    1.082987 S    
C17   N1    1.438063 S    
C24   C177  1.411152 A    
N11   O73   1.301233 A    
C161  C176  1.471493 S    
C162  C175  1.471540 S    
C9    C97   1.405398 A    
Zn10  O3    1.932641 S    
C16   C106  1.405349 A    
O43   C69   1.274221 A    
C4    C58   1.471970 S    
C2    C90   1.405272 A    
C97   H9    1.082978 S    
O41   C71   1.274106 A    
O42   C72   1.274098 A    
C153  C184  1.471627 S    
C95   H7    1.082983 S    
C47   N31   1.438063 S    
C154  C183  1.471131 S    
C147  C157  1.400129 A    
C96   H8    1.082983 S    
C115  C147  1.394873 A    
Zn6   O39   1.930138 S    
N12   O76   1.301179 A    
C101  C133  1.394879 A    
C19   C182  1.411153 A    
C108  C140  1.394884 A    
C31   C170  1.411249 A    
O20   C56   1.278608 A    
N22   O96   1.301179 A    
O16   C56   1.278607 A    
Zn4   O46   1.930135 S    
C100  H12   1.082991 S    
C21   C180  1.411151 A    
C22   C179  1.411110 A    
C11   C109  1.405433 A    
N6    O64   1.301192 A    
N26   O103  1.301184 A    
C141  C163  1.400163 A    
N27   O105  1.301178 A    
C9    C111  1.405398 A    
C142  C164  1.400147 A    
C10   C112  1.405383 A    
Zn12  O1    1.932632 S    
O30   C66   1.274090 A    
C3    C91   1.405406 A    
Zn14  O11   1.899222 S    
C74   C82   1.206087 T    
C106  C138  1.394887 A    
N24   O99   1.301116 A    
C81   C82   1.412710 S    
C3    C117  1.405404 A    
O44   C70   1.274063 A    
C41   N25   1.438099 S    
N16   O84   1.301193 A    
C1    C119  1.405438 A    
C46   C181  1.411150 A    
C55   C74   1.435899 S    
C2    C120  1.405272 A    
C20   N4    1.438089 S    
C103  H15   1.082969 S    
O38   C68   1.274090 A    
C118  C150  1.394881 A    
C101  H13   1.082983 S    
O26   C62   1.274096 A    
C130  C162  1.400142 A    
C20   C181  1.411149 A    
C39   C42   1.407978 A    
C136  H48   1.083262 S    
C17   C32   1.407960 A    
C137  H49   1.083289 S    
C18   C31   1.407938 A    
C80   C88   1.206087 T    
O19   C55   1.278608 A    
C19   C30   1.407978 A    
C137  C167  1.400220 A    
C110  C142  1.394873 A    
C138  C168  1.400114 A    
Zn1   O47   1.930144 S    
N5    O61   1.301182 A    
O21   C57   1.274120 A    
C19   N3    1.438088 S    
C44   C179  1.411113 A    
C18   N2    1.438136 S    
C73   C81   1.206087 T    
C119  H31   1.082975 S    
N9    O69   1.301189 A    
C102  C134  1.394879 A    
C117  H29   1.082977 S    
Zn12  O21   1.930150 S    
C41   C178  1.411147 A    
N30   O112  1.301180 A    
Zn14  O23   1.930138 S    
C152  H64   1.083266 S    
C35   C172  1.411147 A    
C134  H46   1.083266 S    
C111  H23   1.082981 S    
Zn2   O43   1.930139 S    
C47   C184  1.411189 A    
C109  H21   1.082973 S    
C146  H58   1.083269 S    
O36   C72   1.274100 A    
C113  H25   1.082979 S    
C30   C171  1.411144 A    
C6    C60   1.471800 S    
N19   O90   1.301182 A    
N31   O113  1.301240 A    
C27   C174  1.411183 A    
C5    C59   1.472026 S    
C39   C176  1.411145 A    
N32   O116  1.301215 A    
C127  H39   1.083269 S    
C77   C85   1.206087 T    
Zn5   O40   1.930140 S    
C90   C122  1.394894 A    
Zn4   O37   1.930150 S    
C150  H62   1.083268 S    
C42   C177  1.411151 A    
N29   O110  1.301183 A    
C93   C125  1.394875 A    
C112  C144  1.394879 A    
O9    C49   1.278608 A    
C8    C114  1.405385 A    
O11   C51   1.278608 A    
C142  H54   1.083273 S    
Zn5   O1    1.932623 S    
O15   C55   1.278607 A    
N23   O98   1.301183 A    
C131  C163  1.400165 A    
C24   N8    1.438085 S    
N11   O74   1.301198 A    
Zn13  O12   1.899222 S    
Zn10  O32   1.930141 S    
C94   H6    1.083003 S    
Zn3   O18   1.899220 S    
O31   C67   1.274113 A    
C20   C29   1.407978 A    
C96   C128  1.394879 A    
C22   N6    1.438111 S    
C129  C161  1.400126 A    
N21   O93   1.301234 A    
Zn7   O14   1.899217 S    
C123  C155  1.400134 A    
Zn3   O38   1.930147 S    
C24   C25   1.407982 A    
C124  C156  1.400142 A    
N10   O72   1.301170 A    
Zn8   O4    1.932636 S    
C23   C178  1.411150 A    
C15   C105  1.405497 A    
C5    C115  1.405399 A    
C45   N29   1.438090 S    
Zn7   O49   1.930139 S    
C10   C98   1.405386 A    
O49   C63   1.274154 A    
C44   N28   1.438111 S    
O50   C64   1.273988 A    
Zn3   O3    1.932628 S    
Zn16  O5    1.899217 S    
C152  C154  1.400091 A    
C145  H57   1.083267 S    
C99   C131  1.394862 A    
C143  C161  1.400128 A    
C139  H51   1.083271 S    
N2    O55   1.301360 A    
C140  H52   1.083269 S    
O39   C65   1.274148 A    
Zn9   O4    1.932642 S    
C125  H37   1.083270 S    
O24   C60   1.274050 A    
C46   N30   1.438086 S    
Zn15  O26   1.930144 S    
N27   O106  1.301177 A    
C144  C162  1.400142 A    
C91   C123  1.394876 A    
Zn13  O24   1.930140 S    
O5    C49   1.278607 A    
N14   O79   1.301185 A    
C126  C158  1.400129 A    
N1    O53   1.301241 A    
O14   C54   1.278607 A    
C89   H1    1.082974 S    
Zn1   O44   1.930136 S    
C123  H35   1.083272 S    
Zn6   O2    1.932628 S    
C138  H50   1.083261 S    
N8    O67   1.301180 A    
C149  C155  1.400133 A    
C114  H26   1.082986 S    
C150  C156  1.400143 A    
N28   O107  1.301245 A    
C85   C86   1.412710 S    
C12   C110  1.405382 A    
C35   N19   1.438092 S    
C11   C99   1.405435 A    
