data_mof_unit_30864.cif
_audit_creation_date              2012-12-10T18:16:19-0500
_audit_creation_method            fapswitch 2.2
_symmetry_space_group_name_H-M    P1
_symmetry_Int_Tables_number       1
_space_group_crystal_system       triclinic
_cell_length_a                    12.568776
_cell_length_b                    13.223877
_cell_length_c                    27.741548
_cell_angle_alpha                 90.812044
_cell_angle_beta                  102.535175
_cell_angle_gamma                 83.531913
_cell_volume                      4472.05557315

loop_
_atom_site_label
_atom_site_type_symbol
_atom_type_description
_atom_site_fract_x
_atom_site_fract_y
_atom_site_fract_z
_atom_type_partial_charge
C1    C     C_R   0.440268 0.690446 0.490514 0.870111
C2    C     C_R   0.414479 0.507197 0.716497 -0.155775
C3    C     C_R   0.517136 0.494197 0.748799 0.301520
C4    C     C_R   0.526969 0.490696 0.900903 -0.092957
C5    C     C_R   0.555603 0.576784 0.878940 -0.031420
C6    C     C_R   0.585389 0.660953 0.908535 0.142216
C7    C     C_R   0.499539 0.405213 0.871825 -0.012679
C8    C     C_R   0.503654 0.499734 0.647067 -0.049395
C9    C     C_R   0.499072 0.496978 0.353414 -0.034497
C10   C     C_R   0.534268 0.580827 0.029823 0.056664
C11   C     C_R   0.501730 0.399993 0.024875 0.043403
C12   C     C_R   0.500543 0.500708 0.593926 0.903238
C13   C     C_R   0.515151 0.490815 0.052280 0.070572
C14   C     C_R   0.538557 0.671336 0.057649 -0.216509
C15   C     C_R   0.530557 0.671836 0.106708 -0.139211
C16   C     C_R   0.517459 0.582409 0.129772 -0.021885
C17   C     C_R   0.509249 0.491707 0.102693 -0.053394
C18   C     C_R   0.495192 0.401914 0.126133 -0.020276
C19   C     C_R   0.491050 0.404239 0.176141 0.501909
C20   C     C_R   0.511821 0.581560 0.179545 0.503353
C21   C     C_R   0.403001 0.480836 0.268533 -0.098942
C22   C     C_R   0.402741 0.482548 0.318635 -0.220494
C23   C     C_R   0.559488 0.309285 0.501718 0.872702
C24   C     C_R   0.595679 0.508776 0.337449 -0.223144
C25   C     C_R   0.595687 0.506828 0.287429 -0.105105
C26   C     C_R   0.499384 0.493276 0.252960 0.318849
C27   C     C_R   0.546471 0.578111 0.980238 0.026875
C28   C     C_R   0.524721 0.490045 0.951782 0.071437
C29   C     C_R   0.499799 0.401512 0.973625 0.053863
C30   C     C_R   0.580832 0.660648 0.958258 -0.271627
C31   C     C_R   0.471998 0.319781 0.893260 -0.135855
C32   C     C_R   0.490712 0.310521 0.049885 -0.216536
C33   C     C_R   0.487350 0.311729 0.099535 -0.137021
C34   C     C_R   0.499482 0.499287 0.406132 0.844499
C35   C     C_R   0.471996 0.317773 0.943136 -0.216799
C36   C     C_R   0.729193 0.057558 0.495342 -0.191936
C37   C     C_R   0.591768 0.202151 0.493368 -0.103812
C38   C     C_R   0.298819 0.836817 0.483700 -0.188407
C39   C     C_R   0.270290 0.940806 0.485195 -0.151041
C40   C     C_R   0.347518 0.006892 0.483170 -0.151706
C41   C     C_R   0.452359 0.970593 0.474809 0.098303
C42   C     C_R   0.480091 0.865044 0.471022 0.072286
C43   C     C_R   0.534692 0.035534 0.475673 0.086118
C44   C     C_R   0.645391 0.994540 0.481111 0.135553
C45   C     C_R   0.552946 0.575261 0.827892 0.520357
C46   C     C_R   0.668817 0.892343 0.470720 -0.239479
C47   C     C_R   0.584644 0.830132 0.461628 -0.185881
C48   C     C_R   0.510260 0.140335 0.471691 0.036836
C49   C     C_R   0.702109 0.160183 0.504833 -0.227098
C50   C     C_R   0.404991 0.798170 0.479488 -0.112071
C51   C     C_R   0.081368 0.358039 0.425219 0.017114
C52   C     C_R   0.802192 0.628765 0.559006 0.013976
C53   C     C_R   0.908385 0.655547 0.571608 -0.254138
C54   C     C_R   0.989005 0.605986 0.549543 -0.201809
C55   C     C_R   0.963548 0.528806 0.514494 0.033102
C56   C     C_R   0.498444 0.407580 0.821435 0.504583
C57   C     C_R   0.853923 0.504362 0.503024 0.236924
C58   C     C_R   0.041532 0.476463 0.489833 -0.051564
C59   C     C_R   0.007211 0.404567 0.452580 0.169589
C60   C     C_R   0.899391 0.380625 0.443154 -0.279680
C61   C     C_R   0.824979 0.428625 0.468463 -0.235074
C62   C     C_R   0.152753 0.492811 0.500432 -0.055959
C63   C     C_R   0.189057 0.381940 0.436460 -0.058333
C64   C     C_R   0.612923 0.484568 0.730701 -0.101092
C65   C     C_R   0.606337 0.487338 0.680156 -0.260404
C66   C     C_R   0.406642 0.510403 0.665555 0.080822
H1    H     H_    0.692375 0.474614 0.755886 0.145080
H2    H     H_    0.449373 0.253845 0.871423 0.189026
H3    H     H_    0.487008 0.237327 0.032469 0.142507
H4    H     H_    0.478612 0.241274 0.117009 0.190284
H5    H     H_    0.670391 0.516011 0.275320 0.139690
H6    H     H_    0.446415 0.250218 0.956288 0.141964
H7    H     H_    0.766937 0.207137 0.519088 0.173288
H8    H     H_    0.814655 0.026781 0.501058 0.144481
H9    H     H_    0.340733 0.515597 0.731099 0.136392
H10   H     H_    0.239954 0.786658 0.489243 0.158577
H11   H     H_    0.325609 0.085205 0.491399 0.144499
H12   H     H_    0.190318 0.970089 0.491260 0.146351
H13   H     H_    0.604391 0.754003 0.449157 0.186925
H14   H     H_    0.871461 0.324206 0.416061 0.182457
H15   H     H_    0.186663 0.543569 0.528861 0.145980
H16   H     H_    0.739237 0.667063 0.576007 0.147573
H17   H     H_    0.069590 0.630625 0.560159 0.138032
H18   H     H_    0.928136 0.714841 0.598288 0.155258
H19   H     H_    0.744687 0.405224 0.459672 0.217091
H20   H     H_    0.327311 0.473060 0.330047 0.160998
H21   H     H_    0.328414 0.470482 0.241772 0.142512
H22   H     H_    0.534757 0.742992 0.126514 0.191048
H23   H     H_    0.544970 0.744130 0.042216 0.143450
H24   H     H_    0.607620 0.726009 0.979088 0.140521
H25   H     H_    0.681893 0.478726 0.666986 0.174367
N1    N     N_R   0.523863 0.491965 0.800709 -0.358696
N2    N     N_R   0.499698 0.493149 0.201610 -0.356752
N3    N     N_R   0.222180 0.444690 0.474320 -0.109992
N4    N     N_R   0.776980 0.554780 0.525420 -0.134064
O1    O     O_R   0.366730 0.627160 0.487740 -0.614542
O2    O     O_2   0.518321 0.668253 0.205798 -0.557326
O3    O     O_2   0.471968 0.326354 0.793149 -0.559159
O4    O     O_2   0.479700 0.318331 0.199345 -0.560508
O5    O     O_R   0.544830 0.662520 0.504140 -0.627537
O6    O     O_R   0.410970 0.482310 0.563040 -0.586345
O7    O     O_R   0.589070 0.517670 0.579450 -0.625371
O8    O     O_R   0.455170 0.337480 0.495860 -0.621738
O9    O     O_R   0.633270 0.372840 0.512260 -0.635636
O10   O     O_R   0.410930 0.482330 0.420550 -0.627291
O11   O     O_R   0.589030 0.517690 0.436960 -0.650056
O12   O     O_2   0.577247 0.656370 0.805096 -0.527258
Zn1   Zn    Zn3+2 0.381080 0.476390 0.489050 0.946896
Zn2   Zn    Zn3+2 0.618920 0.523610 0.510950 0.927729
N5    N     N_3   0.300569 0.526587 0.633113 -0.450172
H26   H     H_    0.260682 0.595403 0.642445 0.174989
H27   H     H_    0.255340 0.468241 0.639327 0.196505
H28   H     H_    0.671246 0.519425 0.363491 0.167605
H29   H     H_    0.751420 0.860856 0.469165 0.154806
N6    N     N_3   0.413507 0.180210 0.436279 -0.460000
H30   H     H_    0.355184 0.216384 0.454096 0.202845
H31   H     H_    0.434554 0.231929 0.412698 0.195477
H32   H     H_    0.246726 0.351645 0.414736 0.125369
N7    N     N_3   0.047020 0.288590 0.386037 -0.464965
H33   H     H_    0.996272 0.331331 0.356752 0.187881
H34   H     H_    0.114457 0.254999 0.372877 0.187977
N8    N     N_3   0.620810 0.747746 0.888724 -0.373907
H35   H     H_    0.699710 0.757155 0.908714 0.183664
H36   H     H_    0.568425 0.812122 0.894128 0.187451

loop_
_geom_bond_atom_site_label_1
_geom_bond_atom_site_label_2
_ccdc_geom_bond_type
C10   C27   A    
C58   C62   A    
C59   C60   A    
C20   N2    A    
C21   H21   S    
C8    C66   A    
C41   C42   A    
C56   O3    S    
C30   H24   S    
C38   H10   S    
C53   C54   A    
C63   N3    A    
N3    Zn1   S    
C53   H18   S    
C5    C6    A    
C28   C29   A    
O5    Zn2   S    
O9    Zn2   S    
C9    C22   A    
C15   C16   A    
C52   N4    A    
C18   C19   A    
C45   N1    A    
N5    H26   S    
C54   C55   A    
C24   H28   S    
C23   O8    A    
C20   O2    S    
C16   C17   A    
N6    H31   S    
C51   N7    S    
O8    Zn1   S    
C25   H5    S    
C47   H13   S    
C43   C48   A    
C19   N2    A    
C16   C20   A    
O6    Zn1   S    
O1    Zn1   S    
C8    C65   A    
C21   C22   A    
C27   C30   A    
C41   C43   A    
C7    C56   A    
C4    C7    A    
C1    O5    A    
C54   H17   S    
C4    C28   A    
C21   C26   A    
C44   C46   A    
N7    H34   S    
C31   H2    S    
O10   Zn1   S    
C7    C31   A    
C46   H29   S    
C34   O11   A    
C64   H1    S    
C51   C63   A    
C24   C25   A    
N4    Zn2   S    
C39   C40   A    
C63   H32   S    
C19   O4    S    
C58   C59   A    
C23   C37   S    
C5    C45   A    
C3    N1    S    
C43   C44   A    
C39   H12   S    
C14   H23   S    
C12   O7    A    
C37   C49   A    
C23   O9    A    
C8    C12   S    
C17   C18   A    
C66   N5    S    
C37   C48   A    
C52   H16   S    
C61   H19   S    
C33   H4    S    
C42   C50   A    
C48   N6    S    
C40   C41   A    
C6    C30   A    
C62   H15   S    
C35   H6    S    
C62   N3    A    
C10   C14   A    
C9    C34   S    
C31   C35   A    
C36   C44   A    
C51   C59   A    
C6    N8    S    
N8    H36   S    
C52   C53   A    
C1    C50   S    
C65   H25   S    
C46   C47   A    
C36   H8    S    
C60   H14   S    
C40   H11   S    
C34   O10   A    
C4    C5    A    
C2    C66   A    
C10   C13   A    
C11   C32   A    
N7    H33   S    
C9    C24   A    
C57   C61   A    
C32   H3    S    
C38   C50   A    
C29   C35   A    
C13   C17   A    
C64   C65   A    
C55   C57   A    
C2    C3    A    
C25   C26   A    
C12   O6    A    
C32   C33   A    
C11   C13   A    
C38   C39   A    
C26   N2    S    
C1    O1    A    
C49   H7    S    
C42   C47   A    
C22   H20   S    
C3    C64   A    
C18   C33   A    
N5    H27   S    
C36   C49   A    
C45   O12   S    
C56   N1    A    
C11   C29   A    
C57   N4    A    
C55   C58   A    
C27   C28   A    
C14   C15   A    
C60   C61   A    
O7    Zn2   S    
N8    H35   S    
C2    H9    S    
N6    H30   S    
C15   H22   S    
O11   Zn2   S    
