data_mof_unit_50090.cif
_audit_creation_date              2013-03-05T15:47:34-0500
_audit_creation_method            fapswitch 2.2
_symmetry_space_group_name_H-M    P1
_symmetry_Int_Tables_number       1
_space_group_crystal_system       triclinic
_cell_length_a                    18.250326
_cell_length_b                    18.131012
_cell_length_c                    18.238006
_cell_angle_alpha                 119.69704
_cell_angle_beta                  90.284352
_cell_angle_gamma                 119.497073
_cell_volume                      4308.43702039

loop_
_atom_site_label
_atom_site_type_symbol
_atom_site_description
_atom_site_fract_x
_atom_site_fract_y
_atom_site_fract_z
_atom_type_partial_charge
Zn1   Zn    Zn3+2 0.457160 0.413230 0.543930 1.142624
Zn2   Zn    Zn3+2 0.456070 0.586770 0.542830 1.079560
Zn3   Zn    Zn3+2 0.456070 0.413260 0.369320 1.111586
Zn4   Zn    Zn3+2 0.630700 0.586740 0.543930 1.065597
O1    O     O_3   0.500000 0.500000 0.500000 -0.557218
O2    O     O_R   0.676930 0.731590 0.616180 -0.644316
O3    O     O_R   0.384570 0.268390 0.445310 -0.564468
O4    O     O_R   0.383800 0.560730 0.615410 -0.625090
O5    O     O_R   0.554710 0.439290 0.323100 -0.627679
O6    O     O_R   0.382720 0.560770 0.443450 -0.640878
O7    O     O_R   0.678010 0.560670 0.617270 -0.583484
O8    O     O_R   0.382720 0.439330 0.322010 -0.568310
O9    O     O_R   0.556550 0.439230 0.617270 -0.602053
O10   O     O_R   0.384570 0.439270 0.616180 -0.609605
O11   O     O_R   0.676930 0.560710 0.445310 -0.610876
O12   O     O_R   0.554710 0.731610 0.615410 -0.571653
O13   O     O_R   0.383800 0.268410 0.323100 -0.591840
C1    C     C_R   0.639246 0.779736 0.632734 0.817694
C2    C     C_R   0.360125 0.220043 0.360624 0.923373
C3    C     C_R   0.362478 0.502444 0.642681 0.857583
C4    C     C_R   0.639635 0.500461 0.360019 0.808665
C5    C     C_R   0.348560 0.489316 0.359234 0.897319
C6    C     C_R   0.640982 0.499218 0.641033 0.980383
C7    C     C_3   0.780421 0.498292 0.682223 0.259228
C8    C     C_3   0.750071 0.415976 0.701919 0.163047
C9    C     C_3   0.803017 0.501587 0.802054 -0.286954
C10   C     C_3   0.832797 0.583891 0.782658 0.170157
C11   C     C_3   0.750328 0.583835 0.797870 0.203519
C12   C     C_3   0.719790 0.502191 0.818739 -0.316594
C13   C     C_3   0.667989 0.416844 0.717686 0.215047
C14   C     C_3   0.697265 0.498679 0.697851 -0.353958
H1    H     H_    0.694921 0.504068 0.874651 0.219657
C15   C     C_R   0.163954 0.108558 0.292179 0.276114
C16   C     C_R   0.074397 0.055248 0.241560 0.289399
C17   C     C_R   0.027169 0.949873 0.173249 -0.154545
H2    H     H_    0.958494 0.907884 0.134138 0.222378
C18   C     C_R   0.065697 0.896048 0.157281 -0.124577
H3    H     H_    0.024496 0.813565 0.106804 0.161907
C19   C     C_R   0.155051 0.947477 0.205678 0.084718
C20   C     C_R   0.207320 0.056232 0.268871 -0.076395
C21   C     C_R   0.300596 0.107907 0.307370 -0.164672
C22   C     C_R   0.338110 0.051359 0.291346 0.283477
H4    H     H_    0.310722 0.900142 0.226391 0.183119
C23   C     C_R   0.282904 0.944029 0.236777 -0.213427
C24   C     C_R   0.192832 0.892261 0.194165 -0.056421
H5    H     H_    0.643919 0.344266 0.241563 0.209057
C25   C     C_R   0.753946 0.684083 0.362510 -0.159776
H6    H     H_    0.708933 0.685239 0.400767 0.124526
C26   C     C_R   0.813516 0.774555 0.368977 -0.135937
H7    H     H_    0.813948 0.842475 0.413054 0.190819
C27   C     C_R   0.873702 0.778400 0.321526 0.378945
C28   C     C_R   0.870095 0.688330 0.263568 -0.215272
H8    H     H_    0.914329 0.691990 0.224378 0.166190
C29   C     C_R   0.810035 0.595442 0.256018 -0.008228
C30   C     C_R   0.753123 0.594680 0.308334 0.123059
C31   C     C_R   0.695071 0.503609 0.303437 -0.106414
C32   C     C_R   0.689760 0.413403 0.244495 -0.226259
C33   C     C_R   0.743928 0.411840 0.191248 0.432907
C34   C     C_R   0.804387 0.502981 0.196787 -0.188486
C35   C     C_R   0.825005 0.892760 0.635858 -0.219319
H9    H     H_    0.783642 0.819496 0.571696 0.190122
C36   C     C_R   0.915536 0.933825 0.664003 0.252771
C37   C     C_R   0.971889 0.031943 0.744147 0.253287
C38   C     C_R   0.936843 0.087923 0.792242 -0.161331
H10   H     H_    0.983134 0.160839 0.854057 0.253553
C39   C     C_R   0.845192 0.047846 0.762306 0.047476
C40   C     C_R   0.787730 0.943488 0.689976 0.011481
C41   C     C_R   0.694442 0.891913 0.674291 -0.185771
C42   C     C_R   0.658086 0.950828 0.708472 0.394003
H11   H     H_    0.687127 0.100639 0.797142 0.209225
C43   C     C_R   0.715386 0.056329 0.770915 -0.263065
C44   C     C_R   0.807623 0.105958 0.800443 -0.113529
C45   C     C_R   0.227325 0.552783 0.432273 -0.122699
H12   H     H_    0.258647 0.543533 0.474239 0.210487
C46   C     C_R   0.184254 0.601734 0.469315 0.334253
C47   C     C_R   0.128472 0.598029 0.413265 -0.181703
H13   H     H_    0.089663 0.629136 0.438761 0.210625
C48   C     C_R   0.118641 0.549930 0.322846 -0.126834
H14   H     H_    0.066517 0.539375 0.282367 0.201626
C49   C     C_R   0.170355 0.511530 0.286574 0.069348
C50   C     C_R   0.224395 0.511109 0.341930 0.006575
C51   C     C_R   0.269676 0.463679 0.303611 -0.220059
C52   C     C_R   0.237532 0.390480 0.209492 0.274790
C53   C     C_R   0.192109 0.399455 0.156142 0.164729
C54   C     C_R   0.167112 0.469284 0.195858 -0.242106
H15   H     H_    0.247191 0.342865 0.646593 0.239199
C55   C     C_R   0.375600 0.689874 0.781055 -0.063498
H16   H     H_    0.438611 0.706100 0.770527 0.167216
C56   C     C_R   0.365727 0.771106 0.823663 -0.104682
H17   H     H_    0.419554 0.847630 0.844067 0.201453
C57   C     C_R   0.283373 0.751207 0.831431 -0.132550
H18   H     H_    0.272354 0.811194 0.852465 0.204212
C58   C     C_R   0.213403 0.652368 0.805274 0.396111
C59   C     C_R   0.230756 0.576116 0.782056 -0.102276
C60   C     C_R   0.305441 0.589863 0.754232 0.047715
C61   C     C_R   0.307079 0.502849 0.699734 -0.132206
C62   C     C_R   0.246405 0.410088 0.689902 -0.205581
C63   C     C_R   0.184980 0.402856 0.735278 0.339129
C64   C     C_R   0.180492 0.489090 0.787097 -0.203831
Zn5   Zn    Zn3+2 0.042810 0.586720 0.956040 1.091691
Zn6   Zn    Zn3+2 0.043900 0.586680 0.130650 1.000960
Zn7   Zn    Zn3+2 0.043900 0.413170 0.957150 1.112666
Zn8   Zn    Zn3+2 0.869280 0.413210 0.956040 1.073071
O14   O     O_3   0.999970 0.499940 0.999970 -0.546159
O15   O     O_R   0.823040 0.439240 0.054670 -0.590164
O16   O     O_R   0.115410 0.560680 0.883790 -0.608626
O17   O     O_R   0.116170 0.731530 0.176870 -0.615943
O18   O     O_R   0.945270 0.268330 0.884560 -0.626175
O19   O     O_R   0.117250 0.560610 0.177960 -0.655479
O20   O     O_R   0.821970 0.439270 0.882700 -0.627538
O21   O     O_R   0.117250 0.439170 0.056520 -0.587190
O22   O     O_R   0.943420 0.560710 0.882700 -0.561391
O23   O     O_R   0.115410 0.731560 0.054670 -0.625242
O24   O     O_R   0.823040 0.268350 0.883790 -0.616189
O25   O     O_R   0.945270 0.560650 0.176870 -0.649118
O26   O     O_R   0.116170 0.439210 0.884560 -0.570342
C65   C     C_R   0.860224 0.500692 0.140017 0.865661
C66   C     C_R   0.134865 0.495467 0.854373 0.881813
C67   C     C_R   0.139433 0.779926 0.139490 0.783693
C68   C     C_R   0.860899 0.219235 0.860808 0.875197
C69   C     C_R   0.133974 0.492190 0.141252 0.858174
C70   C     C_R   0.859015 0.500929 0.859069 0.961619
N1    N     N_R   0.749562 0.323463 0.648050 0.278279
O27   O     O_R   0.704054 0.258621 0.563174 -0.218162
O28   O     O_R   0.797108 0.307151 0.683341 -0.331793
N2    N     N_R   0.939208 0.873769 0.332939 0.219825
O29   O     O_R   0.931892 0.951286 0.371309 -0.299551
O30   O     O_R   0.010414 0.886596 0.311582 -0.385796
S1    S     S_3+6 0.736848 0.295530 0.121052 0.059770
O31   O     O_2   0.828990 0.318845 0.130436 -0.327442
O32   O     O_2   0.685419 0.221032 0.145592 -0.237363
O33   O     O_3   0.684419 0.241103 0.014286 -0.517190
H19   H     H_    0.691254 0.183719 0.978172 0.374647
S2    S     S_3+6 0.543156 0.900141 0.671257 0.087892
O34   O     O_2   0.505528 0.826147 0.571106 -0.217200
O35   O     O_2   0.492410 0.844057 0.711718 -0.309120
O36   O     O_3   0.529419 0.995298 0.700853 -0.467827
H20   H     H_    0.522985 0.018158 0.760816 0.372442
S3    S     S_3+6 0.817469 0.491112 0.589781 0.145708
O37   O     O_2   0.741837 0.399355 0.504029 -0.246608
O38   O     O_2   0.848044 0.587794 0.595189 -0.200232
O39   O     O_3   0.902203 0.478020 0.592479 -0.439816
H21   H     H_    0.922697 0.480585 0.543091 0.397547
N3    N     N_R   0.947429 0.871274 0.615275 0.252671
O40   O     O_R   0.910476 0.803843 0.529199 -0.360735
O41   O     O_R   0.003056 0.869302 0.657971 -0.233048
N4    N     N_R   0.065626 0.077785 0.775141 0.263234
O42   O     O_R   0.110875 0.074393 0.720005 -0.244495
O43   O     O_R   0.107359 0.128849 0.859560 -0.224359
S4    S     S_3+6 0.245751 0.282141 0.156315 0.140945
O44   O     O_2   0.331030 0.312703 0.134679 -0.187750
O45   O     O_2   0.245385 0.247690 0.216134 -0.270134
O46   O     O_3   0.160215 0.180156 0.060835 -0.413811
H22   H     H_    0.107401 0.155866 0.079939 0.373843
N5    N     N_R   0.195316 0.652778 0.563136 0.233577
O47   O     O_R   0.238219 0.645719 0.613847 -0.362503
O48   O     O_R   0.168992 0.713737 0.599926 -0.274266
N6    N     N_R   0.922003 0.678613 0.822430 0.282305
O49   O     O_R   0.964055 0.702756 0.772314 -0.199882
O50   O     O_R   0.957399 0.743192 0.908914 -0.326818
N7    N     N_R   0.168898 0.334693 0.061093 0.275332
O51   O     O_R   0.085888 0.260156 0.012268 -0.346113
O52   O     O_R   0.230716 0.346785 0.023885 -0.264301
S5    S     S_3+6 0.104881 0.621022 0.772702 0.128548
O53   O     O_2   0.089081 0.683551 0.854762 -0.191717
O54   O     O_2   0.099649 0.650617 0.710183 -0.170284
O55   O     O_3   0.025466 0.494323 0.721517 -0.489528
H23   H     H_    0.036716 0.459297 0.665331 0.374856
S6    S     S_3+6 0.111205 0.282083 0.719436 0.091969
O56   O     O_2   0.019017 0.258474 0.710714 -0.248830
O57   O     O_2   0.107142 0.196552 0.636458 -0.204995
O58   O     O_3   0.147586 0.287761 0.808143 -0.468052
H24   H     H_    0.208978 0.306217 0.811472 0.380244
N8    N     N_R   0.751954 0.676972 0.852193 0.257683
O59   O     O_R   0.796290 0.740180 0.937340 -0.321080
O60   O     O_R   0.707108 0.695884 0.816936 -0.379911
N9    N     N_R   0.577167 0.326422 0.683708 0.264873
O61   O     O_R   0.559047 0.233878 0.634083 -0.245849
O62   O     O_R   0.514854 0.338341 0.708196 -0.308155
N10   N     N_R   0.432156 0.101219 0.328832 0.209797
O63   O     O_R   0.471476 0.059337 0.283595 -0.313954
O64   O     O_R   0.476243 0.180279 0.411715 -0.321386
N11   N     N_R   0.202583 0.205945 0.376824 0.201001
O65   O     O_R   0.237802 0.291329 0.382083 -0.389792
O66   O     O_R   0.201037 0.208673 0.449394 -0.326392
N12   N     N_R   0.029205 0.105869 0.261514 0.241788
O67   O     O_R   0.071216 0.201098 0.286376 -0.308991
O68   O     O_R   0.943315 0.053317 0.244755 -0.293153

loop_
_geom_bond_atom_site_label_1
_geom_bond_atom_site_label_2
_geom_bond_distance
_ccdc_geom_bond_type
Zn6   O17   1.931797 S    
C55   H16   1.082054 S    
N2    O29   1.301574 A    
O21   C69   1.280552 A    
C45   C46   1.400072 A    
C21   C22   1.414811 A    
O18   C68   1.269855 A    
N4    O42   1.301498 A    
C7    C10   1.543568 S    
C30   C31   1.409656 A    
O5    C4    1.281637 A    
S2    O36   1.683872 S    
C62   C63   1.389491 A    
N1    O27   1.300261 A    
C25   C26   1.391917 A    
C23   C24   1.390094 A    
C10   N6    1.458315 S    
C9    C10   1.540670 S    
O4    C3    1.278012 A    
Zn8   O20   1.942764 S    
Zn1   O1    1.942187 S    
C5    C51   1.475476 S    
S5    O53   1.501111 D    
C17   C18   1.388443 A    
C18   H3    1.082153 S    
C47   C48   1.389299 A    
C12   H1    1.110140 S    
N11   O66   1.300707 A    
C13   C14   1.539788 S    
S3    O39   1.680026 S    
C48   C49   1.417757 A    
N1    O28   1.300204 A    
N5    O48   1.301500 A    
C33   S1    1.777026 S    
Zn6   O19   1.943110 S    
O8    C5    1.273551 A    
Zn5   O14   1.942336 S    
C31   C32   1.393095 A    
O9    C6    1.273225 A    
C35   C36   1.396139 A    
C16   C17   1.398044 A    
S6    O56   1.503283 D    
O17   C67   1.282064 A    
C16   N12   1.439622 S    
H15   C62   1.083094 S    
N8    O59   1.300251 A    
Zn3   O8    1.943107 S    
O23   C67   1.274685 A    
C63   S6    1.776837 S    
C39   C44   1.433200 A    
O46   H22   0.990830 S    
C60   C61   1.403853 A    
C35   C40   1.416411 A    
C22   N10   1.441724 S    
C41   C42   1.418498 A    
N9    O62   1.300342 A    
S4    O46   1.681801 S    
C55   C60   1.412550 A    
C15   N11   1.435434 S    
C54   C69   1.476903 S    
H11   C43   1.081641 S    
C56   C57   1.388514 A    
C12   C13   1.549608 S    
Zn2   O12   1.940598 S    
C19   C24   1.412332 A    
C52   S4    1.795983 S    
C24   C67   1.454572 S    
C39   C40   1.406838 A    
C3    C61   1.454372 S    
N12   O67   1.300703 A    
C34   C65   1.456612 S    
O16   C66   1.264396 A    
N6    O50   1.300496 A    
S6    O57   1.503639 D    
O15   C65   1.285046 A    
Zn7   O21   1.951075 S    
C22   C23   1.390265 A    
C37   N4    1.435839 S    
N7    O52   1.301085 A    
C28   C29   1.416923 A    
N7    O51   1.300959 A    
C29   C34   1.422088 A    
C11   C14   1.539039 S    
C7    S3    1.788041 S    
O2    C1    1.287758 A    
N5    O47   1.301383 A    
C15   C20   1.431903 A    
C42   C43   1.381800 A    
C40   C41   1.420298 A    
O19   C69   1.277599 A    
O10   C3    1.271348 A    
Zn8   O24   1.929746 S    
C53   C54   1.413898 A    
Zn4   O2    1.929646 S    
C57   H18   1.083166 S    
C48   H14   1.077204 S    
O33   H19   0.990714 S    
S2    O35   1.503045 D    
C58   S5    1.773103 S    
C26   C27   1.397894 A    
C8    C9    1.541118 S    
H5    C32   1.083756 S    
O6    C5    1.284405 A    
C50   C51   1.421598 A    
C27   C28   1.404150 A    
C35   H9    1.080411 S    
C17   H2    1.082920 S    
C38   C39   1.422963 A    
Zn7   O14   1.938730 S    
C46   C47   1.392898 A    
N11   O65   1.300530 A    
O22   C70   1.272725 A    
C49   C54   1.423475 A    
Zn3   O5    1.935632 S    
C57   C58   1.401097 A    
C25   H6    1.081806 S    
O11   C4    1.284484 A    
C61   C62   1.397214 A    
C44   C68   1.469049 S    
C36   C37   1.402111 A    
C15   C16   1.415310 A    
Zn8   O15   1.933066 S    
C58   C59   1.429475 A    
C28   H8    1.080255 S    
C7    C8    1.543503 S    
Zn4   O7    1.942914 S    
Zn7   O18   1.940552 S    
C8    N1    1.459640 S    
C45   C50   1.419312 A    
N3    O41   1.301469 A    
C20   C21   1.426323 A    
C51   C52   1.420595 A    
Zn6   O14   1.954979 S    
O3    C2    1.272601 A    
C55   C56   1.390781 A    
H4    C23   1.084528 S    
N6    O49   1.299464 A    
Zn6   O25   1.935483 S    
C26   H7    1.082730 S    
S4    O45   1.500547 D    
C52   C53   1.393593 A    
Zn2   O1    1.938730 S    
Zn1   O9    1.952096 S    
N12   O68   1.301661 A    
O58   H24   0.990459 S    
Zn2   O6    1.951224 S    
C45   H12   1.076079 S    
O55   H23   0.990549 S    
N10   O63   1.301531 A    
C25   C30   1.411742 A    
S1    O31   1.503757 D    
C8    C13   1.532984 S    
O25   C65   1.283241 A    
C29   C30   1.413552 A    
C11   C12   1.547479 S    
N2    O30   1.300670 A    
N10   O64   1.300901 A    
N4    O43   1.299747 A    
Zn1   O3    1.938252 S    
C27   N2    1.437955 S    
S5    O55   1.682924 S    
Zn2   O4    1.933416 S    
Zn5   O23   1.938302 S    
C36   N3    1.439202 S    
C49   C50   1.413218 A    
Zn3   O1    1.954982 S    
C4    C31   1.450389 S    
S3    O37   1.502702 D    
Zn5   O22   1.951993 S    
S2    O34   1.503354 D    
Zn1   O10   1.931619 S    
O36   H20   0.990775 S    
Zn5   O16   1.931767 S    
S4    O44   1.502842 D    
N3    O40   1.299930 A    
C38   H10   1.070714 S    
S1    O33   1.681866 S    
Zn4   O11   1.932815 S    
S5    O54   1.500907 D    
C33   C34   1.412905 A    
C7    C14   1.548314 S    
C43   C44   1.397353 A    
C18   C19   1.407358 A    
O20   C70   1.276169 A    
C64   C66   1.475336 S    
C47   H13   1.082947 S    
S3    O38   1.502940 D    
C11   N8    1.458325 S    
C32   C33   1.389609 A    
C59   C64   1.434865 A    
O7    C6    1.275071 A    
O13   C2    1.283937 A    
C13   N9    1.458206 S    
O26   C66   1.294401 A    
Zn3   O13   1.931796 S    
C59   C60   1.405393 A    
N8    O60   1.300199 A    
Zn7   O26   1.933564 S    
N9    O61   1.299933 A    
C37   C38   1.404061 A    
C19   C20   1.418263 A    
C46   N5    1.438290 S    
Zn4   O1    1.960452 S    
C9    C12   1.554829 S    
O12   C1    1.279749 A    
C63   C64   1.416778 A    
Zn8   O14   1.960302 S    
C42   S2    1.781673 S    
O39   H21   0.990498 S    
S6    O58   1.681021 S    
C9    C70   1.462729 S    
S1    O32   1.503474 D    
C56   H17   1.082191 S    
C1    C41   1.474212 S    
O24   C68   1.298097 A    
C53   N7    1.431548 S    
C2    C21   1.454336 S    
C6    C14   1.462304 S    
C10   C11   1.531395 S    
