data_mof_unit_13567.cif
_audit_creation_date              2012-10-26T21:32:58-0400
_audit_creation_method            fapswitch 2.2
_symmetry_space_group_name_H-M    P1
_symmetry_Int_Tables_number       1
_space_group_crystal_system       triclinic
_cell_length_a                    28.171218
_cell_length_b                    18.453804
_cell_length_c                    17.035803
_cell_angle_alpha                 90.083773
_cell_angle_beta                  59.962383
_cell_angle_gamma                 89.772609
_cell_volume                      7666.78274317

loop_
_atom_site_label
_atom_site_type_symbol
_atom_type_description
_atom_site_fract_x
_atom_site_fract_y
_atom_site_fract_z
_atom_type_partial_charge
C1    C     C_R   0.705633 0.278127 0.673233 0.970785
C2    C     C_R   0.976565 0.626241 0.427271 0.499712
C3    C     C_R   0.067033 0.893092 0.940138 0.885395
C4    C     C_R   0.579038 0.592781 0.928242 0.964691
C5    C     C_R   0.431388 0.394491 0.061261 0.916688
C6    C     C_R   0.421018 0.593073 0.071596 0.968116
C7    C     C_R   0.567869 0.393836 0.939495 0.926248
C8    C     C_R   0.547770 0.991362 0.508738 -0.126225
C9    C     C_R   0.453567 0.992356 0.494163 -0.118356
C10   C     C_R   0.057355 0.493577 0.478826 -0.117222
C11   C     C_R   0.970460 0.495218 0.441893 -0.123253
C12   C     C_R   0.529672 0.055323 0.487472 -0.060600
C13   C     C_R   0.973008 0.364800 0.430582 0.513548
C14   C     C_R   0.478548 0.925668 0.493570 -0.019743
C15   C     C_R   0.475370 0.057028 0.505420 -0.047239
C16   C     C_R   0.518823 0.926063 0.520757 -0.020775
C17   C     C_R   0.047590 0.555386 0.440403 -0.035783
C18   C     C_R   0.990132 0.428227 0.455577 -0.041103
C19   C     C_R   0.998961 0.559642 0.435075 -0.026005
C20   C     C_R   0.027984 0.428952 0.488380 -0.023042
C21   C     C_R   0.608029 0.932898 0.552306 0.047069
C22   C     C_R   0.378372 0.060459 0.496140 0.030596
C23   C     C_R   0.390997 0.932015 0.456286 0.030592
C24   C     C_R   0.089349 0.607773 0.402131 0.529373
C25   C     C_R   0.625047 0.057587 0.500099 0.023974
C26   C     C_R   0.110466 0.434404 0.538987 0.036775
C27   C     C_R   0.898059 0.564125 0.432914 0.030575
C28   C     C_R   0.896888 0.432141 0.433531 0.028919
C29   C     C_R   0.131492 0.558021 0.485134 0.020580
C30   C     C_R   0.657811 0.934513 0.554046 -0.088729
C31   C     C_R   0.334453 0.062305 0.476413 -0.098806
C32   C     C_R   0.341752 0.934418 0.451944 -0.083293
C33   C     C_R   0.667247 0.061149 0.522976 -0.103393
C34   C     C_R   0.157689 0.435141 0.549490 -0.090404
C35   C     C_R   0.528451 0.867025 0.564085 0.560185
C36   C     C_R   0.844238 0.564418 0.442930 -0.101847
C37   C     C_R   0.843694 0.434309 0.442613 -0.080206
C38   C     C_R   0.168800 0.561446 0.518514 -0.093403
C39   C     C_R   0.682924 0.999400 0.549580 -0.286997
C40   C     C_R   0.317512 0.999607 0.454058 -0.295110
C41   C     C_R   0.181304 0.499916 0.550310 -0.286938
C42   C     C_R   0.819551 0.499737 0.443938 -0.284869
C43   C     C_R   0.593428 0.993996 0.520841 0.071977
C44   C     C_R   0.407710 0.994995 0.481815 0.064548
C45   C     C_R   0.098958 0.495713 0.502663 0.068388
C46   C     C_R   0.441879 0.119352 0.535761 0.495643
C47   C     C_R   0.921916 0.497299 0.435652 0.061836
C48   C     C_R   0.076170 0.373837 0.559650 -0.272930
C49   C     C_R   0.928827 0.627402 0.421297 -0.340058
C50   C     C_R   0.927127 0.367534 0.419277 -0.298605
C51   C     C_R   0.129195 0.611023 0.427794 -0.328797
C52   C     C_R   0.573156 0.872104 0.580148 -0.337017
C53   C     C_R   0.393700 0.120051 0.531560 -0.307797
C54   C     C_R   0.423651 0.868833 0.437431 -0.281504
C55   C     C_R   0.613845 0.113878 0.455686 -0.304363
C56   C     C_3   0.958776 0.311505 0.637483 0.050521
C57   C     C_R   0.465192 0.864085 0.459368 0.527430
C58   C     C_3   0.927523 0.240818 0.654314 -0.674846
C59   C     C_3   0.969899 0.714348 0.525462 0.095627
C60   C     C_3   0.004590 0.768811 0.541391 -0.838337
C61   C     C_3   0.031164 0.286202 0.317613 0.147489
C62   C     C_3   0.016072 0.211045 0.300569 -0.816912
C63   C     C_3   0.126657 0.606394 0.248954 0.110285
C64   C     C_3   0.105757 0.623105 0.184387 -0.766412
C65   C     C_3   0.496977 0.755901 0.646515 0.137862
C66   C     C_3   0.539206 0.698904 0.586739 -0.850842
C67   C     C_3   0.463476 0.170634 0.638968 0.097156
C68   C     C_R   0.566147 0.114168 0.450230 0.492955
C69   C     C_3   0.501799 0.228318 0.640011 -0.753047
C70   C     C_3   0.540640 0.801056 0.357555 0.050948
C71   C     C_3   0.571664 0.729889 0.341652 -0.720070
C72   C     C_3   0.548246 0.159003 0.340542 0.112551
C73   C     C_3   0.509316 0.214381 0.335771 -0.761100
C74   C     C_3   0.663331 0.411370 0.076887 0.101465
C75   C     C_3   0.614749 0.459981 0.138048 -0.751844
C76   C     C_3   0.386503 0.772980 0.891724 0.114445
C77   C     C_3   0.440359 0.750293 0.885353 -0.819008
C78   C     C_3   0.342723 0.406533 0.904968 0.103797
C79   C     C_R   0.717882 0.276049 0.962219 -0.238517
C80   C     C_3   0.396265 0.443055 0.838206 -0.752763
C81   C     C_3   0.610193 0.764844 0.102919 0.090825
C82   C     C_3   0.552022 0.737413 0.139386 -0.805396
C83   C     C_3   0.139510 0.893011 0.097216 0.150244
C84   C     C_3   0.081995 0.920392 0.164166 -0.763663
C85   C     C_3   0.887961 0.266092 0.898196 0.090360
C86   C     C_3   0.946614 0.238489 0.857225 -0.797123
C87   C     C_3   0.812756 0.918179 0.925726 0.029105
C88   C     C_3   0.856448 0.976183 0.881128 -0.699427
C89   C     C_3   0.117002 0.345573 0.090194 0.099180
C90   C     C_R   0.275657 0.742917 0.057518 -0.193040
C91   C     C_3   0.068113 0.338772 0.075497 -0.779644
C92   C     C_3   0.760547 0.134843 0.852736 0.154505
C93   C     C_3   0.788365 0.091809 0.764648 -0.796276
C94   C     C_3   0.172190 0.821862 0.251625 0.191313
C95   C     C_3   0.110781 0.816607 0.316486 -0.699483
C96   C     C_3   0.226346 0.166070 0.173015 0.119744
C97   C     C_3   0.197202 0.129027 0.265175 -0.780427
C98   C     C_3   0.831520 0.753346 0.738331 0.141591
C99   C     C_3   0.864070 0.823613 0.716999 -0.820288
C100  C     C_3   0.277269 0.625192 0.851697 0.127969
C101  C     C_R   0.276257 0.289209 0.045487 -0.257178
C102  C     C_3   0.288384 0.590615 0.762989 -0.772073
C103  C     C_3   0.671067 0.273423 0.266774 0.139485
C104  C     C_3   0.641615 0.345711 0.280886 -0.778861
C105  C     C_3   0.721500 0.624337 0.149409 0.128370
C106  C     C_3   0.708124 0.588721 0.238532 -0.792870
C107  C     C_3   0.321954 0.241576 0.748308 0.136481
C108  C     C_3   0.360107 0.306798 0.717845 -0.783098
C109  C     C_3   0.576578 0.209510 0.027299 0.110663
C110  C     C_3   0.540205 0.175439 0.118995 -0.833446
C111  C     C_3   0.291373 0.555439 0.090966 0.114356
C112  C     C_R   0.301827 0.739032 0.323277 0.912588
C113  C     C_R   0.724191 0.738231 0.942775 -0.198307
C114  C     C_3   0.249711 0.542068 0.060722 -0.929881
C115  C     C_3   0.403508 0.203971 0.977558 0.133245
C116  C     C_3   0.441528 0.168881 0.886527 -0.814734
C117  C     C_3   0.714838 0.554481 0.895788 0.094370
C118  C     C_3   0.759128 0.544763 0.921226 -0.850020
C119  C     C_3   0.036349 0.753059 0.062922 0.105338
C120  C     C_3   0.007367 0.703256 0.144244 -0.840393
C121  C     C_3   0.795110 0.047059 0.105934 0.083834
C122  C     C_3   0.737766 0.046736 0.117952 -0.870833
C123  C     C_3   0.919322 0.726270 0.937954 0.115824
C124  C     C_R   0.213559 0.770809 0.966969 -0.198399
C125  C     C_3   0.955259 0.713865 0.836416 -0.772938
C126  C     C_3   0.152347 0.102242 0.044479 0.149701
C127  C     C_3   0.127654 0.089711 0.145531 -0.844983
C128  C     C_R   0.773753 0.240589 0.060708 -0.211270
C129  C     C_R   0.779472 0.775984 0.040590 -0.218023
C130  C     C_R   0.215072 0.260264 0.954158 -0.244199
C131  C     C_R   0.767688 0.235933 0.922076 0.343339
C132  C     C_R   0.221154 0.768952 0.107049 0.330751
C133  C     C_R   0.221728 0.262380 0.091625 0.348914
C134  C     C_R   0.778908 0.763626 0.896596 0.368954
C135  C     C_R   0.264811 0.733687 0.923702 0.339168
C136  C     C_R   0.293430 0.279953 0.327998 0.971848
C137  C     C_R   0.718552 0.266560 0.107120 0.380784
C138  C     C_R   0.731216 0.733276 0.080425 0.335606
C139  C     C_R   0.273169 0.267711 0.904618 0.375942
C140  C     C_R   0.798987 0.230722 0.965523 0.370895
C141  C     C_R   0.192951 0.790611 0.060489 0.324723
C142  C     C_R   0.189530 0.268487 0.049657 0.396015
C143  C     C_R   0.798459 0.797979 0.949199 0.409273
C144  C     C_R   0.298416 0.731577 0.963387 0.356769
C145  C     C_R   0.696336 0.296305 0.055334 0.404901
C146  C     C_R   0.699191 0.728160 0.037828 0.345807
C147  C     C_R   0.698242 0.738730 0.676803 0.918712
C148  C     C_R   0.299121 0.298893 0.949671 0.397751
C149  C     C_R   0.630475 0.304676 0.953608 0.478475
C150  C     C_R   0.339754 0.657209 0.079333 0.494453
C151  C     C_R   0.366311 0.309833 0.049567 0.474823
C152  C     C_R   0.661630 0.653977 0.917748 0.525795
C153  C     C_R   0.124540 0.794558 0.957511 0.477405
C154  C     C_R   0.837690 0.155697 0.084330 0.540336
C155  C     C_R   0.867619 0.809046 0.045772 0.464414
C156  C     C_R   0.144200 0.177594 0.945329 0.440098
C157  C     C_R   0.607405 0.335197 0.904176 -0.223174
C158  C     C_R   0.204592 0.776637 0.674409 0.956892
C159  C     C_R   0.376944 0.645527 0.111490 -0.249636
C160  C     C_R   0.391463 0.336789 0.097044 -0.200056
C161  C     C_R   0.623279 0.644528 0.887802 -0.239979
C162  C     C_R   0.103442 0.829986 0.906869 -0.267471
C163  C     C_R   0.877374 0.146911 0.111973 -0.251789
C164  C     C_R   0.891264 0.836779 0.095701 -0.213048
C165  C     C_R   0.119150 0.150995 0.896139 -0.210988
C166  C     C_R   0.630049 0.319111 0.814411 -0.370557
C167  C     C_R   0.370462 0.682770 0.185986 -0.354334
C168  C     C_R   0.369329 0.320213 0.186569 -0.364530
C169  C     C_R   0.802176 0.239901 0.323268 0.909390
C170  C     C_R   0.629347 0.682697 0.814114 -0.347482
C171  C     C_R   0.126937 0.814776 0.816453 -0.327927
C172  C     C_R   0.872314 0.186072 0.184523 -0.341819
C173  C     C_R   0.869672 0.818465 0.184631 -0.387258
C174  C     C_R   0.136190 0.173801 0.810089 -0.360347
C175  C     C_R   0.683567 0.296612 0.768069 -0.149451
C176  C     C_R   0.329726 0.733612 0.224980 -0.103038
C177  C     C_R   0.314961 0.301640 0.234370 -0.154738
C178  C     C_R   0.670389 0.732858 0.775146 -0.091615
C179  C     C_R   0.180719 0.792799 0.770789 -0.153791
C180  C     C_R   0.794768 0.777053 0.326344 0.958259
C181  C     C_R   0.830943 0.236198 0.224420 -0.086213
C182  C     C_R   0.816431 0.795372 0.231508 -0.142934
C183  C     C_R   0.172859 0.229109 0.774227 -0.094886
C184  C     C_R   0.715393 0.297306 0.812188 0.169154
C185  C     C_R   0.307203 0.763513 0.174136 0.100567
C186  C     C_R   0.282145 0.309948 0.192829 0.156281
C187  C     C_R   0.693361 0.761235 0.825919 0.029843
C188  C     C_R   0.211282 0.793166 0.816997 0.176696
C189  C     C_R   0.807527 0.264422 0.174048 0.030071
C190  C     C_R   0.783912 0.795976 0.188634 0.192673
C191  C     C_R   0.198960 0.237341 0.676741 0.916873
C192  C     C_R   0.190073 0.266931 0.828456 0.037286
C193  C     C_R   0.688091 0.292724 0.909110 -0.035777
C194  C     C_R   0.307662 0.721568 0.104078 0.061136
C195  C     C_R   0.308020 0.304057 0.095850 -0.060222
C196  C     C_R   0.693870 0.717538 0.893693 0.024774
C197  C     C_R   0.182848 0.785615 0.914174 0.013828
C198  C     C_R   0.805026 0.219553 0.108770 0.034730
C199  C     C_R   0.810314 0.793582 0.091705 -0.014613
C200  C     C_R   0.182793 0.234962 0.909185 0.073444
C201  C     C_R   0.695738 0.127486 0.519921 0.913575
C202  C     C_R   0.036021 0.370012 0.534380 0.508910
C203  C     C_R   0.308828 0.870371 0.465168 0.893660
C204  C     C_R   0.304881 0.127799 0.479125 0.910139
C205  C     C_R   0.690827 0.869944 0.537193 0.900715
C206  C     C_R   0.196210 0.627581 0.518796 0.908496
C207  C     C_R   0.808799 0.370517 0.464962 0.895475
C208  C     C_R   0.809021 0.629146 0.465150 0.900678
C209  C     C_R   0.190852 0.370439 0.535687 0.898557
C210  C     C_R   0.076053 0.097437 0.932056 0.967535
C211  C     C_R   0.931152 0.894687 0.061268 0.901353
C212  C     C_R   0.921295 0.093822 0.071506 0.955860
H1    H     H_    0.717932 0.000548 0.559855 0.199407
H2    H     H_    0.369272 0.168136 0.558209 0.190401
H3    H     H_    0.080968 0.312746 0.009032 0.262052
H4    H     H_    0.716825 0.143400 0.872526 0.128315
H5    H     H_    0.762530 0.102171 0.905956 0.131974
H6    H     H_    0.832088 0.082029 0.743564 0.251974
H7    H     H_    0.767657 0.038832 0.774336 0.225839
H8    H     H_    0.786042 0.122241 0.710457 0.272491
H9    H     H_    0.181978 0.872008 0.210837 0.127845
H10   H     H_    0.191191 0.827479 0.294676 0.175106
H11   H     H_    0.088833 0.798595 0.281159 0.316982
H12   H     H_    0.103233 0.777231 0.370368 0.271756
H13   H     H_    0.418446 0.822401 0.403803 0.183648
H14   H     H_    0.094396 0.870157 0.348738 0.158596
H15   H     H_    0.269163 0.175780 0.156357 0.137739
H16   H     H_    0.227985 0.128306 0.120889 0.121423
H17   H     H_    0.155069 0.112965 0.283438 0.235150
H18   H     H_    0.220432 0.079813 0.263790 0.209809
H19   H     H_    0.194176 0.166402 0.318408 0.291191
H20   H     H_    0.795780 0.759805 0.729561 0.188766
H21   H     H_    0.857771 0.712751 0.686465 0.139768
H22   H     H_    0.882811 0.836165 0.643795 0.197111
H23   H     H_    0.896920 0.818610 0.734470 0.284975
H24   H     H_    0.641603 0.158124 0.424060 0.180171
H25   H     H_    0.836664 0.869417 0.754672 0.270229
H26   H     H_    0.234822 0.610522 0.905062 0.128015
H27   H     H_    0.307447 0.602752 0.869271 0.196160
H28   H     H_    0.330387 0.604308 0.708099 0.259604
H29   H     H_    0.284952 0.530812 0.770540 0.217089
H30   H     H_    0.258139 0.610644 0.744272 0.268539
H31   H     H_    0.707893 0.279408 0.271624 0.184456
H32   H     H_    0.644027 0.239730 0.325521 0.186022
H33   H     H_    0.669867 0.386071 0.232159 0.251055
H34   H     H_    0.604708 0.339102 0.274215 0.289382
H35   H     H_    0.607806 0.330969 0.779157 0.215753
H36   H     H_    0.628326 0.366303 0.350181 0.201357
H37   H     H_    0.764904 0.611091 0.098312 0.126668
H38   H     H_    0.693682 0.601241 0.127232 0.192855
H39   H     H_    0.665026 0.600931 0.290938 0.250786
H40   H     H_    0.713325 0.529081 0.229153 0.220070
H41   H     H_    0.735991 0.609323 0.261896 0.272190
H42   H     H_    0.288087 0.250803 0.736039 0.184246
H43   H     H_    0.344464 0.195843 0.702860 0.152635
H44   H     H_    0.378976 0.313533 0.643381 0.218597
H45   H     H_    0.393189 0.298739 0.733961 0.292064
H46   H     H_    0.393321 0.667166 0.219057 0.211837
H47   H     H_    0.336837 0.356878 0.750898 0.253556
H48   H     H_    0.611333 0.171492 0.986701 0.126705
H49   H     H_    0.551678 0.216207 0.993497 0.128981
H50   H     H_    0.505121 0.212177 0.160860 0.256828
H51   H     H_    0.524168 0.122960 0.110372 0.206167
H52   H     H_    0.564424 0.165430 0.152989 0.263933
H53   H     H_    0.268071 0.574541 0.163052 0.119627
H54   H     H_    0.311369 0.503480 0.090865 0.155735
H55   H     H_    0.269962 0.519706 0.991248 0.238392
H56   H     H_    0.218205 0.503172 0.107212 0.227888
H57   H     H_    0.392872 0.328461 0.220351 0.213783
H58   H     H_    0.229657 0.593910 0.060813 0.247594
H59   H     H_    0.362616 0.177773 0.006097 0.131159
H60   H     H_    0.420554 0.193518 0.023139 0.122176
H61   H     H_    0.482937 0.193344 0.856297 0.244156
H62   H     H_    0.444905 0.109846 0.895431 0.205078
H63   H     H_    0.424698 0.176943 0.840650 0.269497
H64   H     H_    0.735264 0.575775 0.824830 0.135338
H65   H     H_    0.697923 0.500863 0.893588 0.151290
H66   H     H_    0.741114 0.525168 0.991675 0.228477
H67   H     H_    0.790179 0.504869 0.874814 0.232052
H68   H     H_    0.605986 0.668265 0.781589 0.205951
H69   H     H_    0.779690 0.597154 0.915759 0.272691
H70   H     H_    0.035406 0.726579 0.004864 0.126254
H71   H     H_    0.012928 0.804689 0.080850 0.143590
H72   H     H_    0.010517 0.724997 0.202312 0.276601
H73   H     H_    0.963346 0.699045 0.164660 0.208894
H74   H     H_    0.025988 0.648348 0.125979 0.251886
H75   H     H_    0.791022 0.053762 0.174346 0.122490
H76   H     H_    0.814748 0.993332 0.081484 0.170547
H77   H     H_    0.740017 0.042498 0.051208 0.243757
H78   H     H_    0.714298 0.000042 0.160580 0.234042
H79   H     H_    0.105753 0.828570 0.780004 0.209890
H80   H     H_    0.715833 0.097486 0.151907 0.280731
H81   H     H_    0.884054 0.688190 0.963829 0.137879
H82   H     H_    0.944131 0.714125 0.970816 0.109734
H83   H     H_    0.990892 0.751092 0.808318 0.245286
H84   H     H_    0.970513 0.657064 0.823146 0.198607
H85   H     H_    0.931214 0.723820 0.802005 0.277383
H86   H     H_    0.196336 0.116629 0.014753 0.116070
H87   H     H_    0.149399 0.051520 0.011866 0.134007
H88   H     H_    0.083599 0.076348 0.177000 0.245726
H89   H     H_    0.149991 0.046055 0.158440 0.196729
H90   H     H_    0.896203 0.171827 0.216242 0.206139
H91   H     H_    0.129297 0.140526 0.178399 0.311020
H92   H     H_    0.892354 0.829365 0.219342 0.213502
H93   H     H_    0.282339 0.000654 0.444194 0.197517
H94   H     H_    0.120908 0.147516 0.770153 0.211565
H95   H     H_    0.932177 0.356852 0.638754 0.162188
H96   H     H_    0.968762 0.319583 0.692355 0.124020
H97   H     H_    0.953941 0.194367 0.649908 0.234841
H98   H     H_    0.890581 0.241310 0.722607 0.267473
H99   H     H_    0.914699 0.233565 0.602851 0.269477
H100  H     H_    0.961062 0.668683 0.573799 0.130411
H101  H     H_    0.930782 0.740736 0.540320 0.141650
H102  H     H_    0.011250 0.817812 0.499480 0.251583
H103  H     H_    0.983581 0.785034 0.613793 0.212693
H104  H     H_    0.213439 0.500992 0.567741 0.198053
H105  H     H_    0.044643 0.744011 0.524138 0.257767
H106  H     H_    0.075845 0.287125 0.293232 0.230310
H107  H     H_    0.023332 0.326067 0.276222 0.103954
H108  H     H_    0.971149 0.207502 0.328152 0.232277
H109  H     H_    0.037123 0.200084 0.226605 0.268609
H110  H     H_    0.028715 0.169428 0.333617 0.257289
H111  H     H_    0.123541 0.546442 0.259834 0.115595
H112  H     H_    0.170507 0.621227 0.217054 0.195288
H113  H     H_    0.108471 0.682039 0.170456 0.326336
H114  H     H_    0.130305 0.593264 0.119566 0.194757
H115  H     H_    0.778799 0.500225 0.452248 0.199094
H116  H     H_    0.062360 0.605802 0.215804 0.238360
H117  H     H_    0.457065 0.727675 0.684858 0.196587
H118  H     H_    0.505021 0.778210 0.699105 0.100983
H119  H     H_    0.579990 0.723399 0.542800 0.254954
H120  H     H_    0.543196 0.657366 0.630205 0.203798
H121  H     H_    0.525500 0.671926 0.543242 0.268579
H122  H     H_    0.480489 0.116751 0.640841 0.129616
H123  H     H_    0.423387 0.175124 0.702039 0.158029
H124  H     H_    0.486589 0.283355 0.637714 0.248008
H125  H     H_    0.504866 0.223396 0.702111 0.204526
H126  H     H_    0.079470 0.328587 0.596976 0.181309
H127  H     H_    0.543476 0.221831 0.580502 0.269235
H128  H     H_    0.568204 0.846118 0.352518 0.161710
H129  H     H_    0.529330 0.807617 0.304102 0.126823
H130  H     H_    0.544503 0.683516 0.350186 0.236377
H131  H     H_    0.607479 0.728259 0.272154 0.276683
H132  H     H_    0.586709 0.724676 0.390358 0.260070
H133  H     H_    0.531988 0.103918 0.341927 0.113467
H134  H     H_    0.588798 0.161892 0.277666 0.182866
H135  H     H_    0.532840 0.259463 0.289797 0.250183
H136  H     H_    0.484104 0.188060 0.310659 0.203565
H137  H     H_    0.917306 0.679406 0.407308 0.201859
H138  H     H_    0.480719 0.237414 0.403694 0.292804
H139  H     H_    0.673380 0.419921 0.005899 0.157652
H140  H     H_    0.698905 0.427953 0.084256 0.110962
H141  H     H_    0.609012 0.462355 0.207300 0.211777
H142  H     H_    0.622113 0.515827 0.110518 0.256739
H143  H     H_    0.576594 0.439073 0.142657 0.279794
H144  H     H_    0.368145 0.816674 0.944191 0.140975
H145  H     H_    0.395079 0.796419 0.825897 0.167530
H146  H     H_    0.458889 0.703833 0.837897 0.255143
H147  H     H_    0.469348 0.796474 0.861105 0.200313
H148  H     H_    0.917347 0.318600 0.395816 0.188501
H149  H     H_    0.433281 0.734174 0.953011 0.256607
H150  H     H_    0.331988 0.423598 0.974368 0.161718
H151  H     H_    0.310433 0.425154 0.889888 0.111171
H152  H     H_    0.405794 0.432794 0.767578 0.219887
H153  H     H_    0.392600 0.502467 0.850628 0.226672
H154  H     H_    0.430442 0.421734 0.846295 0.280231
H155  H     H_    0.621608 0.795611 0.039727 0.150747
H156  H     H_    0.611045 0.802819 0.152911 0.138488
H157  H     H_    0.539435 0.703389 0.200292 0.257557
H158  H     H_    0.523262 0.783998 0.157814 0.197861
H159  H     H_    0.160598 0.651835 0.396197 0.198929
H160  H     H_    0.549737 0.704534 0.086822 0.265702
H161  H     H_    0.148211 0.903568 0.027231 0.143582
H162  H     H_    0.170147 0.923892 0.106409 0.087928
H163  H     H_    0.078742 0.933600 0.230256 0.203818
H164  H     H_    0.072258 0.968993 0.137217 0.230189
H165  H     H_    0.050876 0.878786 0.175187 0.277681
H166  H     H_    0.877994 0.296647 0.961112 0.152160
H167  H     H_    0.885358 0.304089 0.849845 0.140449
H168  H     H_    0.958046 0.205727 0.795543 0.256904
H169  H     H_    0.975115 0.284982 0.838728 0.197647
H170  H     H_    0.581004 0.829986 0.615848 0.167975
H171  H     H_    0.950658 0.204328 0.907152 0.265607
H172  H     H_    0.788695 0.928212 0.999808 0.150160
H173  H     H_    0.784510 0.922256 0.898015 0.146840
H174  H     H_    0.880534 0.966937 0.806753 0.227019
H175  H     H_    0.836955 0.030479 0.894010 0.246357
H176  H     H_    0.884568 0.974765 0.909011 0.287020
H177  H     H_    0.149464 0.376939 0.032136 0.138291
H178  H     H_    0.104645 0.378468 0.152174 0.135181
H179  H     H_    0.035387 0.305637 0.129691 0.252148
H180  H     H_    0.051343 0.393437 0.076029 0.205496
I1    I     I_    0.796514 0.339447 0.735449 -0.429401
I2    I     I_    0.301265 0.878457 0.174550 -0.514802
I3    I     I_    0.204397 0.362541 0.273712 -0.387321
I4    I     I_    0.713935 0.873295 0.811168 -0.527360
I5    I     I_    0.291970 0.838822 0.742900 -0.319819
I6    I     I_    0.793723 0.378487 0.179443 -0.511991
I7    I     I_    0.701807 0.836441 0.268326 -0.419635
I8    I     I_    0.216494 0.376926 0.797823 -0.505658
O1    O     O_R   0.746490 0.236330 0.638080 -0.602556
O2    O     O_R   0.325830 0.813840 0.483730 -0.624177
O3    O     O_R   0.325830 0.186160 0.483730 -0.644364
O4    O     O_R   0.674170 0.813840 0.516270 -0.629155
O5    O     O_R   0.174170 0.686160 0.516270 -0.636329
O6    O     O_R   0.825830 0.313840 0.483730 -0.630314
O7    O     O_R   0.825830 0.686160 0.483730 -0.646195
O8    O     O_R   0.174170 0.313840 0.516270 -0.623270
O9    O     O_R   0.739960 0.127620 0.525000 -0.623755
O10   O     O_R   0.260040 0.872380 0.475000 -0.628105
O11   O     O_R   0.260040 0.127620 0.475000 -0.623548
O12   O     O_R   0.253510 0.763670 0.361920 -0.626666
O13   O     O_R   0.739960 0.872380 0.525000 -0.620922
O14   O     O_R   0.239960 0.627620 0.525000 -0.624181
O15   O     O_R   0.760040 0.372380 0.475000 -0.625752
O16   O     O_R   0.760040 0.627620 0.475000 -0.619470
O17   O     O_R   0.239960 0.372380 0.525000 -0.616801
O18   O     O_R   0.680700 0.294870 0.629350 -0.629911
O19   O     O_R   0.319300 0.705130 0.370650 -0.639154
O20   O     O_R   0.319300 0.294870 0.370650 -0.628218
O21   O     O_R   0.680700 0.705130 0.629350 -0.634894
O22   O     O_R   0.180700 0.794870 0.629350 -0.630866
O23   O     O_R   0.253510 0.236330 0.361920 -0.617160
O24   O     O_R   0.819300 0.205130 0.370650 -0.638671
O25   O     O_R   0.819300 0.794870 0.370650 -0.636669
O26   O     O_R   0.180700 0.205130 0.629350 -0.638908
O27   O     O_R   0.062020 0.072840 0.007170 -0.587431
O28   O     O_R   0.937980 0.927160 0.992830 -0.589358
O29   O     O_R   0.937980 0.072840 0.992830 -0.591571
O30   O     O_R   0.062020 0.927160 0.007170 -0.640661
O31   O     O_R   0.562020 0.572840 0.007170 -0.588540
O32   O     O_R   0.437980 0.427160 0.992830 -0.615345
O33   O     O_R   0.437980 0.572840 0.992830 -0.578737
O34   O     O_R   0.746490 0.763670 0.638080 -0.621038
O35   O     O_R   0.562020 0.427160 0.007170 -0.609951
O36   O     O_R   0.947860 0.073950 0.109290 -0.619257
O37   O     O_R   0.052140 0.926050 0.890710 -0.607086
O38   O     O_R   0.052140 0.073950 0.890710 -0.624731
O39   O     O_R   0.947860 0.926050 0.109290 -0.640259
O40   O     O_R   0.447860 0.573950 0.109290 -0.627621
O41   O     O_R   0.552140 0.426050 0.890710 -0.628694
O42   O     O_R   0.552140 0.573950 0.890710 -0.627210
O43   O     O_R   0.447860 0.426050 0.109290 -0.627345
O44   O     O_3   0.006963 0.306368 0.552542 -0.556442
O45   O     O_R   0.246490 0.736330 0.638080 -0.592367
O46   O     O_3   0.998135 0.691627 0.433867 -0.576610
O47   O     O_3   0.002616 0.300809 0.411843 -0.565226
O48   O     O_3   0.096513 0.648074 0.328939 -0.563530
O49   O     O_3   0.490518 0.810233 0.594198 -0.571960
O50   O     O_3   0.456653 0.182349 0.562915 -0.593866
O51   O     O_3   0.493205 0.799219 0.443887 -0.561392
O52   O     O_3   0.554341 0.175579 0.416180 -0.595095
O53   O     O_3   0.649497 0.338186 0.101175 -0.536553
O54   O     O_3   0.352812 0.711324 0.910189 -0.549738
O55   O     O_3   0.349425 0.330706 0.896322 -0.539829
O56   O     O_R   0.753510 0.263670 0.361920 -0.638965
O57   O     O_3   0.645441 0.705252 0.088203 -0.559416
O58   O     O_3   0.140963 0.818349 0.113116 -0.556124
O59   O     O_3   0.852639 0.206626 0.915404 -0.540249
O60   O     O_3   0.838442 0.849698 0.907586 -0.533673
O61   O     O_3   0.133337 0.275838 0.103127 -0.550552
O62   O     O_3   0.787502 0.201864 0.839187 -0.561817
O63   O     O_3   0.192360 0.757246 0.200363 -0.589495
O64   O     O_3   0.198378 0.231359 0.176974 -0.559326
O65   O     O_3   0.817948 0.723649 0.823263 -0.627878
O66   O     O_3   0.283405 0.700898 0.840217 -0.552184
O67   O     O_R   0.753510 0.736330 0.361920 -0.599168
O68   O     O_3   0.680592 0.234773 0.188525 -0.634069
O69   O     O_3   0.713554 0.699869 0.162977 -0.568484
O70   O     O_3   0.304608 0.217552 0.837309 -0.626008
O71   O     O_3   0.595836 0.277161 0.038827 -0.548818
O72   O     O_3   0.332044 0.603918 0.029844 -0.574615
O73   O     O_3   0.399825 0.279144 0.965485 -0.551291
O74   O     O_3   0.671644 0.598355 0.961719 -0.594144
O75   O     O_3   0.090728 0.765751 0.043730 -0.562095
O76   O     O_3   0.827831 0.099778 0.040659 -0.586120
O77   O     O_3   0.901153 0.798965 0.953657 -0.544190
O78   O     O_R   0.246490 0.263670 0.638080 -0.629779
O79   O     O_3   0.122039 0.158751 0.035027 -0.556427
O80   O     O_R   0.674170 0.186160 0.516270 -0.642609
Zn1   Zn    Zn3+2 0.792340 0.208750 0.507670 0.968674
Zn2   Zn    Zn3+2 0.494040 0.500000 0.919480 0.951150
Zn3   Zn    Zn3+2 0.005960 1.000000 0.080520 0.915954
Zn4   Zn    Zn3+2 0.994040 0.000000 0.919480 0.973055
Zn5   Zn    Zn3+2 0.207660 0.791250 0.492330 0.949702
Zn6   Zn    Zn3+2 0.207660 0.208750 0.492330 0.973449
Zn7   Zn    Zn3+2 0.792340 0.791250 0.507670 0.950087
Zn8   Zn    Zn3+2 0.292340 0.708750 0.507670 0.995681
Zn9   Zn    Zn3+2 0.707660 0.291250 0.492330 0.948955
Zn10  Zn    Zn3+2 0.707660 0.708750 0.492330 0.960411
Zn11  Zn    Zn3+2 0.292340 0.291250 0.507670 0.961988
Zn12  Zn    Zn3+2 0.505960 0.500000 0.080520 0.952778

loop_
_geom_bond_atom_site_label_1
_geom_bond_atom_site_label_2
_ccdc_geom_bond_type
C101  C148  A    
C126  C127  S    
C71   H130  S    
C72   H134  S    
C36   C42   A    
C81   H156  S    
C84   H164  S    
C85   H166  S    
C68   O52   S    
O2    Zn8   S    
C64   H113  S    
C3    O37   A    
C53   H2    S    
C13   C18   A    
C170  C178  A    
C93   H8    S    
C59   H101  S    
C58   H97   S    
C16   C35   A    
C78   O55   S    
C201  O9    A    
C184  C193  A    
C158  O22   A    
C100  H27   S    
C106  H40   S    
C37   C42   A    
C63   H112  S    
C150  C194  A    
C91   H3    S    
C131  C140  A    
C134  C143  A    
C7    O41   A    
C94   O63   S    
C73   H136  S    
C10   C20   A    
C94   H9    S    
C74   O53   S    
C148  O55   S    
C136  O23   A    
C121  H75   S    
C22   C53   A    
C170  H68   S    
C80   H152  S    
C87   H173  S    
C24   C51   A    
C77   H149  S    
O21   Zn10  S    
C8    C16   A    
C76   O54   S    
C154  C163  A    
C106  H41   S    
C61   H106  S    
C100  O66   S    
C42   H115  S    
C125  H83   S    
C180  C182  S    
C190  C199  A    
O78   Zn11  S    
C153  O75   S    
C69   H125  S    
C150  C159  A    
C85   O59   S    
C117  O74   S    
C122  H80   S    
C112  O12   A    
O14   Zn8   S    
O24   Zn1   S    
C118  H66   S    
C39   H1    S    
C58   H99   S    
C59   O46   S    
C119  H71   S    
C179  C188  A    
C88   H175  S    
C124  C197  S    
C172  H90   S    
C177  C186  A    
C107  H42   S    
C29   C45   A    
C180  O25   A    
C186  I3    S    
C104  H33   S    
C114  H56   S    
C209  O8    A    
C210  O38   A    
O42   Zn2   S    
C22   C31   A    
C135  O66   S    
C164  C173  A    
O30   Zn3   S    
O56   Zn9   S    
C184  I1    S    
C98   H20   S    
C173  C182  A    
C156  C165  A    
C41   H104  S    
C105  C106  S    
C14   C57   A    
C124  C135  A    
C2    C19   A    
C115  H60   S    
C119  H70   S    
C25   C55   A    
C72   C73   S    
C80   H153  S    
C7    C157  S    
C101  C133  A    
O11   Zn6   S    
O67   Zn10  S    
C32   C203  S    
C9    C15   A    
C134  O65   S    
C168  H57   S    
C86   H169  S    
C119  O75   S    
O28   Zn4   S    
C118  H67   S    
C67   H122  S    
C73   H138  S    
O41   Zn2   S    
C46   C53   A    
C159  C167  A    
O4    Zn10  S    
C192  C200  A    
C92   H5    S    
C77   H147  S    
C169  O24   A    
C98   C99   S    
C158  O45   A    
C4    C161  S    
C81   O57   S    
C182  C190  A    
C109  C110  S    
C204  O3    A    
O3    Zn11  S    
C180  O67   A    
C11   C18   A    
C69   H127  S    
C122  H78   S    
C55   H24   S    
C58   H98   S    
C25   C43   A    
C85   C86   S    
C120  H74   S    
C12   C68   A    
C191  O78   A    
C133  C142  A    
C71   H131  S    
C96   H16   S    
O9    Zn1   S    
C34   C209  S    
C105  H38   S    
C202  O44   S    
C154  C198  A    
C115  H59   S    
C165  C210  S    
C5    O43   A    
C154  O76   S    
C115  C116  S    
C48   C202  A    
C36   C208  S    
C76   H145  S    
C112  O19   A    
C3    C162  S    
C149  C193  A    
O33   Zn2   S    
C172  C181  A    
C83   C84   S    
C109  O71   S    
C103  O68   S    
C107  C108  S    
C100  H26   S    
C102  H30   S    
C89   C91   S    
C65   O49   S    
C152  C161  A    
C211  O28   A    
C160  C168  A    
C86   H171  S    
C82   H160  S    
O6    Zn1   S    
O16   Zn10  S    
C147  O34   A    
C171  C179  A    
C108  H45   S    
C66   H119  S    
C48   H126  S    
O37   Zn4   S    
C139  C148  A    
C152  C196  A    
C91   H179  S    
C111  H53   S    
C38   C41   A    
C9    C14   A    
C69   H124  S    
C126  H87   S    
C165  C174  A    
C131  O62   S    
O1    Zn1   S    
C136  C177  S    
C95   H11   S    
O25   Zn7   S    
C121  H76   S    
C54   H13   S    
C97   H18   S    
C88   H174  S    
C8    C12   A    
C5    C160  S    
C79   C131  A    
C10   C45   A    
C103  H32   S    
C31   C204  S    
C107  H43   S    
C60   H105  S    
C203  O10   A    
C110  H51   S    
C129  C199  S    
C156  O79   S    
C83   H162  S    
C112  C176  S    
C104  H34   S    
C113  C196  S    
C124  C141  A    
C140  O59   S    
C123  H81   S    
C189  I6    S    
C103  C104  S    
C155  C199  A    
C29   C51   A    
C142  O61   S    
C27   C47   A    
C132  C141  A    
C61   H107  S    
C1    C175  S    
C56   O44   S    
C205  O13   A    
C70   O51   S    
O29   Zn4   S    
C152  O74   S    
C163  C212  S    
C64   H114  S    
C70   H128  S    
C79   C193  S    
C93   H7    S    
C143  O60   S    
C128  C140  A    
C20   C202  A    
C117  C118  S    
C28   C37   A    
C138  C146  A    
C56   C58   S    
C30   C39   A    
C61   C62   S    
C130  C142  A    
C63   H111  S    
C105  O69   S    
C13   C50   A    
C63   O48   S    
C59   C60   S    
C67   H123  S    
C82   H158  S    
C173  H92   S    
C212  O36   A    
C108  H47   S    
C15   C46   A    
C75   H142  S    
C90   C144  A    
C27   C49   A    
C25   C33   A    
C54   C57   A    
C87   C88   S    
C145  O53   S    
C187  C196  A    
C11   C47   A    
C205  O4    A    
C8    C43   A    
C185  C194  A    
C183  C192  A    
C55   C68   A    
C7    O35   A    
C176  C185  A    
C107  O70   S    
C11   C19   A    
C166  C175  A    
C23   C54   A    
C137  C145  A    
C1    O18   A    
C59   H100  S    
C123  C125  S    
C88   H176  S    
C168  C177  A    
C31   C40   A    
C151  C195  A    
C127  H88   S    
C191  O26   A    
C89   H178  S    
C192  I8    S    
C62   H109  S    
O18   Zn9   S    
C181  C189  A    
C74   H139  S    
O7    Zn7   S    
C2    O46   S    
C104  H36   S    
C70   C71   S    
C188  I5    S    
C76   H144  S    
C13   O47   S    
C26   C48   A    
C78   H150  S    
C90   C132  A    
C108  H44   S    
O20   Zn11  S    
C72   H133  S    
C37   C207  S    
C34   C41   A    
C84   H163  S    
C130  C139  A    
C114  H58   S    
C85   H167  S    
O8    Zn6   S    
C64   H116  S    
C212  O29   A    
C81   H155  S    
C144  O54   S    
C206  O5    A    
C118  H69   S    
C79   C145  A    
O39   Zn3   S    
C61   O47   S    
C99   H22   S    
C35   O49   S    
C115  O73   S    
C116  H61   S    
C201  O80   A    
C56   H95   S    
C6    C159  S    
C23   C44   A    
C106  H39   S    
C116  H63   S    
C158  C179  S    
C138  O69   S    
C125  H85   S    
C204  O11   A    
C1    O1    A    
C90   C194  S    
C12   C15   A    
C169  C181  S    
C121  C122  S    
C187  I4    S    
C57   O51   S    
C178  C187  A    
C185  I2    S    
O22   Zn5   S    
C150  O72   S    
C113  C134  A    
O10   Zn5   S    
C96   O64   S    
C139  O70   S    
C80   H154  S    
C67   O50   S    
C125  H84   S    
O32   Zn2   S    
C4    O42   A    
C62   H108  S    
C147  O21   A    
C89   O61   S    
O35   Zn12  S    
C174  C183  A    
C208  O7    A    
C60   H102  S    
C119  C120  S    
C129  C143  A    
C27   C36   A    
C21   C30   A    
O36   Zn3   S    
C102  H28   S    
C153  C162  A    
C23   C32   A    
C109  H48   S    
C105  H37   S    
C203  O2    A    
C114  H55   S    
C127  H91   S    
C188  C197  A    
O26   Zn6   S    
C92   C93   S    
C5    O32   A    
C92   H4    S    
C111  C114  S    
C78   C80   S    
C207  O15   A    
C94   C95   S    
C65   H117  S    
C208  O16   A    
C99   H25   S    
C120  H72   S    
C141  O58   S    
C35   C52   A    
C52   H170  S    
C126  O79   S    
C10   C17   A    
C84   H165  S    
C149  C157  A    
C206  O14   A    
C101  C195  S    
C6    O40   A    
C175  C184  A    
C189  C198  A    
C113  C146  A    
C149  O71   S    
C174  H94   S    
C3    O30   A    
C82   H157  S    
O80   Zn9   S    
C66   H120  S    
C75   H143  S    
C81   C82   S    
C24   O48   S    
C33   C39   A    
C169  O56   A    
C166  H35   S    
C30   C205  S    
C6    O33   A    
C86   H168  S    
C121  O76   S    
C155  O77   S    
C153  C197  A    
C164  C211  S    
C87   O60   S    
C136  O20   A    
C66   H121  S    
O40   Zn12  S    
C117  H65   S    
C21   C43   A    
C28   C50   A    
C26   C34   A    
C97   H17   S    
C129  C138  A    
O17   Zn11  S    
C72   O52   S    
C103  H31   S    
C167  H46   S    
C207  O6    A    
C110  H52   S    
O43   Zn12  S    
C26   C45   A    
C83   H161  S    
C211  O39   A    
O15   Zn9   S    
C156  C200  A    
C122  H77   S    
C117  H64   S    
C130  C200  S    
O12   Zn5   S    
C60   H103  S    
C128  C198  S    
C120  H73   S    
C22   C44   A    
C17   C24   A    
C74   C75   S    
C71   H132  S    
C96   H15   S    
C186  C195  A    
O45   Zn8   S    
C76   C77   S    
C132  O63   S    
O19   Zn8   S    
C56   H96   S    
C210  O27   A    
C49   H137  S    
C70   H129  S    
C209  O17   A    
C63   C64   S    
C93   H6    S    
C67   C69   S    
C29   C38   A    
C128  C137  A    
C50   H148  S    
C163  C172  A    
C2    C49   A    
C99   H23   S    
C96   C97   S    
C100  C102  S    
C102  H29   S    
C133  O64   S    
C116  H62   S    
C123  O77   S    
C73   H135  S    
C161  C170  A    
C28   C47   A    
C135  C144  A    
O27   Zn3   S    
C65   C66   S    
C14   C16   A    
C40   H93   S    
C75   H141  S    
O13   Zn7   S    
O23   Zn6   S    
C94   H10   S    
C9    C44   A    
C38   C206  S    
C91   H180  S    
C111  H54   S    
C4    O31   A    
C183  C191  S    
C157  C166  A    
C127  H89   S    
C151  O73   S    
C126  H86   S    
C155  C164  A    
C146  O57   S    
C92   O62   S    
C95   H12   S    
C190  I7    S    
O5    Zn5   S    
C151  C160  A    
C95   H14   S    
O34   Zn7   S    
C147  C178  S    
O38   Zn4   S    
C77   H146  S    
C97   H19   S    
C98   H21   S    
C83   O58   S    
C33   C201  S    
C87   H172  S    
C17   C19   A    
C46   O50   S    
C18   C20   A    
C32   C40   A    
C98   O65   S    
C110  H50   S    
C89   H177  S    
C62   H110  S    
C137  O68   S    
C74   H140  S    
C162  C171  A    
C111  O72   S    
O31   Zn12  S    
C78   H151  S    
C123  H82   S    
C109  H49   S    
C21   C52   A    
C51   H159  S    
C65   H118  S    
C167  C176  A    
C171  H79   S    
