data_mof_unit_7504.cif
_audit_creation_date              2012-12-11T15:18:03-0500
_audit_creation_method            fapswitch 2.2
_symmetry_space_group_name_H-M    P1
_symmetry_Int_Tables_number       1
_space_group_crystal_system       triclinic
_cell_length_a                    15.671112
_cell_length_b                    15.677532
_cell_length_c                    34.286554
_cell_angle_alpha                 89.89322
_cell_angle_beta                  89.921175
_cell_angle_gamma                 119.391632
_cell_volume                      7339.38346725

loop_
_atom_site_label
_atom_site_type_symbol
_atom_type_description
_atom_site_fract_x
_atom_site_fract_y
_atom_site_fract_z
_atom_type_partial_charge
C1    C     C_R   0.577520 0.441724 0.554692 0.557102
C2    C     C_R   0.506779 0.023896 0.206875 0.313207
C3    C     C_3   0.602962 0.828494 0.109092 -0.255915
C4    C     C_3   0.277887 0.322274 0.071723 -0.259629
C5    C     C_3   0.279089 0.681153 0.131875 -0.275759
C6    C     C_R   0.519145 0.486203 0.205719 0.315572
C7    C     C_R   0.912090 0.470828 0.196947 0.311676
C8    C     C_R   0.013941 0.433172 0.852157 0.249741
C9    C     C_R   0.564563 0.585610 0.850230 0.246770
C10   C     C_R   0.332059 0.833727 0.835753 0.252252
C11   C     C_R   0.434807 0.017730 0.351349 0.249701
C12   C     C_R   0.587021 0.564007 0.349986 0.245035
C13   C     C_R   0.838280 0.339435 0.334937 0.251492
C14   C     C_R   0.041903 0.446330 0.891519 -0.119787
C15   C     C_R   0.559334 0.137642 0.555453 0.574475
C16   C     C_R   0.552674 0.597478 0.890105 -0.126104
C17   C     C_R   0.327921 0.825823 0.876558 -0.118792
C18   C     C_R   0.447335 0.043211 0.390998 -0.120582
C19   C     C_R   0.598137 0.552399 0.389952 -0.128132
C20   C     C_R   0.830420 0.332910 0.375815 -0.121161
C21   C     C_R   0.079052 0.615249 0.888494 -0.152504
C22   C     C_R   0.382321 0.472167 0.886949 -0.145338
C23   C     C_R   0.479524 0.820783 0.877708 -0.146199
C24   C     C_R   0.617731 0.085493 0.387383 -0.153468
C25   C     C_R   0.472714 0.382123 0.386825 -0.146008
C26   C     C_R   0.863629 0.421579 0.554963 0.586207
C27   C     C_R   0.815832 0.479270 0.378354 -0.146439
C28   C     C_R   0.052204 0.603495 0.849362 -0.154274
C29   C     C_R   0.392881 0.459942 0.847438 -0.159823
C30   C     C_R   0.485283 0.829642 0.837059 -0.158260
C31   C     C_R   0.606676 0.061331 0.347980 -0.156450
C32   C     C_R   0.461194 0.392422 0.347233 -0.160699
C33   C     C_R   0.824216 0.487108 0.337765 -0.159092
C34   C     C_R   0.024562 0.514447 0.830260 0.075215
C35   C     C_R   0.482105 0.519712 0.828167 0.071085
C36   C     C_R   0.412951 0.837926 0.815597 0.071135
C37   C     C_R   0.441524 0.577694 0.054803 0.549753
C38   C     C_R   0.517006 0.032194 0.329053 0.074008
C39   C     C_R   0.521430 0.481452 0.327924 0.070293
C40   C     C_R   0.836731 0.418467 0.315585 0.072485
C41   C     C_R   0.079873 0.538480 0.909072 -0.005982
C42   C     C_R   0.460694 0.544755 0.908001 -0.009574
C43   C     C_R   0.401821 0.821053 0.897849 -0.012935
C44   C     C_R   0.539679 0.082227 0.408494 -0.006648
C45   C     C_R   0.545033 0.460569 0.407918 -0.009987
C46   C     C_R   0.820904 0.403199 0.397813 -0.012758
C47   C     C_R   0.578281 0.442333 0.445402 0.540234
C48   C     C_R   0.138111 0.559372 0.055404 0.569106
C49   C     C_R   0.557991 0.135531 0.445484 0.545800
C50   C     C_R   0.809129 0.391771 0.440625 0.571757
C51   C     C_R   0.442327 0.578300 0.945395 0.542724
C52   C     C_R   0.135307 0.557877 0.945572 0.546821
C53   C     C_R   0.391629 0.809096 0.940647 0.570450
C54   C     C_R   0.925084 0.457440 0.590320 -0.001416
C55   C     C_R   0.537054 0.466345 0.589086 -0.011567
C56   C     C_R   0.534303 0.069439 0.588858 -0.005940
C57   C     C_R   0.458847 0.927239 0.089689 -0.010663
C58   C     C_R   0.465579 0.537152 0.089298 -0.015469
C59   C     C_R   0.421858 0.864047 0.054820 0.582311
C60   C     C_R   0.077049 0.537688 0.090622 -0.000116
C61   C     C_R   0.956875 0.396821 0.607825 -0.093741
C62   C     C_R   0.586890 0.562158 0.603727 -0.110106
C63   C     C_R   0.435439 0.005318 0.597585 -0.093472
C64   C     C_R   0.400201 0.962565 0.106315 -0.094447
C65   C     C_R   0.562136 0.584386 0.103243 -0.107529
C66   C     C_R   0.990183 0.448032 0.094148 -0.093560
C67   C     C_R   0.998586 0.417009 0.644819 0.235364
C68   C     C_R   0.564513 0.584378 0.640359 0.236162
C69   C     C_R   0.408091 0.944200 0.630325 0.241378
C70   C     C_R   0.015599 0.503877 0.708229 0.314513
C71   C     C_R   0.421096 0.006167 0.142978 0.234947
C72   C     C_R   0.584660 0.561569 0.139761 0.237184
C73   C     C_R   0.930318 0.426406 0.127212 0.246220
C74   C     C_R   0.006204 0.498391 0.665531 -0.000523
C75   C     C_R   0.492406 0.508131 0.663489 0.000812
C76   C     C_R   0.481228 0.950940 0.656483 0.000309
C77   C     C_R   0.501218 0.012322 0.164235 -0.000632
C78   C     C_R   0.508104 0.491487 0.163395 -0.000099
C79   C     C_R   0.959902 0.495143 0.158177 0.002779
C80   C     C_R   0.987032 0.565987 0.646230 -0.132463
C81   C     C_R   0.487432 0.517808 0.705940 0.319377
C82   C     C_R   0.434523 0.415513 0.646994 -0.135738
C83   C     C_R   0.580129 0.011347 0.646724 -0.133370
C84   C     C_R   0.567028 0.989294 0.145720 -0.130639
C85   C     C_R   0.414146 0.436339 0.147653 -0.138251
C86   C     C_R   0.045949 0.585565 0.154025 -0.130242
C87   C     C_R   0.945746 0.546003 0.608887 0.105629
C88   C     C_R   0.455104 0.394015 0.609803 0.112731
C89   C     C_R   0.607450 0.069650 0.613070 0.106351
C90   C     C_R   0.546243 0.945887 0.108788 0.101835
C91   C     C_R   0.392136 0.457578 0.110703 0.104745
C92   C     C_R   0.457144 0.908537 0.696205 0.315972
C93   C     C_R   0.105557 0.606752 0.121010 0.112851
C94   C     C_R   0.016405 0.510548 0.787273 0.363628
C95   C     C_R   0.485025 0.517093 0.785058 0.364421
C96   C     C_R   0.425570 0.856708 0.772842 0.367348
C97   C     C_R   0.513026 0.025341 0.285973 0.362419
C98   C     C_R   0.519232 0.484139 0.284818 0.362420
C99   C     C_R   0.855337 0.434403 0.272956 0.365522
C100  C     C_3   0.834947 0.610956 0.607095 -0.250759
C101  C     C_3   0.320769 0.287759 0.568535 -0.267657
C102  C     C_3   0.755433 0.088011 0.584186 -0.259444
Cr1   Cr    Cr6+3 0.522350 0.263930 0.500020 1.021733
Cr2   Cr    Cr6+3 0.736070 0.258420 0.500020 1.014243
Cr3   Cr    Cr6+3 0.741580 0.477650 0.500020 1.031688
Cr4   Cr    Cr6+3 0.263930 0.522350 0.000020 1.017988
Cr5   Cr    Cr6+3 0.258420 0.736070 0.000020 1.033358
Cr6   Cr    Cr6+3 0.477650 0.741580 0.000020 1.032564
H1    H     H_    0.946058 0.330832 0.593395 0.159288
H2    H     H_    0.386173 0.038439 0.407550 0.118686
H3    H     H_    0.652800 0.613766 0.406461 0.118004
H4    H     H_    0.832487 0.272766 0.390495 0.112134
H5    H     H_    0.995911 0.630437 0.661384 0.156538
H6    H     H_    0.376937 0.357311 0.663983 0.150331
H7    H     H_    0.637042 0.017207 0.666272 0.156414
H8    H     H_    0.630399 0.996597 0.161290 0.156748
H9    H     H_    0.355444 0.380607 0.165091 0.150283
H10   H     H_    0.070954 0.637754 0.177778 0.155367
H11   H     H_    0.105602 0.686362 0.901789 0.127263
H12   H     H_    0.645868 0.619948 0.587162 0.150715
H13   H     H_    0.310646 0.429908 0.900187 0.146021
H14   H     H_    0.536064 0.814250 0.893341 0.149157
H15   H     H_    0.689248 0.113428 0.400523 0.127182
H16   H     H_    0.430194 0.310565 0.400113 0.145689
H17   H     H_    0.805674 0.532957 0.394493 0.150082
H18   H     H_    0.057758 0.665847 0.833533 0.156871
H19   H     H_    0.329080 0.407019 0.831584 0.157342
H20   H     H_    0.547461 0.831371 0.822493 0.162500
H21   H     H_    0.670044 0.070195 0.331896 0.158123
H22   H     H_    0.408471 0.328541 0.331373 0.157447
H23   H     H_    0.378568 0.002076 0.578673 0.159926
H24   H     H_    0.821558 0.547688 0.323716 0.161898
H25   H     H_    0.980040 0.683556 0.590148 0.258588
H26   H     H_    0.848106 0.638171 0.637608 0.151610
H27   H     H_    0.771959 0.535212 0.606567 0.177687
H28   H     H_    0.816465 0.658812 0.589307 0.155906
H29   H     H_    0.371089 0.243623 0.615922 0.256114
H30   H     H_    0.266032 0.300295 0.584425 0.144522
H31   H     H_    0.283320 0.212704 0.556189 0.142741
H32   H     H_    0.352073 0.340884 0.544040 0.157586
H33   H     H_    0.747817 0.169397 0.629980 0.263066
H34   H     H_    0.335048 0.952941 0.091490 0.170735
H35   H     H_    0.756753 0.029567 0.602148 0.146334
H36   H     H_    0.831910 0.143929 0.577012 0.147922
H37   H     H_    0.716036 0.055963 0.556481 0.158814
H38   H     H_    0.682700 0.972777 0.091606 0.259811
H39   H     H_    0.627331 0.840936 0.139990 0.148992
H40   H     H_    0.650339 0.807097 0.092536 0.162658
H41   H     H_    0.526072 0.767783 0.107699 0.164092
H42   H     H_    0.241752 0.382088 0.118303 0.251588
H43   H     H_    0.202220 0.287717 0.059994 0.145203
H44   H     H_    0.329927 0.348345 0.046748 0.160226
H45   H     H_    0.620389 0.641515 0.086163 0.154365
H46   H     H_    0.287000 0.266519 0.088491 0.147731
H47   H     H_    0.197717 0.752376 0.134254 0.266289
H48   H     H_    0.268281 0.653223 0.162330 0.150800
H49   H     H_    0.348059 0.752163 0.130621 0.137812
H50   H     H_    0.286721 0.629116 0.112170 0.162176
H51   H     H_    0.076049 0.387969 0.680974 0.348281
H52   H     H_    0.578840 0.690540 0.673619 0.350291
H53   H     H_    0.302253 0.824273 0.651779 0.343999
H54   H     H_    0.394786 0.087611 0.177981 0.348821
H55   H     H_    0.690670 0.573071 0.172497 0.349237
H56   H     H_    0.967720 0.395107 0.070712 0.151973
H57   H     H_    0.798335 0.342625 0.146597 0.344311
H58   H     H_    0.979619 0.295578 0.853804 0.324745
H59   H     H_    0.703388 0.682751 0.851959 0.323907
H60   H     H_    0.208446 0.835610 0.833986 0.317213
H61   H     H_    0.295998 0.978809 0.353503 0.324483
H62   H     H_    0.684227 0.702767 0.351668 0.323267
H63   H     H_    0.849920 0.221298 0.331829 0.317688
H64   H     H_    0.040038 0.385996 0.907701 0.120129
H65   H     H_    0.613976 0.652349 0.906583 0.119567
H66   H     H_    0.266238 0.823472 0.891767 0.113097
N1    N     N_R   0.974443 0.423607 0.768335 -0.120543
N2    N     N_R   0.423136 0.985537 0.228223 -0.192295
N3    N     N_R   0.577126 0.568786 0.226039 -0.191802
N4    N     N_R   0.878710 0.380211 0.212407 -0.190336
N5    N     N_R   0.056131 0.591154 0.726995 -0.208500
N6    N     N_R   0.403226 0.460748 0.725745 -0.222749
N7    N     N_R   0.519858 0.888100 0.716179 -0.222237
N8    N     N_R   0.593801 0.061432 0.225754 -0.204230
N9    N     N_R   0.460800 0.402580 0.225628 -0.222983
N10   N     N_R   0.914538 0.542376 0.219997 -0.215481
N11   N     N_R   0.057198 0.594370 0.765798 -0.209494
N12   N     N_R   0.569039 0.574011 0.765118 -0.117499
N13   N     N_R   0.401950 0.461003 0.764520 -0.236357
N14   N     N_R   0.504215 0.862405 0.753691 -0.231706
N15   N     N_R   0.596845 0.062828 0.264557 -0.212916
N16   N     N_R   0.461432 0.401449 0.264390 -0.237511
N17   N     N_R   0.886372 0.524437 0.257164 -0.228722
N18   N     N_2   0.921524 0.613273 0.591113 -0.495197
N19   N     N_2   0.397178 0.297693 0.594841 -0.478298
N20   N     N_2   0.708625 0.133474 0.605461 -0.485441
N21   N     N_2   0.611054 0.916773 0.092188 -0.490761
N22   N     N_2   0.294346 0.403084 0.096749 -0.483618
N23   N     N_R   0.362752 0.876247 0.752599 -0.110303
N24   N     N_2   0.197743 0.694487 0.119990 -0.488696
N25   N     N_R   0.426275 0.986899 0.266929 -0.120500
N26   N     N_R   0.577754 0.567506 0.264781 -0.119622
N27   N     N_R   0.850515 0.362355 0.249551 -0.112845
N28   N     N_R   0.973446 0.420305 0.729642 -0.187285
N29   N     N_R   0.570453 0.573772 0.726378 -0.187781
N30   N     N_R   0.378272 0.901933 0.715220 -0.184704
O1    O     O_R   0.498680 0.159540 0.541860 -0.513313
O2    O     O_R   0.358060 0.532760 0.040030 -0.461969
O3    O     O_R   0.174700 0.641940 0.040030 -0.466415
O4    O     O_R   0.467240 0.825300 0.040030 -0.457133
O5    O     O_R   0.498590 0.161190 0.456930 -0.520649
O6    O     O_R   0.838810 0.337400 0.456930 -0.514515
O7    O     O_R   0.662600 0.501410 0.456930 -0.533320
O8    O     O_R   0.161190 0.498590 0.956930 -0.521118
O9    O     O_R   0.337400 0.838810 0.956930 -0.511960
O10   O     O_R   0.501410 0.662600 0.956930 -0.530631
O11   O     O_R   0.532680 0.359580 0.461300 -0.507123
O12   O     O_R   0.840460 0.339140 0.541860 -0.519618
O13   O     O_R   0.640420 0.173100 0.461300 -0.525793
O14   O     O_R   0.826900 0.467320 0.461300 -0.488922
O15   O     O_R   0.359580 0.532680 0.961300 -0.506122
O16   O     O_R   0.173100 0.640420 0.961300 -0.523491
O17   O     O_R   0.467320 0.826900 0.961300 -0.488378
O18   O     O_3   0.666667 0.333333 0.499990 -0.275583
O19   O     O_3   0.333333 0.666667 0.999990 -0.279573
O20   O     O_3   0.027512 0.353721 0.660097 -0.676551
O21   O     O_3   0.616695 0.680162 0.652816 -0.677169
O22   O     O_3   0.309581 0.880062 0.635725 -0.674787
O23   O     O_R   0.660860 0.501320 0.541860 -0.536452
O24   O     O_3   0.359686 0.038434 0.157409 -0.672047
O25   O     O_3   0.681162 0.611219 0.151567 -0.671301
O26   O     O_3   0.843998 0.338285 0.127781 -0.673663
O27   O     O_3   0.982354 0.343686 0.834313 -0.659929
O28   O     O_3   0.654447 0.640724 0.832304 -0.662633
O29   O     O_3   0.258012 0.837742 0.815408 -0.657881
O30   O     O_3   0.344719 0.984298 0.333735 -0.660157
O31   O     O_3   0.642460 0.653725 0.331999 -0.664045
O32   O     O_3   0.850093 0.270936 0.313810 -0.659489
O33   O     O_R   0.159540 0.498680 0.041860 -0.512435
O34   O     O_R   0.339140 0.840460 0.041860 -0.510854
O35   O     O_R   0.501320 0.660860 0.041860 -0.533805
O36   O     O_R   0.532760 0.358060 0.540030 -0.457232
O37   O     O_R   0.641940 0.174700 0.540030 -0.469235
O38   O     O_R   0.825300 0.467240 0.540030 -0.455445

loop_
_geom_bond_atom_site_label_1
_geom_bond_atom_site_label_2
_ccdc_geom_bond_type
C16   H65   S    
C70   N28   A    
C12   O31   S    
C4    H46   S    
C15   O37   A    
C11   C18   A    
C3    H39   S    
H58   O27   S    
C91   N22   S    
C22   C29   A    
C47   O7    A    
C37   O2    A    
C96   N14   A    
C94   N11   A    
Cr2   O6    S    
Cr6   O4    S    
C61   H1    S    
C69   O22   S    
Cr1   O5    S    
C40   C99   S    
C32   H22   S    
C48   O33   A    
C85   C91   A    
C95   N12   A    
C95   N13   A    
H59   O28   S    
C81   N29   A    
Cr3   O23   S    
C27   C33   A    
C68   C75   A    
C53   O9    A    
C84   C90   A    
C7    N10   A    
N23   N30   A    
C9    O28   S    
N6    N13   A    
C9    C16   A    
N10   N17   A    
C80   C87   A    
C18   C44   A    
C92   N7    A    
C102  H37   S    
C2    N8    A    
C54   C87   A    
C8    O27   S    
C70   N5    A    
C6    C78   S    
C10   C17   A    
C53   O17   A    
H51   O20   S    
C55   C62   A    
C26   C54   S    
C23   C43   A    
H52   O21   S    
C48   O3    A    
C69   C76   A    
C26   O12   A    
C71   O24   S    
C32   C39   A    
C55   C88   A    
C97   N25   A    
C13   C40   A    
C72   C78   A    
C2    N2    A    
C20   H4    S    
C22   H13   S    
C43   C53   S    
C90   N21   S    
C63   C69   A    
C101  N19   S    
Cr1   O36   S    
N3    N26   A    
C47   O11   A    
C70   C74   S    
C52   O8    A    
C65   H45   S    
C34   C94   S    
C59   O4    A    
C31   H21   S    
N8    N15   A    
C63   H23   S    
C58   C91   A    
C41   C52   S    
C62   H12   S    
C37   C58   S    
C92   N30   A    
C100  H27   S    
C98   N16   A    
C94   N1    A    
C60   C93   A    
C1    O23   A    
C25   C32   A    
C97   N15   A    
Cr4   O15   S    
C28   C34   A    
C3    H40   S    
C84   H8    S    
C74   C80   A    
C99   N27   A    
C100  N18   S    
C102  H36   S    
C38   C97   S    
C4    H44   S    
C102  N20   S    
C76   C83   A    
Cr2   O18   S    
C73   O26   S    
N7    N14   A    
C100  H26   S    
C46   C50   S    
C48   C60   S    
C23   H14   S    
C30   H20   S    
H63   O32   S    
C45   C47   S    
C1    O36   A    
C101  H31   S    
C96   N23   A    
C83   C89   A    
Cr5   O34   S    
H29   N19   S    
C52   O16   A    
C33   C40   A    
C3    H41   S    
C57   C90   A    
C64   C71   A    
C23   C30   A    
C83   H7    S    
C59   O34   A    
C27   C46   A    
C82   H6    S    
C14   H64   S    
C72   O25   S    
Cr6   O19   S    
C68   O21   S    
C75   C81   S    
C39   C98   S    
C33   H24   S    
C77   C84   A    
C51   O15   A    
C66   C73   A    
C50   O14   A    
C44   C49   S    
C3    N21   S    
C7    N4    A    
C49   O13   A    
C11   C38   A    
C30   C36   A    
C17   C43   A    
C86   C93   A    
H61   O30   S    
C61   C67   A    
C58   C65   A    
Cr4   O19   S    
Cr5   O9    S    
Cr6   O35   S    
Cr4   O8    S    
C26   O38   A    
C73   C79   A    
C56   C63   A    
C66   H56   S    
C98   N26   A    
C86   H10   S    
C67   C74   A    
C8    C34   A    
C85   H9    S    
Cr2   O12   S    
Cr2   O37   S    
C15   O1    A    
H47   N24   S    
C76   C92   S    
C13   O32   S    
C21   C41   A    
C51   O10   A    
C56   C89   A    
C21   C28   A    
C101  H32   S    
H42   N22   S    
C19   H3    S    
C14   C41   A    
C6    N3    A    
H57   O26   S    
C24   C44   A    
C57   C59   S    
C102  H35   S    
N2    N25   A    
C50   O6    A    
C5    H48   S    
N9    N16   A    
C25   C45   A    
Cr3   O38   S    
C71   C77   A    
C17   H66   S    
C78   C85   A    
C57   C64   A    
C7    C79   S    
H53   O22   S    
C4    N22   S    
C4    H43   S    
C29   C35   A    
C10   O29   S    
C8    C14   A    
Cr1   O11   S    
C13   C20   A    
C16   C42   A    
Cr5   O3    S    
C88   N19   S    
C5    H50   S    
C18   H2    S    
C81   N6    A    
H55   O25   S    
Cr4   O2    S    
H54   O24   S    
C101  H30   S    
C19   C45   A    
C75   C82   A    
C5    N24   S    
N5    N11   A    
C54   C61   A    
C35   C95   S    
C28   H18   S    
C65   C72   A    
H62   O31   S    
C42   C51   S    
C5    H49   S    
Cr3   O7    S    
C31   C38   A    
C62   C68   A    
C6    N9    A    
C15   C56   S    
C87   N18   S    
C12   C39   A    
C29   H19   S    
C93   N24   S    
C1    C55   S    
C24   C31   A    
Cr1   O18   S    
C2    C77   S    
C99   N17   A    
Cr6   O17   S    
C27   H17   S    
C22   C42   A    
C64   H34   S    
C11   O30   S    
C82   C88   A    
C89   N20   S    
C12   C19   A    
N12   N29   A    
H33   N20   S    
C24   H15   S    
C67   O20   S    
C25   H16   S    
Cr6   O10   S    
Cr2   O13   S    
C37   O35   A    
C60   C66   A    
Cr5   O16   S    
Cr5   O19   S    
C100  H28   S    
Cr1   O1    S    
C80   H5    S    
Cr4   O33   S    
C21   H11   S    
Cr3   O14   S    
N4    N27   A    
C49   O5    A    
C9    C35   A    
H60   O29   S    
C10   C36   A    
N1    N28   A    
H38   N21   S    
C79   C86   A    
C20   C46   A    
Cr3   O18   S    
H25   N18   S    
C36   C96   S    
