data_mof_unit_51540.cif
_audit_creation_date              2012-12-10T17:50:49-0500
_audit_creation_method            fapswitch 2.2
_symmetry_space_group_name_H-M    P1
_symmetry_Int_Tables_number       1
_space_group_crystal_system       triclinic
_cell_length_a                    14.747857
_cell_length_b                    14.731355
_cell_length_c                    15.88659
_cell_angle_alpha                 76.646259
_cell_angle_beta                  103.007704
_cell_angle_gamma                 114.883871
_cell_volume                      3014.22401924

loop_
_atom_site_label
_atom_site_type_symbol
_atom_type_description
_atom_site_fract_x
_atom_site_fract_y
_atom_site_fract_z
_atom_type_partial_charge
C1    C     C_R   0.880349 0.312320 0.515015 0.805093
C2    C     C_R   0.361048 0.920032 0.502738 0.091509
C3    C     C_R   0.679108 0.001077 0.543157 0.159479
C4    C     C_R   0.322225 0.995177 0.495500 0.159316
C5    C     C_R   0.533727 0.049904 0.518927 0.069131
C6    C     C_R   0.467532 0.946403 0.518450 0.068345
C7    C     C_R   0.510037 0.872606 0.535709 -0.209590
C8    C     C_R   0.491687 0.122103 0.513063 -0.207994
C9    C     C_R   0.613742 0.899703 0.548614 -0.211648
C10   C     C_R   0.388043 0.094861 0.501989 -0.210460
C11   C     C_R   0.714423 0.669346 0.353882 -0.160948
C12   C     C_R   0.119631 0.687657 0.486025 0.804773
C13   C     C_R   0.285206 0.330071 0.645619 -0.161863
C14   C     C_R   0.795876 0.638354 0.376518 0.106367
C15   C     C_R   0.204031 0.361483 0.623349 0.107637
C16   C     C_R   0.999816 0.499959 0.659958 0.834212
C17   C     C_R   0.000189 0.500051 0.340039 0.834774
C18   C     C_R   0.715045 0.510170 0.488122 -0.006384
C19   C     C_R   0.284887 0.489708 0.511793 -0.007752
C20   C     C_R   0.628689 0.535962 0.467205 -0.029137
C21   C     C_R   0.371078 0.463649 0.532490 -0.028499
C22   C     C_R   0.630750 0.618563 0.399760 0.096759
C23   C     C_R   0.783647 0.026955 0.553251 -0.181467
C24   C     C_R   0.368869 0.380828 0.599730 0.097840
C25   C     C_R   0.541228 0.483471 0.511151 0.092157
C26   C     C_R   0.458492 0.516063 0.488482 0.088802
C27   C     C_R   0.466172 0.600457 0.422964 -0.229705
C28   C     C_R   0.533461 0.398949 0.576540 -0.231736
C29   C     C_R   0.549472 0.649597 0.379426 -0.166285
C30   C     C_R   0.450025 0.349611 0.619897 -0.175067
C31   C     C_3   0.944507 0.407370 0.036064 -0.024167
C32   C     C_3   0.055519 0.592721 0.963902 -0.024142
C33   C     C_3   0.905618 0.472383 0.958501 -0.021831
C34   C     C_R   0.217539 0.969673 0.482483 -0.179961
C35   C     C_3   0.094409 0.527707 0.041467 -0.021863
C36   C     C_1   0.999589 0.499921 0.749477 -0.145720
C37   C     C_1   0.000429 0.500119 0.250510 -0.146293
C38   C     C_3   0.039454 0.433842 0.993992 -0.236035
C39   C     C_3   0.960572 0.566249 0.005977 -0.236652
C40   C     C_3   0.999958 0.499865 0.916632 0.075649
C41   C     C_3   0.000068 0.500223 0.083340 0.075815
C42   C     C_1   0.999703 0.499861 0.824946 -0.025730
C43   C     C_1   0.000321 0.500205 0.175034 -0.025581
C44   C     C_R   0.812639 0.204709 0.525943 -0.048359
C45   C     C_R   0.850114 0.128181 0.545284 -0.163620
C46   C     C_R   0.187387 0.794921 0.483641 -0.047261
C47   C     C_1   0.801824 0.441757 0.912088 0.256465
C48   C     C_1   0.198206 0.558330 0.087870 0.257040
C49   C     C_1   0.119360 0.310133 0.671643 0.322928
C50   C     C_1   0.880793 0.690037 0.328532 0.326174
C51   C     C_1   0.717667 0.753276 0.283593 0.219085
C52   C     C_1   0.281681 0.245718 0.715527 0.216165
C53   C     C_1   0.883275 0.305496 0.076396 0.257447
C54   C     C_1   0.116746 0.694584 0.923546 0.256722
C55   C     C_R   0.150454 0.869913 0.477362 -0.168024
C56   C     C_R   0.708438 0.178898 0.516627 -0.243022
C57   C     C_R   0.291600 0.821014 0.493349 -0.237420
C58   C     C_R   0.639927 0.077398 0.526916 0.091650
Cu1   Cu    Cu3+1 0.081740 0.475690 0.522610 0.959037
Cu2   Cu    Cu3+1 0.918260 0.524310 0.477390 0.958795
H1    H     H_    0.316557 0.762361 0.492653 0.146064
H2    H     H_    0.721154 0.450991 0.540354 0.133605
H3    H     H_    0.408856 0.631330 0.403373 0.137068
H4    H     H_    0.590766 0.368058 0.596086 0.134458
H5    H     H_    0.928395 0.620249 0.011340 0.163666
H6    H     H_    0.071630 0.379842 0.988627 0.163983
H7    H     H_    0.642924 0.840650 0.561848 0.151538
H8    H     H_    0.359225 0.152593 0.498167 0.152086
H9    H     H_    0.070052 0.851327 0.469700 0.158781
H10   H     H_    0.930451 0.146461 0.552927 0.159638
H11   H     H_    0.682241 0.239673 0.498730 0.151744
H12   H     H_    0.813933 0.968766 0.566626 0.139877
H13   H     H_    0.187598 0.026777 0.477483 0.139585
H14   H     H_    0.465527 0.792408 0.542241 0.146349
H15   H     H_    0.536824 0.200326 0.519459 0.140975
H16   H     H_    0.549458 0.713390 0.329283 0.166144
H17   H     H_    0.449891 0.285595 0.669824 0.166574
H18   H     H_    0.278857 0.549023 0.459686 0.133604
N1    N     N_R   0.795440 0.560790 0.443380 -0.204523
N2    N     N_1   0.164999 0.774854 0.891705 -0.250819
N3    N     N_R   0.204560 0.439210 0.556620 -0.204183
N4    N     N_1   0.720050 0.417613 0.875446 -0.264306
N5    N     N_1   0.279984 0.582470 0.124501 -0.264118
N6    N     N_1   0.052188 0.268290 0.711065 -0.289722
N7    N     N_1   0.948187 0.732167 0.289389 -0.287914
N8    N     N_1   0.720344 0.820100 0.227651 -0.242634
N9    N     N_1   0.278782 0.178546 0.771152 -0.243371
N10   N     N_1   0.835016 0.225217 0.108212 -0.250335
O1    O     O_R   0.977900 0.338120 0.529810 -0.585360
O2    O     O_R   0.022100 0.661880 0.470190 -0.585228
O3    O     O_R   0.839850 0.379180 0.491620 -0.593248
O4    O     O_R   0.160150 0.620820 0.508380 -0.593000
O5    O     O_R   0.069010 0.479460 0.640020 -0.569886
O6    O     O_R   0.930990 0.520540 0.359980 -0.570063
O7    O     O_R   0.930960 0.520530 0.601820 -0.581406
O8    O     O_R   0.069040 0.479470 0.398180 -0.580577

loop_
_geom_bond_atom_site_label_1
_geom_bond_atom_site_label_2
_ccdc_geom_bond_type
C21   C26   A    
Cu2   N1    S    
C23   C45   A    
C22   C29   A    
C27   C29   A    
C39   H5    S    
C36   C42   T    
C2    C57   A    
C39   C41   S    
C29   H16   S    
C25   C28   A    
C26   C27   A    
C33   C39   S    
C5    C58   A    
C49   N6    T    
C12   O2    A    
C19   C21   A    
C5    C6    A    
C11   C14   A    
C32   C39   S    
C20   C25   A    
Cu1   O1    S    
C47   N4    T    
C50   N7    T    
C30   H17   S    
C3    C23   A    
C38   H6    S    
C18   N1    A    
C46   C55   A    
C31   C33   S    
C40   C42   S    
C34   C55   A    
C1    O3    A    
Cu2   O7    S    
C41   C43   S    
C2    C6    A    
C35   C48   S    
C51   N8    T    
C32   C54   S    
C7    H14   S    
C54   N2    T    
C4    C34   A    
C33   C40   S    
C32   C35   S    
C35   C38   S    
C15   N3    A    
C18   H2    S    
C25   C26   A    
C8    H15   S    
C13   C24   A    
C37   C43   T    
C19   H18   S    
C2    C4    A    
C9    H7    S    
C3    C9    A    
C13   C52   S    
C44   C56   A    
C1    C44   S    
C56   H11   S    
C16   O5    A    
C17   O8    A    
C17   C37   S    
C14   N1    A    
C31   C53   S    
C55   H9    S    
C27   H3    S    
C28   H4    S    
C12   C46   S    
C20   C22   A    
Cu2   O2    S    
C13   C15   A    
C46   C57   A    
C33   C47   S    
Cu1   O8    S    
C4    C10   A    
C32   C40   S    
C44   C45   A    
Cu2   O3    S    
C7    C9    A    
C16   O7    A    
C1    O1    A    
C31   C41   S    
C45   H10   S    
C23   H12   S    
C12   O4    A    
C52   N9    T    
Cu1   N3    S    
C5    C8    A    
C31   C38   S    
C57   H1    S    
C6    C7    A    
C10   H8    S    
C11   C22   A    
C48   N5    T    
C28   C30   A    
C16   C36   S    
C38   C40   S    
C14   C50   S    
C56   C58   A    
C53   N10   T    
C18   C20   A    
Cu1   O4    S    
C15   C49   S    
C35   C41   S    
C24   C30   A    
C11   C51   S    
C34   H13   S    
C3    C58   A    
Cu1   Cu2   S    
C8    C10   A    
C21   C24   A    
C17   O6    A    
Cu1   O5    S    
C19   N3    A    
Cu2   O6    S    
