data_mof_unit_38533.cif
_audit_creation_date              2012-12-11T14:48:45-0500
_audit_creation_method            fapswitch 2.2
_symmetry_space_group_name_H-M    P1
_symmetry_Int_Tables_number       1
_space_group_crystal_system       triclinic
_cell_length_a                    7.354865
_cell_length_b                    19.220475
_cell_length_c                    18.752968
_cell_angle_alpha                 89.961738
_cell_angle_beta                  87.206603
_cell_angle_gamma                 90.110455
_cell_volume                      2647.83883986

loop_
_atom_site_label
_atom_site_type_symbol
_atom_type_description
_atom_site_fract_x
_atom_site_fract_y
_atom_site_fract_z
_atom_type_partial_charge
O1    O     O_R   0.350610 0.187000 0.656530 -0.544296
O2    O     O_R   0.649390 0.813000 0.343470 -0.552152
O3    O     O_R   0.149390 0.687000 0.343470 -0.543545
O4    O     O_R   0.850610 0.313000 0.656530 -0.552511
O5    O     O_R   0.655920 0.179060 0.799470 -0.536918
O6    O     O_R   0.344080 0.820940 0.200530 -0.533407
O7    O     O_R   0.844080 0.679060 0.200530 -0.537538
O8    O     O_R   0.155920 0.320940 0.799470 -0.528356
O9    O     O_R   0.826150 0.314000 0.799910 -0.529169
O10   O     O_R   0.173850 0.686000 0.200090 -0.525627
O11   O     O_R   0.673850 0.814000 0.200090 -0.527917
O12   O     O_R   0.326150 0.186000 0.799910 -0.521676
C1    C     C_R   0.485177 0.161332 0.822334 0.738777
C2    C     C_R   0.514794 0.839075 0.178258 0.745952
C3    C     C_R   0.014579 0.661408 0.177763 0.740641
C4    C     C_R   0.985601 0.338630 0.822250 0.746691
O13   O     O_R   0.680230 0.178680 0.657050 -0.553607
O14   O     O_R   0.319770 0.821320 0.342950 -0.547119
O15   O     O_R   0.819770 0.678680 0.342950 -0.552811
O16   O     O_R   0.180230 0.321320 0.657050 -0.548368
C5    C     C_R   0.515768 0.164238 0.631919 0.737099
C6    C     C_R   0.486124 0.836186 0.367256 0.735587
C7    C     C_R   0.984049 0.664384 0.368122 0.743043
C8    C     C_R   0.014023 0.336157 0.632620 0.729805
O17   O     O_3   0.504860 0.294770 0.728200 -0.391226
O18   O     O_3   0.495140 0.705230 0.271800 -0.386093
O19   O     O_3   0.995140 0.794770 0.271800 -0.391136
O20   O     O_3   0.004860 0.205230 0.728200 -0.385761
V1    V     V_3+5 0.779710 0.242290 0.728230 1.357217
V2    V     V_3+5 0.220290 0.757710 0.271770 1.354538
V3    V     V_3+5 0.720290 0.742290 0.271770 1.347548
V4    V     V_3+5 0.279710 0.257710 0.728230 1.374127
C9    C     C_1   0.028166 0.607482 0.123043 -0.185625
C10   C     C_1   0.973589 0.392778 0.876860 -0.181421
C11   C     C_1   0.471265 0.107684 0.877727 -0.179330
C12   C     C_1   0.528992 0.894058 0.124625 -0.195364
C13   C     C_2   0.066007 0.504561 0.025184 0.347293
C14   C     C_2   0.943922 0.496997 0.973563 0.343522
C15   C     C_2   0.440690 0.006823 0.977544 0.312649
C16   C     C_2   0.568534 0.996613 0.026512 0.322109
C17   C     C_1   0.963176 0.439056 0.921434 -0.060402
C18   C     C_1   0.042197 0.561619 0.078155 -0.072061
C19   C     C_1   0.543732 0.940443 0.080272 -0.070394
C20   C     C_1   0.458957 0.062394 0.923509 0.007611
C21   C     C_R   0.005034 0.384134 0.570556 -0.154042
C22   C     C_R   0.981974 0.612837 0.427816 -0.141734
C23   C     C_R   0.495168 0.883983 0.429307 -0.153741
C24   C     C_R   0.517549 0.112588 0.572184 -0.142314
C25   C     C_R   0.976415 0.579397 0.555268 0.028191
C26   C     C_R   0.028370 0.413939 0.442206 0.043053
C27   C     C_R   0.523058 0.079096 0.444710 0.028748
C28   C     C_R   0.473944 0.913246 0.557712 0.041533
C29   C     C_R   0.976715 0.632655 0.501113 -0.002698
C30   C     C_R   0.032136 0.362145 0.498397 0.019068
C31   C     C_R   0.522901 0.132424 0.498737 -0.001625
C32   C     C_R   0.469223 0.861664 0.501321 0.018474
C33   C     C_R   0.980381 0.541770 0.408638 0.334277
C34   C     C_R   0.943879 0.452045 0.585265 0.315037
C35   C     C_R   0.519395 0.041373 0.591398 0.335950
C36   C     C_R   0.555945 0.951968 0.414726 0.316270
C37   C     C_R   0.996834 0.487165 0.460878 -0.083160
C38   C     C_R   0.973032 0.506623 0.534131 -0.075325
C39   C     C_R   0.503725 0.986725 0.539147 -0.083178
C40   C     C_R   0.526861 0.006363 0.465919 -0.076607
O21   O     O_3   0.858920 0.464686 0.651891 -0.600292
C41   C     C_3   0.671165 0.448189 0.651480 0.124472
H1    H     H_    0.621504 0.438855 0.707573 0.148043
H2    H     H_    0.644449 0.399483 0.622191 0.146458
C42   C     C_3   0.560363 0.507574 0.621391 -0.404266
H3    H     H_    0.551246 0.551472 0.659836 0.193473
H4    H     H_    0.623421 0.525922 0.569960 0.209639
C43   C     C_3   0.369399 0.483860 0.607617 -0.815444
H5    H     H_    0.371000 0.439286 0.570100 0.240556
H6    H     H_    0.300366 0.527685 0.582506 0.241724
H7    H     H_    0.295594 0.469081 0.658474 0.239534
O22   O     O_3   0.962948 0.526868 0.336763 -0.598691
C44   C     C_3   0.779573 0.525441 0.315223 0.056221
H8    H     H_    0.770774 0.484010 0.274325 0.129966
H9    H     H_    0.749811 0.573753 0.286171 0.179148
C45   C     C_3   0.629886 0.511274 0.373855 -0.387927
H10   H     H_    0.647345 0.458464 0.396118 0.200313
H11   H     H_    0.637191 0.549592 0.417651 0.202800
C46   C     C_3   0.442369 0.516912 0.344215 -0.792443
H12   H     H_    0.419659 0.570003 0.323082 0.257976
H13   H     H_    0.340684 0.506926 0.388422 0.232937
H14   H     H_    0.426842 0.478176 0.301056 0.220266
O23   O     O_3   0.641724 0.964782 0.348286 -0.599100
C47   C     C_3   0.829199 0.948395 0.349258 0.122736
H15   H     H_    0.880096 0.939673 0.293292 0.155668
H16   H     H_    0.854983 0.899339 0.378058 0.147137
C48   C     C_3   0.939241 0.007352 0.380748 -0.406764
H17   H     H_    0.946833 0.052428 0.343716 0.192976
H18   H     H_    0.876852 0.023982 0.432869 0.210395
C49   C     C_3   0.130748 0.983886 0.393294 -0.822852
H19   H     H_    0.130607 0.938464 0.429740 0.242653
H20   H     H_    0.199502 0.027361 0.419189 0.243575
H21   H     H_    0.203527 0.970403 0.341894 0.239806
O24   O     O_3   0.536908 0.026270 0.663241 -0.598353
C50   C     C_3   0.720577 0.025418 0.684660 0.058359
H22   H     H_    0.729803 0.984461 0.726134 0.122565
H23   H     H_    0.750749 0.074030 0.713089 0.178328
C51   C     C_3   0.869898 0.010877 0.626001 -0.390049
H24   H     H_    0.850667 0.958274 0.603532 0.200019
H25   H     H_    0.863667 0.049417 0.582326 0.201716
C52   C     C_3   0.057806 0.015506 0.655583 -0.786793
H26   H     H_    0.082911 0.068472 0.676629 0.257012
H27   H     H_    0.159090 0.004951 0.611413 0.232016
H28   H     H_    0.071749 0.976609 0.698778 0.223335
O25   O     O_3   0.799446 0.544224 0.973231 -0.587320
C53   C     C_3   0.709586 0.543947 0.908368 0.071292
H29   H     H_    0.631246 0.494717 0.903268 0.135685
H30   H     H_    0.809045 0.549955 0.861976 0.126191
C54   C     C_3   0.577467 0.605119 0.908303 -0.274785
H31   H     H_    0.476588 0.600071 0.954137 0.200433
H32   H     H_    0.654072 0.654517 0.914394 0.194931
C55   C     C_3   0.476840 0.607932 0.839191 -0.862774
H33   H     H_    0.574446 0.613510 0.792449 0.228275
H34   H     H_    0.384284 0.653472 0.840770 0.237340
H35   H     H_    0.395142 0.559816 0.833085 0.236999
O26   O     O_3   0.210379 0.457167 0.026016 -0.584509
C56   C     C_3   0.336831 0.473029 0.078068 0.073552
H36   H     H_    0.269981 0.469765 0.132563 0.128030
H37   H     H_    0.395087 0.526007 0.068737 0.137151
C57   C     C_3   0.492308 0.420377 0.072781 -0.257817
H38   H     H_    0.436592 0.367007 0.081004 0.196625
H39   H     H_    0.560516 0.423066 0.018651 0.206825
C58   C     C_3   0.632279 0.434680 0.128483 -0.848204
H40   H     H_    0.687215 0.488333 0.122386 0.248917
H41   H     H_    0.746752 0.397324 0.121538 0.234600
H42   H     H_    0.568982 0.428359 0.183068 0.216291
O27   O     O_3   0.714305 0.043328 0.026820 -0.586322
C59   C     C_3   0.872952 0.014692 0.054889 0.112033
H43   H     H_    0.991039 0.037507 0.023989 0.188623
H44   H     H_    0.884073 0.957333 0.047715 0.112426
C60   C     C_3   0.888325 0.035165 0.133341 -0.326135
H45   H     H_    0.886444 0.092808 0.138056 0.199678
H46   H     H_    0.771057 0.014088 0.166146 0.203720
C61   C     C_3   0.064584 0.007575 0.162491 -0.806794
H47   H     H_    0.067022 0.949812 0.160341 0.241039
H48   H     H_    0.074254 0.024171 0.218817 0.217446
H49   H     H_    0.184358 0.028491 0.130992 0.246554
O28   O     O_3   0.280676 0.968623 0.982127 -0.593053
C62   C     C_3   0.302596 0.906355 0.942673 0.053024
H50   H     H_    0.443164 0.884561 0.943823 0.103620
H51   H     H_    0.270936 0.916689 0.886357 0.137537
C63   C     C_3   0.169504 0.852101 0.974621 -0.272786
H52   H     H_    0.198933 0.843294 0.031520 0.199505
H53   H     H_    0.028058 0.871824 0.972362 0.184072
C64   C     C_3   0.183203 0.782959 0.934853 -0.860197
H54   H     H_    0.134694 0.789275 0.880166 0.231407
H55   H     H_    0.095726 0.743629 0.963267 0.237840
H56   H     H_    0.325741 0.763745 0.932044 0.234455
C65   C     C_3   0.973481 0.595980 0.637140 -0.297322
C66   C     C_3   0.057221 0.660416 0.672512 -0.404797
C67   C     C_3   0.050616 0.651428 0.753726 -0.770356
H57   H     H_    0.907753 0.644827 0.774579 0.229726
H58   H     H_    0.130721 0.605344 0.768915 0.235958
H59   H     H_    0.106908 0.698208 0.779102 0.222310
H60   H     H_    0.201226 0.667698 0.654065 0.204288
H61   H     H_    0.977936 0.708273 0.663955 0.204842
H62   H     H_    0.830822 0.593441 0.657984 0.197294
H63   H     H_    0.052525 0.554280 0.661687 0.234311
C68   C     C_3   0.049290 0.395005 0.361527 -0.304953
C69   C     C_3   0.138769 0.329452 0.328021 -0.411442
C70   C     C_3   0.156367 0.337029 0.246592 -0.753074
H64   H     H_    0.022668 0.350089 0.224905 0.232691
H65   H     H_    0.256244 0.378408 0.231154 0.223279
H66   H     H_    0.203424 0.287557 0.222000 0.222095
H67   H     H_    0.278185 0.322361 0.347135 0.206686
H68   H     H_    0.053676 0.282573 0.338050 0.205441
H69   H     H_    0.912038 0.398275 0.340035 0.193527
H70   H     H_    0.140528 0.434753 0.337523 0.242007
C71   C     C_3   0.524651 0.095345 0.362770 -0.296986
C72   C     C_3   0.441491 0.159583 0.327083 -0.413555
C73   C     C_3   0.438633 0.148581 0.246169 -0.744641
H71   H     H_    0.576388 0.134539 0.223807 0.231462
H72   H     H_    0.341383 0.106597 0.233620 0.231075
H73   H     H_    0.396472 0.196974 0.219688 0.220717
H74   H     H_    0.299710 0.168556 0.347228 0.202281
H75   H     H_    0.525430 0.206784 0.333801 0.205039
H76   H     H_    0.666985 0.092677 0.341557 0.199311
H77   H     H_    0.445026 0.053457 0.338690 0.235398
C74   C     C_3   0.454987 0.893970 0.638386 -0.302074
C75   C     C_3   0.375980 0.826273 0.671566 -0.398774
C76   C     C_3   0.363048 0.831808 0.752963 -0.788989
H78   H     H_    0.493335 0.850635 0.773656 0.230042
H79   H     H_    0.251656 0.867912 0.770073 0.224231
H80   H     H_    0.334454 0.779825 0.776405 0.224931
H81   H     H_    0.235797 0.816930 0.654091 0.205555
H82   H     H_    0.466091 0.781261 0.660004 0.205810
H83   H     H_    0.592217 0.899293 0.659381 0.194696
H84   H     H_    0.360166 0.932222 0.662960 0.239473
C77   C     C_3   0.043298 0.284713 0.477677 -0.402787
C78   C     C_3   0.050333 0.224646 0.531928 -0.307154
C79   C     C_3   0.049908 0.153853 0.495275 -0.815655
H85   H     H_    0.910983 0.140760 0.479249 0.229130
H86   H     H_    0.142436 0.153123 0.447397 0.230632
H87   H     H_    0.097157 0.113514 0.532274 0.238044
H88   H     H_    0.175890 0.228693 0.560640 0.218141
H89   H     H_    0.934878 0.223761 0.570983 0.215903
H90   H     H_    0.927154 0.273642 0.444187 0.199946
H91   H     H_    0.171583 0.278922 0.446762 0.185835
C80   C     C_3   0.962685 0.708130 0.526587 -0.382819
C81   C     C_3   0.943798 0.771953 0.478187 -0.318230
C82   C     C_3   0.937564 0.838282 0.523765 -0.822591
H92   H     H_    0.849465 0.831485 0.573023 0.225651
H93   H     H_    0.076019 0.852524 0.539591 0.235434
H94   H     H_    0.882124 0.882270 0.493811 0.224135
H95   H     H_    0.058547 0.777468 0.438607 0.203255
H96   H     H_    0.818029 0.768757 0.449559 0.212859
H97   H     H_    0.842418 0.709671 0.564560 0.184667
H98   H     H_    0.087697 0.718251 0.554031 0.196822
C83   C     C_3   0.459113 0.784061 0.521425 -0.407557
C84   C     C_3   0.449405 0.724139 0.467273 -0.308548
C85   C     C_3   0.449132 0.653381 0.504162 -0.815347
H99   H     H_    0.588160 0.640258 0.519918 0.228746
H100  H     H_    0.357227 0.652804 0.552298 0.230500
H101  H     H_    0.400863 0.613006 0.467406 0.238617
H102  H     H_    0.323136 0.728458 0.439116 0.219698
H103  H     H_    0.564288 0.723077 0.427917 0.217684
H104  H     H_    0.577555 0.772970 0.553495 0.200705
H105  H     H_    0.332164 0.777852 0.553081 0.186857
C86   C     C_3   0.537856 0.207924 0.472922 -0.380616
C87   C     C_3   0.556557 0.271681 0.521428 -0.316161
C88   C     C_3   0.564557 0.338222 0.476106 -0.822782
H106  H     H_    0.652478 0.331481 0.426822 0.225778
H107  H     H_    0.426508 0.352972 0.460446 0.234251
H108  H     H_    0.621027 0.381916 0.506272 0.223672
H109  H     H_    0.441241 0.277078 0.560726 0.201865
H110  H     H_    0.681546 0.268431 0.550447 0.212315
H111  H     H_    0.658191 0.209564 0.434954 0.184431
H112  H     H_    0.413633 0.218111 0.445091 0.196343

loop_
_geom_bond_atom_site_label_1
_geom_bond_atom_site_label_2
_ccdc_geom_bond_type
C34   C38   A    
C62   C63   S    
C41   H2    S    
C80   C81   S    
O1    C5    A    
C70   H64   S    
C79   H86   S    
O10   C3    A    
C24   C31   A    
O13   V1    S    
O3    C7    A    
C68   C69   S    
C28   C74   S    
C74   C75   S    
O15   V3    S    
C74   H84   S    
C60   H45   S    
C73   H72   S    
C44   H8    S    
C75   C76   S    
C77   C78   S    
C52   H27   S    
C29   C80   S    
C46   H12   S    
C9    C18   T    
C33   O22   S    
C25   C65   S    
C69   C70   S    
O9    C4    A    
C1    C11   S    
C57   H39   S    
C84   H102  S    
C64   H55   S    
C2    C12   S    
O4    C8    A    
O11   C2    A    
C76   H79   S    
C41   C42   S    
C67   H58   S    
C69   H68   S    
C62   H50   S    
C88   H108  S    
C77   H90   S    
C55   H33   S    
C51   C52   S    
C60   H46   S    
O28   C62   S    
C13   C18   S    
C42   H4    S    
C53   H29   S    
C56   C57   S    
C4    C10   S    
C23   C36   A    
C72   C73   S    
C83   H104  S    
C16   C19   S    
C78   H89   S    
C86   C87   S    
C59   H43   S    
C81   H95   S    
O2    C6    A    
C15   O28   S    
O14   V2    S    
C68   H69   S    
O5    V1    S    
O4    V1    S    
C46   H13   S    
O9    V1    S    
C5    C24   S    
O17   V4    S    
O7    C3    A    
C78   C79   S    
O11   V3    S    
O18   V3    S    
C70   H65   S    
C7    C22   S    
O12   V4    S    
C67   H59   S    
C81   C82   S    
C80   H97   S    
C69   H67   S    
C49   H19   S    
C10   C17   T    
C45   C46   S    
C6    C23   S    
C36   O23   S    
C86   H111  S    
C73   H73   S    
C63   H53   S    
C82   H93   S    
C42   H3    S    
C52   H28   S    
C21   C34   A    
O7    V3    S    
C51   H24   S    
O8    V4    S    
O16   C8    A    
C87   H109  S    
O22   C44   S    
C14   C17   S    
C43   H6    S    
C64   H56   S    
C48   H17   S    
C84   C85   S    
C43   H5    S    
C76   H80   S    
C59   H44   S    
C87   C88   S    
C71   C72   S    
C61   H49   S    
O1    V4    S    
O13   C5    A    
C77   H91   S    
C79   H85   S    
C65   H62   S    
O2    V3    S    
O3    V2    S    
O15   C7    A    
C85   H99   S    
C58   H41   S    
C66   H61   S    
C13   C14   D    
C68   H70   S    
C87   H110  S    
C48   H18   S    
C63   C64   S    
C83   H105  S    
O10   V2    S    
C34   O21   S    
C50   H22   S    
C47   C48   S    
C83   C84   S    
C46   H14   S    
C88   H106  S    
C66   C67   S    
C44   H9    S    
C26   C30   A    
O12   C1    A    
C14   O25   S    
C49   H20   S    
C11   C20   T    
C53   C54   S    
C32   C83   S    
C54   H31   S    
C60   C61   S    
C61   H48   S    
C57   C58   S    
C45   H11   S    
O6    V2    S    
C16   O27   S    
C47   H16   S    
C21   C30   A    
O21   C41   S    
C70   H66   S    
C22   C33   A    
C75   H82   S    
C80   H98   S    
C85   H101  S    
C8    C21   S    
O27   C59   S    
C72   H75   S    
C15   C16   D    
C42   C43   S    
O26   C56   S    
C24   C35   A    
C31   C86   S    
C63   H52   S    
O16   V4    S    
C82   H94   S    
C62   H51   S    
C82   H92   S    
O20   V1    S    
C25   C38   A    
C50   H23   S    
C26   C68   S    
O14   C6    A    
O5    C1    A    
C27   C40   A    
C45   H10   S    
C28   C39   A    
C74   H83   S    
C71   H77   S    
C56   H36   S    
C33   C37   A    
C15   C20   S    
C52   H26   S    
C35   C39   A    
C49   H21   S    
C55   H35   S    
C51   H25   S    
C65   H63   S    
C36   C40   A    
C54   C55   S    
C85   H100  S    
C58   H42   S    
C66   H60   S    
O6    C2    A    
C73   H71   S    
C84   H103  S    
C64   H54   S    
C48   C49   S    
C44   C45   S    
C43   H7    S    
C76   H78   S    
C13   O26   S    
C59   C60   S    
C25   C29   A    
C22   C29   A    
C88   H107  S    
C55   H34   S    
C41   H1    S    
C27   C31   A    
C37   C38   A    
C53   H30   S    
C56   H37   S    
C27   C71   S    
C61   H47   S    
C71   H76   S    
C39   C40   A    
C78   H88   S    
C28   C32   A    
C86   H112  S    
C26   C37   A    
C50   C51   S    
C47   H15   S    
C79   H87   S    
O23   C47   S    
O8    C4    A    
O24   C50   S    
C81   H96   S    
C67   H57   S    
C30   C77   S    
C35   O24   S    
C75   H81   S    
C23   C32   A    
C12   C19   T    
C54   H32   S    
C65   C66   S    
O25   C53   S    
C72   H74   S    
C3    C9    S    
C58   H40   S    
C57   H38   S    
O19   V2    S    
