data_mof_unit_59904.cif
_audit_creation_date              2013-03-05T15:40:11-0500
_audit_creation_method            fapswitch 2.2
_symmetry_space_group_name_H-M    P1
_symmetry_Int_Tables_number       1
_space_group_crystal_system       triclinic
_cell_length_a                    7.868435
_cell_length_b                    8.570827
_cell_length_c                    10.433737
_cell_angle_alpha                 90.03708
_cell_angle_beta                  98.369412
_cell_angle_gamma                 92.07623
_cell_volume                      695.677604955

loop_
_atom_site_label
_atom_site_type_symbol
_atom_site_description
_atom_site_fract_x
_atom_site_fract_y
_atom_site_fract_z
_atom_type_partial_charge
O1    O     O_R   0.391630 0.738350 0.508060 -0.580199
O2    O     O_R   0.608370 0.261650 0.491940 -0.594022
O3    O     O_R   0.674540 0.711990 0.487010 -0.569978
O4    O     O_R   0.325460 0.288010 0.512990 -0.583087
C1    C     C_R   0.541817 0.793969 0.495714 0.948710
C2    C     C_R   0.458207 0.206013 0.504323 0.899532
O5    O     O_R   0.411370 0.508250 0.688780 -0.589475
O6    O     O_R   0.588630 0.491750 0.311220 -0.590905
O7    O     O_R   0.694270 0.481880 0.667740 -0.574723
O8    O     O_R   0.305730 0.518120 0.332260 -0.561214
C3    C     C_R   0.570631 0.490240 0.737905 0.830375
C4    C     C_R   0.427958 0.500952 0.261973 0.828978
Zn1   Zn    Zn3+2 0.311100 0.517600 0.514050 1.142028
Zn2   Zn    Zn3+2 0.688900 0.482400 0.485950 1.136387
H1    H     H_    0.576983 0.308895 0.127199 0.225555
H2    H     H_    0.383420 0.315352 0.867764 0.214744
C5    C     C_2   0.605518 0.464682 0.877059 0.134985
C6    C     C_2   0.385308 0.477271 0.122315 0.136865
C7    C     C_2   0.489207 0.375372 0.929316 -0.173971
C8    C     C_2   0.481779 0.376593 0.067490 -0.166691
C9    C     C_2   0.548787 0.953811 0.469780 0.021033
C10   C     C_2   0.451383 0.046181 0.530377 0.019110
N1    N     N_2   0.940600 0.458860 0.467170 0.084157
N2    N     N_2   0.059400 0.541140 0.532830 0.085032
N3    N     N_R   0.251759 0.565121 0.048813 0.253062
O9    O     O_R   0.198587 0.690540 0.098422 -0.275240
O10   O     O_R   0.172238 0.513725 0.937944 -0.295321
N4    N     N_R   0.748828 0.545946 0.953846 0.245991
O11   O     O_R   0.809811 0.676764 0.912857 -0.270639
O12   O     O_R   0.824758 0.486552 0.060886 -0.294930
Br1   Br    Br    0.652916 0.010760 0.318413 -0.358300
Br2   Br    Br    0.347942 0.989196 0.682062 -0.361281
Br3   Br    Br    0.995883 0.320053 0.341668 -0.215197
Br4   Br    Br    0.004202 0.682598 0.656125 -0.151372

loop_
_geom_bond_atom_site_label_1
_geom_bond_atom_site_label_2
_geom_bond_distance
_ccdc_geom_bond_type
Zn2   N1    2.035509 S    
O7    Zn2   1.891072 S    
O3    Zn2   1.975215 S    
N3    O10   1.300907 A    
C9    Br1   1.937149 S    
C10   Br2   1.937249 S    
C7    C8    1.451377 S    
O6    C4    1.298732 A    
N1    N2    1.267136 D    
N4    O12   1.300740 A    
C9    C10   1.341006 D    
O5    C3    1.297701 A    
O7    C3    1.303774 A    
O2    C2    1.282123 A    
C6    N3    1.443180 S    
O8    C4    1.303785 A    
H2    C7    1.087590 S    
O1    C1    1.282151 A    
N4    O11   1.300636 A    
C5    C7    1.347523 D    
C6    C8    1.349530 D    
H1    C8    1.087218 S    
O2    Zn2   1.977354 S    
O1    Zn1   1.977355 S    
C2    C10   1.397416 S    
O5    Zn1   1.881114 S    
C1    C9    1.397288 S    
O4    C2    1.293711 A    
C4    C6    1.459259 S    
O4    Zn1   1.975216 S    
C3    C5    1.456047 S    
O6    Zn2   1.881113 S    
N1    Br3   1.876316 S    
N3    O9    1.301296 A    
C5    N4    1.441497 S    
N2    Br4   1.874103 S    
Zn1   N2    2.035507 S    
O3    C1    1.293537 A    
O8    Zn1   1.891074 S    
