data_mof_unit_32939.cif
_audit_creation_date              2013-03-05T16:11:14-0500
_audit_creation_method            fapswitch 2.2
_symmetry_space_group_name_H-M    P1
_symmetry_Int_Tables_number       1
_space_group_crystal_system       triclinic
_cell_length_a                    6.953719
_cell_length_b                    20.528992
_cell_length_c                    24.4771
_cell_angle_alpha                 90.169896
_cell_angle_beta                  90.426783
_cell_angle_gamma                 89.452567
_cell_volume                      3493.90452913

loop_
_atom_site_label
_atom_site_type_symbol
_atom_site_description
_atom_site_fract_x
_atom_site_fract_y
_atom_site_fract_z
_atom_type_partial_charge
O1    O     O_R   0.507280 0.423750 0.460310 -0.592256
O2    O     O_R   0.171030 0.555650 0.437630 -0.591769
O3    O     O_R   0.004080 0.576250 0.539690 -0.590709
C1    C     C_R   0.339074 0.575696 0.421795 0.973533
O4    O     O_R   0.177330 0.422980 0.453960 -0.593286
O5    O     O_R   0.010420 0.442640 0.556140 -0.590754
C2    C     C_R   0.346394 0.398881 0.443692 0.918783
O6    O     O_R   0.500930 0.557360 0.443860 -0.592016
O7    O     O_3   0.340310 0.506600 0.533500 -0.260942
V1    V     V_3+5 0.064140 0.498780 0.493780 1.175551
O8    O     O_R   0.680890 0.444350 0.562370 -0.586530
C3    C     C_R   0.850621 0.424477 0.578170 0.996741
O9    O     O_R   0.674590 0.577020 0.546040 -0.578874
C4    C     C_R   0.842483 0.600757 0.557245 0.955842
V2    V     V_3+5 0.564550 0.501220 0.506220 1.189827
O10   O     O_3   0.838250 0.493400 0.466500 -0.278454
C5    C     C_R   0.973150 0.837707 0.911088 -0.125206
C6    C     C_R   0.842595 0.661341 0.590236 -0.151469
C7    C     C_R   0.008357 0.720570 0.909190 -0.119469
C8    C     C_R   0.016763 0.779374 0.937485 -0.176392
C9    C     C_R   0.922401 0.836593 0.855334 -0.090218
C10   C     C_R   0.900119 0.776695 0.826196 0.109045
C11   C     C_R   0.951311 0.718271 0.853731 0.127905
C12   C     C_R   0.836253 0.773289 0.770248 -0.124571
C13   C     C_R   0.859649 0.713441 0.740156 -0.126291
C14   C     C_R   0.890997 0.655040 0.770478 0.328134
C15   C     C_R   0.940000 0.657997 0.826502 -0.150895
C16   C     C_R   0.742138 0.826531 0.743645 0.362679
C17   C     C_R   0.714986 0.825415 0.687153 -0.309644
C18   C     C_R   0.764601 0.771085 0.655947 0.111911
C19   C     C_R   0.838353 0.714047 0.681372 0.146269
C20   C     C_R   0.729920 0.772574 0.599375 -0.119992
C21   C     C_R   0.763373 0.717711 0.567249 -0.154656
C22   C     C_R   0.889169 0.660736 0.646410 -0.140430
H1    H     H_    0.962889 0.618051 0.661543 0.162526
H2    H     H_    0.724360 0.718870 0.524314 0.118342
H3    H     H_    0.644739 0.866668 0.667573 0.181862
H4    H     H_    0.046087 0.676686 0.931396 0.129866
H5    H     H_    0.058183 0.779355 0.980254 0.112346
H6    H     H_    0.907276 0.883079 0.835256 0.136030
H7    H     H_    0.669467 0.815723 0.580154 0.132680
H8    H     H_    0.634252 0.228470 0.807889 0.129138
C23   C     C_R   0.743779 0.282099 0.739618 -0.168812
H9    H     H_    0.607660 0.306760 0.732313 0.147688
C24   C     C_R   0.902219 0.294935 0.706169 0.138697
C25   C     C_R   0.079204 0.262022 0.716809 0.030177
C26   C     C_R   0.092228 0.217480 0.760443 -0.181823
H10   H     H_    0.227747 0.192666 0.768527 0.134093
C27   C     C_R   0.933080 0.204880 0.793523 0.153644
C28   C     C_R   0.758862 0.237475 0.782796 -0.170000
C29   C     C_1   0.879396 0.341180 0.661333 -0.003750
C30   C     C_1   0.948901 0.158842 0.838548 0.003904
C31   C     C_1   0.961262 0.120643 0.876317 -0.267136
C32   C     C_1   0.863755 0.379391 0.623659 -0.254726
H11   H     H_    0.699009 0.702397 0.296324 0.120464
C33   C     C_R   0.596689 0.767582 0.233431 -0.162191
H12   H     H_    0.740577 0.780323 0.220914 0.118985
C34   C     C_R   0.436023 0.795287 0.206842 0.180096
C35   C     C_R   0.251227 0.777658 0.224049 -0.161978
H13   H     H_    0.125125 0.798315 0.204159 0.121328
C36   C     C_R   0.227442 0.733142 0.267064 -0.167476
H14   H     H_    0.083553 0.720387 0.279568 0.118561
C37   C     C_R   0.388110 0.705415 0.293637 0.179003
C38   C     C_R   0.572905 0.723068 0.276446 -0.169052
C39   C     C_1   0.459762 0.841241 0.161897 -0.014211
C40   C     C_1   0.364382 0.659329 0.338491 -0.022508
C41   C     C_1   0.349019 0.621054 0.376190 -0.289725
C42   C     C_1   0.475158 0.879363 0.124094 -0.283964
C43   C     C_R   0.473503 0.160783 0.090219 -0.146497
C44   C     C_R   0.355662 0.337779 0.412365 -0.093030
C45   C     C_R   0.549180 0.274930 0.098026 -0.180093
C46   C     C_R   0.543658 0.217954 0.067471 -0.174847
C47   C     C_R   0.413685 0.160082 0.145463 -0.068054
C48   C     C_R   0.444044 0.216203 0.179525 0.126067
C49   C     C_R   0.499432 0.274733 0.153371 0.160480
C50   C     C_R   0.421848 0.217306 0.238039 0.013201
C51   C     C_R   0.421018 0.278062 0.266996 0.064676
C52   C     C_R   0.462111 0.335238 0.237588 -0.180315
C53   C     C_R   0.506073 0.333081 0.182479 -0.229516
C54   C     C_R   0.417074 0.159618 0.268960 -0.289590
C55   C     C_R   0.387547 0.159911 0.325243 0.315549
C56   C     C_R   0.373803 0.219512 0.353709 -0.018156
C57   C     C_R   0.389859 0.279379 0.324888 0.088402
C58   C     C_R   0.354116 0.220303 0.411048 -0.069867
C59   C     C_R   0.344972 0.278708 0.439841 -0.187709
C60   C     C_R   0.376586 0.338357 0.355472 -0.204373
H15   H     H_    0.545076 0.377956 0.162280 0.132314
H16   H     H_    0.379696 0.385622 0.336531 0.090045
H17   H     H_    0.330436 0.277804 0.483885 0.111522
H18   H     H_    0.596668 0.319242 0.078518 0.123804
H19   H     H_    0.590088 0.218786 0.025311 0.118749
H20   H     H_    0.471870 0.382489 0.256500 0.127470
H21   H     H_    0.445304 0.112813 0.250764 0.190824
H22   H     H_    0.349521 0.175844 0.434518 0.169693
O11   O     O_R   0.323320 0.942780 0.056240 -0.592698
O12   O     O_R   0.647300 0.077050 0.046060 -0.593395
O13   O     O_R   0.813840 0.057330 0.943840 -0.586605
C61   C     C_R   0.478520 0.101073 0.056625 0.923708
O14   O     O_R   0.653250 0.944380 0.062400 -0.590847
O15   O     O_R   0.819830 0.923720 0.960300 -0.578254
C62   C     C_R   0.485159 0.924510 0.078349 0.972149
O16   O     O_R   0.317330 0.076390 0.039790 -0.601735
O17   O     O_3   0.483830 0.993470 0.966560 -0.251601
V3    V     V_3+5 0.760140 0.001210 0.006210 1.182033
O18   O     O_R   0.149290 0.922840 0.953850 -0.578564
C63   C     C_R   0.980811 0.899304 0.942549 0.939438
O19   O     O_R   0.143340 0.055500 0.937510 -0.587731
C64   C     C_R   0.973668 0.075501 0.921799 0.983623
V4    V     V_3+5 0.259690 0.998600 0.993650 1.191061
O20   O     O_3   0.986130 0.006520 0.033440 -0.282511
N1    N     N_3   0.972527 0.599104 0.856931 -0.214825
H23   H     H_    0.851085 0.569679 0.853596 0.161389
H24   H     H_    0.091261 0.574510 0.840617 0.176351
N2    N     N_3   0.248461 0.272568 0.684734 -0.218049
H25   H     H_    0.228387 0.309912 0.656380 0.120910
H26   H     H_    0.275496 0.229927 0.662519 0.118114
N3    N     N_R   0.372308 0.098506 0.352835 0.235968
O21   O     O_R   0.218165 0.085406 0.380387 -0.379940
O22   O     O_R   0.493555 0.051621 0.342039 -0.367418
N4    N     N_3   0.308687 0.105051 0.164835 -0.208095
H27   H     H_    0.393620 0.063128 0.160047 0.092881
H28   H     H_    0.184468 0.100029 0.140929 0.142640
N5    N     N_R   0.839272 0.592843 0.747962 0.215058
O23   O     O_R   0.961320 0.544384 0.748260 -0.424443
O24   O     O_R   0.666579 0.583975 0.728649 -0.395210
N6    N     N_R   0.643957 0.876968 0.773609 0.223331
O25   O     O_R   0.532822 0.861710 0.814087 -0.400415
O26   O     O_R   0.640058 0.936409 0.755255 -0.400545

loop_
_geom_bond_atom_site_label_1
_geom_bond_atom_site_label_2
_geom_bond_distance
_ccdc_geom_bond_type
C13   C19   1.445440 A    
C18   C20   1.404154 A    
N6    O25   1.301870 A    
N3    O21   1.301293 A    
C47   C48   1.436436 A    
C4    C6    1.480887 S    
O2    C1    1.304572 A    
C7    C8    1.391454 A    
C1    O6    1.297756 A    
C21   H2    1.083700 S    
C2    C44   1.469368 S    
C53   H15   1.084495 S    
N2    H25   1.043353 S    
N5    O23   1.301452 A    
C26   C27   1.402615 A    
C51   C52   1.411377 A    
N4    H27   1.045927 S    
C45   H18   1.084067 S    
C14   C15   1.411826 A    
C48   C50   1.441776 A    
C16   C17   1.394349 A    
N3    O22   1.301306 A    
O5    C3    1.297149 A    
C18   C19   1.417562 A    
C60   H16   1.077079 S    
N5    O24   1.301487 A    
C24   C29   1.460003 S    
V2    O10   2.148044 S    
C55   N3    1.437058 S    
O15   V3    1.987318 S    
C5    C8    1.392198 A    
C33   H12   1.083245 S    
C22   H1    1.076264 S    
C36   C37   1.405174 A    
O13   C64   1.297487 A    
O8    V2    1.970112 S    
N1    H23   1.045521 S    
C16   N6    1.437202 S    
O12   C61   1.296242 A    
O19   C64   1.301322 A    
C33   C38   1.407914 A    
C43   C47   1.417853 A    
O1    V2    1.986338 S    
C11   C15   1.406285 A    
O7    V1    2.153166 S    
C43   C61   1.474311 S    
C39   C42   1.219645 T    
O14   V3    1.961255 S    
C37   C40   1.462713 S    
C15   N1    1.437106 S    
C35   H13   1.083294 S    
C47   N4    1.434689 S    
C9    C10   1.428828 A    
O19   V4    1.970332 S    
N4    H28   1.045444 S    
C55   C56   1.409032 A    
C50   C51   1.432729 A    
C35   C36   1.407926 A    
C48   C49   1.420901 A    
C25   N2    1.438091 S    
C50   C54   1.408162 A    
C12   C13   1.439133 A    
O11   V4    1.961286 S    
O4    C2    1.297137 A    
C46   H19   1.083825 S    
C59   H17   1.083773 S    
C52   C53   1.385817 A    
C52   H20   1.076091 S    
C34   C35   1.406228 A    
C61   O16   1.298327 A    
C5    C9    1.407200 A    
C43   C46   1.394397 A    
C7    C11   1.412185 A    
C23   H9    1.083081 S    
C17   C18   1.392112 A    
C7    H4    1.082658 S    
C23   C24   1.404946 A    
C34   C39   1.462651 S    
C26   H10   1.084130 S    
C20   H7    1.084042 S    
C27   C30   1.456807 S    
H11   C38   1.083292 S    
C19   C22   1.430566 A    
N1    H24   1.044899 S    
C58   H22   1.080758 S    
C58   C59   1.390161 A    
C6    C22   1.410311 A    
O3    C4    1.302138 A    
H8    C28   1.083465 S    
O14   C62   1.304553 A    
C56   C57   1.424618 A    
O6    V2    1.960731 S    
C56   C58   1.411201 A    
O12   V3    1.992527 S    
C10   C12   1.438202 A    
C14   N5    1.437037 S    
C17   H3    1.084683 S    
O2    V1    1.961060 S    
C30   C31   1.216071 T    
V3    O20   1.706717 S    
C8    H5    1.083692 S    
O18   V4    1.989964 S    
C25   C26   1.409908 A    
N6    O26   1.301541 A    
O1    C2    1.296385 A    
C12   C16   1.425210 A    
C54   C55   1.394353 A    
O5    V1    1.955713 S    
C1    C41   1.458257 S    
N2    H26   1.045391 S    
O8    C3    1.301529 A    
C23   C28   1.403358 A    
O18   C63   1.299118 A    
O15   C63   1.299365 A    
C42   C62   1.458115 S    
O17   V4    1.700550 S    
C29   C32   1.216023 T    
C20   C21   1.390474 A    
O9    V2    1.989874 S    
C13   C14   1.426047 A    
O4    V1    1.992479 S    
O3    V1    1.987520 S    
V1    O10   1.706651 S    
C5    C63   1.479796 S    
C45   C49   1.400682 A    
C31   C64   1.452161 S    
C9    H6    1.078590 S    
C33   C34   1.405151 A    
C40   C41   1.219703 T    
O7    V2    1.703314 S    
C36   H14   1.083242 S    
C6    C21   1.395095 A    
O13   V3    1.955635 S    
C37   C38   1.406239 A    
C24   C25   1.421040 A    
C45   C46   1.387140 A    
C57   C60   1.424224 A    
C27   C28   1.401842 A    
V4    O20   2.148104 S    
O17   V3    2.153136 S    
C51   C57   1.435231 A    
C10   C11   1.418645 A    
O16   V4    1.995290 S    
C54   H21   1.074856 S    
O9    C4    1.296531 A    
C44   C59   1.391306 A    
C49   C53   1.392869 A    
C3    C32   1.451795 S    
O11   C62   1.297723 A    
C44   C60   1.401309 A    
