data_mof_unit_64318.cif
_audit_creation_date              2012-12-10T21:03:39-0500
_audit_creation_method            fapswitch 2.2
_symmetry_space_group_name_H-M    P1
_symmetry_Int_Tables_number       1
_space_group_crystal_system       triclinic
_cell_length_a                    15.756566
_cell_length_b                    15.058404
_cell_length_c                    23.457164
_cell_angle_alpha                 89.993443
_cell_angle_beta                  89.985577
_cell_angle_gamma                 89.999894
_cell_volume                      5565.6514509

loop_
_atom_site_label
_atom_site_type_symbol
_atom_type_description
_atom_site_fract_x
_atom_site_fract_y
_atom_site_fract_z
_atom_type_partial_charge
C1    C     C_R   0.338479 0.500000 0.499863 0.912209
C2    C     C_R   0.661521 0.500000 0.499807 0.911466
C3    C     C_R   0.501565 0.580848 0.237662 0.332219
C4    C     C_R   0.498828 0.580774 0.762348 0.332520
C5    C     C_R   0.501107 0.580722 0.296902 -0.229009
C6    C     C_R   0.499284 0.580672 0.703108 -0.225698
C7    C     C_R   0.500324 0.500006 0.326840 -0.098784
C8    C     C_R   0.499674 0.499967 0.673166 -0.098863
C9    C     C_R   0.500002 0.419295 0.296964 -0.187647
C10   C     C_R   0.499598 0.419242 0.703042 -0.184412
C11   C     C_R   0.500443 0.419372 0.237835 -0.135231
C12   C     C_R   0.499153 0.419295 0.762171 -0.134170
C13   C     C_R   0.501219 0.499840 0.208271 0.236647
C14   C     C_R   0.498776 0.499752 0.791738 0.235895
C15   C     C_R   0.955886 0.581663 0.466943 0.433946
C16   C     C_R   0.044150 0.418274 0.467101 0.432957
C17   C     C_R   0.044148 0.581665 0.466963 0.433924
C18   C     C_R   0.955888 0.418272 0.467085 0.432997
C19   C     C_R   0.912037 0.499973 0.469849 -0.299430
C20   C     C_R   0.087994 0.499975 0.469886 -0.300003
C21   C     C_1   0.823714 0.499992 0.481535 0.014407
C22   C     C_1   0.176301 0.499994 0.481592 0.014286
C23   C     C_1   0.250325 0.500001 0.491265 -0.152165
C24   C     C_1   0.749681 0.500000 0.491201 -0.152071
C25   C     C_R   0.500017 0.500005 0.389002 0.897373
C26   C     C_R   0.499982 0.499994 0.611000 0.902044
C27   C     C_R   0.450804 0.953110 0.460549 -0.131887
C28   C     C_R   0.549202 0.046886 0.539436 -0.135608
C29   C     C_R   0.549201 0.953094 0.539436 -0.131677
C30   C     C_R   0.450803 0.046902 0.460550 -0.135824
C31   C     C_R   0.500002 0.905045 0.499993 0.063036
C32   C     C_R   0.500002 0.094953 0.499993 0.064914
C33   C     C_1   0.500000 0.807196 0.499996 0.082782
C34   C     C_1   0.500001 0.192803 0.499997 0.073588
C35   C     C_R   0.574312 0.497797 0.880215 0.577677
C36   C     C_R   0.425679 0.498093 0.119795 0.577455
C37   C     C_R   0.422605 0.498014 0.880332 0.585719
C38   C     C_R   0.577386 0.497910 0.119678 0.585817
C39   C     C_R   0.420392 0.497510 0.940356 -0.098432
C40   C     C_R   0.579597 0.497359 0.059654 -0.098245
C41   C     C_R   0.499070 0.497357 0.969962 -0.047865
C42   C     C_R   0.500920 0.497383 0.030048 -0.047966
C43   C     C_R   0.576174 0.497293 0.939585 -0.059118
C44   C     C_R   0.423815 0.497548 0.060425 -0.058784
C45   C     C_R   0.343618 0.497369 0.972017 0.315082
C46   C     C_R   0.656371 0.496993 0.027994 0.315155
C47   C     C_R   0.346417 0.497392 0.031254 -0.163603
C48   C     C_R   0.653572 0.496966 0.968756 -0.163166
H1    H     H_    0.287038 0.497430 0.054565 0.223653
H2    H     H_    0.712951 0.496830 0.945445 0.223912
H3    H     H_    0.501396 0.643588 0.319331 0.192776
H4    H     H_    0.499311 0.643549 0.680681 0.193141
H5    H     H_    0.499405 0.356247 0.319183 0.178363
H6    H     H_    0.499877 0.356202 0.680820 0.178833
H7    H     H_    0.500154 0.357025 0.214828 0.161740
H8    H     H_    0.499130 0.356936 0.785177 0.161860
H9    H     H_    0.412255 0.081953 0.429646 0.150027
H10   H     H_    0.587746 0.918044 0.570342 0.153640
H11   H     H_    0.587749 0.081923 0.570341 0.150534
H12   H     H_    0.412257 0.918071 0.429643 0.153155
N1    N     N_R   0.498548 0.498551 0.852342 -0.356697
N2    N     N_R   0.501444 0.498659 0.147667 -0.356522
N3    N     N_1   0.500000 0.270550 0.500000 -0.084294
N4    N     N_1   0.500000 0.729450 0.500000 -0.082128
O1    O     O_R   0.378020 0.573650 0.500020 -0.603716
O2    O     O_R   0.621980 0.426350 0.499980 -0.605264
O3    O     O_R   0.621980 0.573650 0.499980 -0.603747
O4    O     O_R   0.378020 0.426350 0.500020 -0.605316
O5    O     O_R   0.499980 0.573680 0.416160 -0.615882
O6    O     O_R   0.500020 0.426320 0.583840 -0.616547
O7    O     O_R   0.500020 0.573680 0.583840 -0.614215
O8    O     O_R   0.499980 0.426320 0.416160 -0.618155
O9    O     O_2   0.647509 0.497812 0.850252 -0.517740
O10   O     O_2   0.352482 0.498327 0.149758 -0.519369
O11   O     O_2   0.350442 0.498222 0.849561 -0.466342
O12   O     O_2   0.649549 0.497941 0.150449 -0.467787
Zn1   Zn    Zn3+2 0.500000 0.598370 0.500000 1.008415
Zn2   Zn    Zn3+2 0.500000 0.401630 0.500000 1.001398
Br1   Br    Br    0.231185 0.497307 0.939749 -0.307690
Br2   Br    Br    0.768804 0.496680 0.060262 -0.309121
Br3   Br    Br    0.502603 0.692004 0.197889 -0.401661
Br4   Br    Br    0.498317 0.691917 0.802126 -0.400040
O13   O     O_3   0.084673 0.663243 0.466214 -0.662268
H13   H     H_    0.145809 0.655381 0.458072 0.344643
O14   O     O_3   0.915365 0.336692 0.466461 -0.663811
H14   H     H_    0.854245 0.344522 0.458273 0.344602
O15   O     O_3   0.915359 0.663240 0.466177 -0.661863
H15   H     H_    0.854240 0.655374 0.458000 0.345598
O16   O     O_3   0.084677 0.336694 0.466490 -0.664204
H16   H     H_    0.145809 0.344525 0.458321 0.343638

loop_
_geom_bond_atom_site_label_1
_geom_bond_atom_site_label_2
_ccdc_geom_bond_type
C30   C32   A    
O15   H15   S    
O6    Zn2   S    
C8    C26   S    
N4    Zn1   S    
O5    Zn1   S    
O3    Zn1   S    
C17   C20   A    
C39   C41   A    
C38   O12   S    
O14   H14   S    
C40   C46   A    
C28   C29   A    
C19   C21   S    
C27   H12   S    
C30   H9    S    
C1    O4    A    
C7    C9    A    
C18   C19   A    
C41   C42   A    
O8    Zn2   S    
C35   O9    S    
C13   N2    S    
C3    Br3   S    
C1    O1    A    
C31   C33   S    
C35   C43   A    
C43   C48   A    
C3    C13   A    
C44   C47   A    
C39   C45   A    
C40   C42   A    
C37   O11   S    
C16   O16   S    
C27   C30   A    
C26   O7    A    
C41   C43   A    
C42   C44   A    
C36   N2    A    
C45   C47   A    
O4    Zn2   S    
O2    Zn2   S    
C46   C48   A    
C18   O14   S    
O1    Zn1   S    
C27   C31   A    
C28   C32   A    
C47   H1    S    
C2    O3    A    
C5    C7    A    
C6    C8    A    
C3    C5    A    
C14   N1    S    
C17   O13   S    
C32   C34   S    
C15   C19   A    
O13   H13   S    
C16   C20   A    
C4    Br4   S    
C45   Br1   S    
C25   O8    A    
C9    C11   A    
C12   H8    S    
C10   C12   A    
C4    C6    A    
C20   C22   S    
C1    C23   S    
C2    C24   S    
C26   O6    A    
C36   C44   A    
C9    H5    S    
O7    Zn1   S    
C11   H7    S    
C15   O15   S    
C28   H11   S    
C15   C17   A    
C36   O10   S    
C16   C18   A    
C12   C14   A    
C2    O2    A    
C37   N1    A    
C7    C25   S    
C29   C31   A    
C38   C40   A    
C11   C13   A    
C35   N1    A    
C33   N4    T    
C48   H2    S    
C34   N3    T    
C4    C14   A    
C10   H6    S    
C37   C39   A    
C25   O5    A    
C29   H10   S    
C8    C10   A    
C21   C24   T    
C22   C23   T    
C5    H3    S    
C46   Br2   S    
C6    H4    S    
O16   H16   S    
C38   N2    A    
N3    Zn2   S    
