data_mof_unit_53377.cif
_audit_creation_date              2013-03-05T16:10:27-0500
_audit_creation_method            fapswitch 2.2
_symmetry_space_group_name_H-M    P1
_symmetry_Int_Tables_number       1
_space_group_crystal_system       triclinic
_cell_length_a                    10.80648
_cell_length_b                    9.910197
_cell_length_c                    14.908301
_cell_angle_alpha                 90.711458
_cell_angle_beta                  91.811082
_cell_angle_gamma                 91.876487
_cell_volume                      1594.79681257

loop_
_atom_site_label
_atom_site_type_symbol
_atom_site_description
_atom_site_fract_x
_atom_site_fract_y
_atom_site_fract_z
_atom_type_partial_charge
O1    O     O_R   0.316770 0.614620 0.499990 -0.589691
O2    O     O_R   0.683230 0.385380 0.500010 -0.589718
O3    O     O_R   0.683230 0.614620 0.500010 -0.591538
O4    O     O_R   0.316770 0.385380 0.499990 -0.591567
C1    C     C_R   0.260171 0.497674 0.502577 0.958722
C2    C     C_R   0.739835 0.502328 0.497450 0.958699
O5    O     O_R   0.499980 0.614680 0.367850 -0.633653
O6    O     O_R   0.500020 0.385320 0.632150 -0.633671
O7    O     O_R   0.500020 0.614680 0.632150 -0.608810
O8    O     O_R   0.499980 0.385320 0.367850 -0.608790
C3    C     C_R   0.498559 0.499243 0.327330 0.895553
C4    C     C_R   0.501447 0.500758 0.672669 0.895473
Zn1   Zn    Zn3+2 0.500000 0.653120 0.500000 1.038757
Zn2   Zn    Zn3+2 0.500000 0.346880 0.500000 1.038727
C5    C     C_R   0.618209 0.505405 0.816486 -0.077247
C6    C     C_R   0.381804 0.494648 0.183511 -0.077305
C7    C     C_R   0.504754 0.502331 0.768060 -0.088739
C8    C     C_R   0.495257 0.497673 0.231938 -0.088791
C9    C     C_R   0.391824 0.498367 0.809859 -0.210535
C10   C     C_R   0.608189 0.501600 0.190138 -0.210519
C11   C     C_R   0.389155 0.497641 0.902350 0.110294
C12   C     C_R   0.610859 0.502337 0.097647 0.110284
C13   C     C_R   0.501638 0.500656 0.953184 0.052922
C14   C     C_R   0.498377 0.499334 0.046813 0.052936
C15   C     C_R   0.617171 0.504714 0.910421 0.077224
C16   C     C_R   0.382843 0.495302 0.089575 0.077230
C17   C     C_R   0.275489 0.493545 0.944408 -0.173151
C18   C     C_R   0.724526 0.506438 0.055588 -0.173146
C19   C     C_R   0.272095 0.492417 0.037260 -0.182953
C20   C     C_R   0.727920 0.507594 0.962736 -0.182959
H1    H     H_    0.306007 0.495017 0.769881 0.178953
H2    H     H_    0.694005 0.504931 0.230117 0.178995
H3    H     H_    0.189039 0.491216 0.905392 0.167268
H4    H     H_    0.810976 0.508759 0.094604 0.167282
H5    H     H_    0.182295 0.489249 0.067494 0.165542
H6    H     H_    0.817720 0.510771 0.932501 0.165539
C21   C     C_R   0.057397 0.383430 0.468651 0.213333
C22   C     C_R   0.942611 0.616623 0.531338 0.213230
C23   C     C_R   0.930294 0.392347 0.458762 0.214676
C24   C     C_R   0.069712 0.607677 0.541286 0.214720
C25   C     C_R   0.872588 0.506630 0.492909 -0.370914
C26   C     C_R   0.127419 0.493392 0.507123 -0.370984
C27   C     C_R   0.566193 0.075770 0.564121 0.015825
C28   C     C_R   0.433805 0.924232 0.435880 0.015853
C29   C     C_R   0.436371 0.067983 0.434489 0.024271
C30   C     C_R   0.563627 0.932019 0.565509 0.024295
N1    N     N_R   0.500000 0.857200 0.500000 -0.125393
N2    N     N_R   0.500000 0.142800 0.500000 -0.125411
C31   C     C_1   0.733872 0.507832 0.769412 0.195186
N3    N     N_1   0.826143 0.509370 0.732050 -0.157061
C32   C     C_1   0.266139 0.492348 0.230583 0.195314
N4    N     N_1   0.173867 0.490927 0.267941 -0.156900
N5    N     N_R   0.113779 0.263310 0.437265 0.239885
O9    O     O_R   0.152785 0.176487 0.495627 -0.312120
O10   O     O_R   0.094282 0.223902 0.354302 -0.336071
N6    N     N_R   0.886237 0.736837 0.562568 0.239829
O11   O     O_R   0.847197 0.823476 0.504064 -0.312101
O12   O     O_R   0.905818 0.776542 0.645482 -0.335946
N7    N     N_R   0.860283 0.285165 0.412623 0.263247
O13   O     O_R   0.795785 0.310036 0.339884 -0.390114
O14   O     O_R   0.860439 0.162901 0.443512 -0.278231
N8    N     N_R   0.139728 0.714866 0.587422 0.263299
O15   O     O_R   0.204211 0.690013 0.660177 -0.390155
O16   O     O_R   0.139754 0.837083 0.556435 -0.278335
C33   C     C_1   0.643279 0.151655 0.628827 0.299817
N9    N     N_1   0.706174 0.210915 0.680899 -0.174974
C34   C     C_1   0.356706 0.848349 0.371180 0.299883
N10   N     N_1   0.293797 0.789098 0.319115 -0.174935
C35   C     C_1   0.378301 0.134454 0.359593 0.327321
N11   N     N_1   0.332932 0.185117 0.297858 -0.137542
C36   C     C_1   0.621711 0.865546 0.640393 0.327236
N12   N     N_1   0.667099 0.814874 0.702120 -0.137650

loop_
_geom_bond_atom_site_label_1
_geom_bond_atom_site_label_2
_geom_bond_distance
_ccdc_geom_bond_type
C4    C7    1.421309 S    
C22   C24   1.382681 A    
C13   C14   1.397617 A    
C28   N1    1.367642 A    
C3    C8    1.421326 S    
N8    O15   1.301078 A    
O6    C4    1.286471 A    
C17   C19   1.386082 A    
C22   N6    1.434881 S    
N7    O13   1.301020 A    
C27   N2    1.367629 A    
C19   H5    1.082526 S    
O7    Zn1   2.011256 S    
N8    O16   1.301648 A    
O3    Zn1   2.028722 S    
C6    C32   1.452334 S    
C20   H6    1.082530 S    
C27   C33   1.442307 S    
O3    C2    1.288038 A    
C21   N5    1.434903 S    
C9    H1    1.085778 S    
C18   C20   1.386092 A    
C11   C17   1.396295 A    
C23   N7    1.438793 S    
C36   N12   1.157010 T    
C21   C23   1.382613 A    
O4    Zn2   2.028724 S    
C12   C18   1.396307 A    
N5    O9    1.301629 A    
C17   H3    1.084221 S    
C5    C31   1.452331 S    
O5    C3    1.286471 A    
C30   C36   1.440603 S    
O2    C2    1.294224 A    
C16   C19   1.407000 A    
C22   C25   1.411428 A    
O1    C1    1.294200 A    
C24   C26   1.408205 A    
Zn1   N1    2.022473 S    
C7    C9    1.387345 A    
C14   C16   1.419323 A    
C33   N9    1.157003 T    
C8    C10   1.387363 A    
N5    O10   1.301085 A    
C11   C13   1.411245 A    
C6    C16   1.400910 A    
C35   N11   1.156978 T    
O2    Zn2   2.004185 S    
C27   C30   1.424382 A    
C12   C14   1.411243 A    
C5    C15   1.400913 A    
O1    Zn1   2.004187 S    
O8    C3    1.287353 A    
C10   C12   1.380207 A    
C18   H4    1.084220 S    
C34   N10   1.156992 T    
O5    Zn1   2.001967 S    
C13   C15   1.419322 A    
C24   N8    1.438859 S    
N6    O11   1.301914 A    
C1    C26   1.437589 S    
C23   C25   1.408094 A    
C31   N3    1.157179 T    
C10   H2    1.085777 S    
N7    O14   1.301580 A    
C21   C26   1.411429 A    
C5    C7    1.402284 A    
Zn2   N2    2.022473 S    
C30   N1    1.372055 A    
C15   C20   1.407001 A    
C28   C34   1.442301 S    
O6    Zn2   2.001965 S    
C29   N2    1.372076 A    
C9    C11   1.380195 A    
O7    C4    1.287342 A    
C29   C35   1.440663 S    
C2    C25   1.437582 S    
C6    C8    1.402286 A    
C28   C29   1.424388 A    
C32   N4    1.157177 T    
N6    O12   1.301340 A    
O4    C1    1.288031 A    
O8    Zn2   2.011258 S    
