data_mof_unit_12337.cif
_audit_creation_date              2012-12-10T18:22:11-0500
_audit_creation_method            fapswitch 2.2
_symmetry_space_group_name_H-M    P1
_symmetry_Int_Tables_number       1
_space_group_crystal_system       triclinic
_cell_length_a                    14.939498
_cell_length_b                    14.015991
_cell_length_c                    15.746568
_cell_angle_alpha                 89.986259
_cell_angle_beta                  89.877839
_cell_angle_gamma                 90.196863
_cell_volume                      3297.17625441

loop_
_atom_site_label
_atom_site_type_symbol
_atom_type_description
_atom_site_fract_x
_atom_site_fract_y
_atom_site_fract_z
_atom_type_partial_charge
C1    C     C_R   0.326738 0.499756 0.498955 0.949355
C2    C     C_R   0.906401 0.435862 0.549171 -0.014940
C3    C     C_R   0.952933 0.487395 0.485894 -0.068043
C4    C     C_R   0.500138 0.500014 0.338247 0.910733
C5    C     C_R   0.906127 0.540395 0.423553 0.145266
C6    C     C_R   0.951192 0.364727 0.596254 0.371263
C7    C     C_R   0.045528 0.358094 0.591701 0.091266
C8    C     C_R   0.092843 0.425785 0.541739 0.033554
C9    C     C_R   0.046447 0.487366 0.485967 -0.002518
C10   C     C_R   0.093551 0.549543 0.430332 0.046165
C11   C     C_R   0.046804 0.599504 0.367594 -0.225707
C12   C     C_3   0.547057 0.591215 0.950463 -0.539280
C13   C     C_R   0.954592 0.593897 0.363462 -0.202983
C14   C     C_R   0.185713 0.432186 0.544317 -0.332175
C15   C     C_R   0.231119 0.497941 0.494076 -0.120000
C16   C     C_R   0.673028 0.500121 0.499108 0.893531
C17   C     C_R   0.186734 0.557854 0.437485 0.365212
C18   C     C_R   0.558029 0.798368 0.448222 -0.038084
C19   C     C_R   0.557915 0.202089 0.448107 -0.043478
C20   C     C_R   0.442025 0.797955 0.551728 -0.041167
C21   C     C_R   0.441993 0.201626 0.551716 -0.055075
C22   C     C_R   0.440557 0.898604 0.552895 0.012817
C23   C     C_3   0.542531 0.594692 0.049836 0.769791
C24   C     C_R   0.440521 0.100976 0.552874 0.016432
C25   C     C_R   0.499944 0.949408 0.499873 0.084554
C26   C     C_R   0.499920 0.050624 0.499855 0.087010
C27   C     C_R   0.559345 0.899044 0.446871 0.013036
C28   C     C_R   0.559265 0.101441 0.446793 0.013872
C29   C     C_R   0.381402 0.949427 0.605532 -0.200835
C30   C     C_R   0.381368 0.049713 0.605510 -0.205297
C31   C     C_R   0.618228 0.050628 0.393962 -0.197907
C32   C     C_R   0.618297 0.950329 0.394033 -0.193150
C33   C     C_R   0.500329 0.499968 0.661798 0.898234
C34   C     C_1   0.502346 0.499391 0.825751 -0.055885
C35   C     C_3   0.402889 0.489074 0.047799 -0.023897
C36   C     C_3   0.563267 0.414487 0.047883 -0.061202
C37   C     C_3   0.553326 0.410138 0.949812 -0.466410
C38   C     C_3   0.404326 0.494208 0.949245 -0.395380
C39   C     C_1   0.501591 0.499797 0.750536 -0.187575
C40   C     C_3   0.502063 0.497013 0.082802 0.170109
C41   C     C_3   0.502073 0.498828 0.917127 0.214321
C42   C     C_3   0.093872 0.275691 0.634954 -0.398046
C43   C     C_3   0.121933 0.301764 0.725321 -0.910715
C44   C     C_3   0.340811 0.409675 0.086306 -0.379552
C45   C     C_1   0.501916 0.498819 0.174415 0.018215
C46   C     C_3   0.331101 0.316228 0.036298 -0.879183
C47   C     C_3   0.552855 0.315098 0.091676 -0.369928
C48   C     C_3   0.625902 0.296052 0.157557 -0.915857
C49   C     C_3   0.759460 0.570531 0.344543 -0.394014
C50   C     C_3   0.772616 0.502559 0.269698 -0.868168
C51   C     C_3   0.771304 0.445721 0.649865 -0.351239
C52   C     C_3   0.747075 0.542132 0.689193 -0.931574
C53   C     C_1   0.501131 0.499910 0.249595 -0.161516
C54   C     C_R   0.812173 0.537101 0.422495 0.052593
C55   C     C_R   0.768604 0.499984 0.495065 -0.133122
C56   C     C_R   0.815722 0.457351 0.562446 0.137204
H1    H     H_    0.369568 0.433343 0.918754 0.195912
H2    H     H_    0.335174 0.911639 0.646721 0.141700
H3    H     H_    0.335099 0.087155 0.646663 0.140302
H4    H     H_    0.664302 0.088434 0.352620 0.143461
H5    H     H_    0.664448 0.912893 0.352767 0.145386
H6    H     H_    0.633980 0.435411 0.058942 0.173589
H7    H     H_    0.368681 0.555496 0.068814 0.180805
H8    H     H_    0.621036 0.407100 0.920158 0.168268
H9    H     H_    0.367783 0.559126 0.928037 0.159986
H10   H     H_    0.512643 0.654447 0.922988 0.189059
H11   H     H_    0.617188 0.594643 0.926732 0.159043
H12   H     H_    0.517232 0.344626 0.929342 0.185305
H13   H     H_    0.167377 0.364560 0.725219 0.260602
H14   H     H_    0.062464 0.318579 0.764864 0.256343
H15   H     H_    0.157610 0.240652 0.754495 0.253048
H16   H     H_    0.051521 0.210484 0.636376 0.223332
H17   H     H_    0.153264 0.253064 0.597697 0.203486
H18   H     H_    0.202842 0.681213 0.384049 0.328172
H19   H     H_    0.280922 0.324493 0.984903 0.250055
H20   H     H_    0.395007 0.292787 0.007956 0.258969
H21   H     H_    0.306517 0.259073 0.079363 0.250974
H22   H     H_    0.361153 0.392816 0.152281 0.204864
H23   H     H_    0.224455 0.388868 0.587441 0.176423
H24   H     H_    0.272100 0.439323 0.092650 0.206634
H25   H     H_    0.692865 0.295723 0.126767 0.261465
H26   H     H_    0.624886 0.351148 0.208050 0.267386
H27   H     H_    0.614443 0.225300 0.187526 0.256415
H28   H     H_    0.487968 0.308257 0.124728 0.240980
H29   H     H_    0.556577 0.256673 0.044126 0.213367
H30   H     H_    0.516599 0.730718 0.059498 0.354963
H31   H     H_    0.675482 0.583272 0.051627 0.298776
H32   H     H_    0.843471 0.501311 0.248597 0.262842
H33   H     H_    0.751998 0.429193 0.288130 0.255744
H34   H     H_    0.080641 0.642136 0.320018 0.160802
H35   H     H_    0.730623 0.525846 0.215479 0.277972
H36   H     H_    0.686563 0.574008 0.355646 0.218575
H37   H     H_    0.778229 0.644502 0.326743 0.199597
H38   H     H_    0.807419 0.588487 0.692783 0.267666
H39   H     H_    0.694711 0.579300 0.652397 0.279530
H40   H     H_    0.720924 0.530954 0.754560 0.250403
H41   H     H_    0.710820 0.399792 0.645333 0.228125
H42   H     H_    0.815965 0.412613 0.697152 0.246733
H43   H     H_    0.931436 0.276718 0.689684 0.335185
H44   H     H_    0.922500 0.634564 0.313995 0.155179
H45   H     H_    0.603151 0.758296 0.407963 0.132317
H46   H     H_    0.602925 0.242501 0.407728 0.136641
H47   H     H_    0.396908 0.757574 0.592002 0.132614
H48   H     H_    0.396847 0.241675 0.591964 0.130654
N1    N     N_R   0.500070 0.750030 0.500040 -0.103038
N2    N     N_R   0.500070 0.249970 0.500040 -0.103680
O1    O     O_R   0.367860 0.580280 0.500020 -0.578831
O2    O     O_3   0.485890 0.670031 0.074531 -0.774388
O3    O     O_3   0.627571 0.612170 0.086644 -0.789141
O4    O     O_3   0.900722 0.295468 0.636704 -0.792533
O5    O     O_R   0.367860 0.419720 0.500020 -0.637985
O6    O     O_R   0.500020 0.580310 0.377140 -0.596005
O7    O     O_R   0.500020 0.419690 0.377140 -0.625042
O8    O     O_R   0.632160 0.580270 0.499980 -0.640562
O9    O     O_R   0.632160 0.419730 0.499980 -0.619257
O10   O     O_R   0.500010 0.580240 0.622850 -0.624566
O11   O     O_R   0.500010 0.419760 0.622850 -0.620471
O12   O     O_3   0.236429 0.620668 0.388636 -0.759924
Zn1   Zn    Zn3+2 0.500020 0.607200 0.499990 0.968520
Zn2   Zn    Zn3+2 0.500020 0.392800 0.499990 0.946621

loop_
_geom_bond_atom_site_label_1
_geom_bond_atom_site_label_2
_ccdc_geom_bond_type
C51   H41   S    
C55   C56   A    
C33   O11   A    
C22   C29   A    
C4    C53   S    
C46   H20   S    
C52   H40   S    
C7    C8    A    
C20   H47   S    
C12   C23   S    
C33   C39   S    
C36   C47   S    
C47   H29   S    
C36   C37   S    
C24   C26   A    
C32   H5    S    
C19   H46   S    
C10   C17   A    
C23   C40   S    
O7    Zn2   S    
C37   H12   S    
C48   H25   S    
C52   H39   S    
C51   C56   S    
C7    C42   S    
C21   H48   S    
C47   C48   S    
C8    C9    A    
C42   H17   S    
C22   C25   A    
C43   H15   S    
C52   H38   S    
C1    C15   S    
C29   C30   A    
C9    C10   A    
C5    C13   A    
C21   N2    A    
C50   H32   S    
C51   H42   S    
C4    O6    A    
C45   C53   T    
C43   H13   S    
C6    O4    S    
C2    C6    A    
C34   C41   S    
C36   H6    S    
O1    Zn1   S    
C46   H19   S    
C44   C46   S    
C40   C45   S    
C23   O3    S    
C12   H11   S    
C51   C52   S    
C4    O7    A    
C36   C40   S    
C35   C38   S    
C38   C41   S    
O11   Zn2   S    
H18   O12   S    
C25   C26   A    
C47   H28   S    
H43   O4    S    
C12   H10   S    
C34   C39   T    
O5    Zn2   S    
C18   H45   S    
C31   H4    S    
C12   C41   S    
C3    C9    A    
C46   H21   S    
C38   H1    S    
C5    C54   A    
C50   H33   S    
C31   C32   A    
C38   H9    S    
C44   H24   S    
C30   H3    S    
C42   H16   S    
C14   H23   S    
C35   C44   S    
C17   O12   S    
C1    O1    A    
C20   C22   A    
O9    Zn2   S    
C43   H14   S    
C19   C28   A    
C42   C43   S    
C49   H36   S    
C16   O9    A    
C37   H8    S    
C20   N1    A    
C15   C17   A    
C54   C55   A    
C33   O10   A    
C8    C14   A    
N2    Zn2   S    
C27   C32   A    
C28   C31   A    
H30   O2    S    
C18   C27   A    
O8    Zn1   S    
C3    C5    A    
C16   O8    A    
O6    Zn1   S    
C48   H27   S    
C6    C7    A    
H31   O3    S    
C25   C27   A    
C26   C28   A    
O10   Zn1   S    
C13   H44   S    
C44   H22   S    
C35   C40   S    
C18   N1    A    
C2    C56   A    
C1    O5    A    
C11   C13   A    
C11   H34   S    
C23   O2    S    
C48   H26   S    
C2    C3    A    
C37   C41   S    
C24   C30   A    
C16   C55   S    
C10   C11   A    
C19   N2    A    
C50   H35   S    
C29   H2    S    
C49   C50   S    
C21   C24   A    
C14   C15   A    
N1    Zn1   S    
C35   H7    S    
C49   H37   S    
C49   C54   S    
