data_mof_unit_44585.cif
_audit_creation_date              2012-12-10T17:09:40-0500
_audit_creation_method            fapswitch 2.2
_symmetry_space_group_name_H-M    P1
_symmetry_Int_Tables_number       1
_space_group_crystal_system       triclinic
_cell_length_a                    18.230984
_cell_length_b                    18.472562
_cell_length_c                    27.644174
_cell_angle_alpha                 90.096591
_cell_angle_beta                  89.843781
_cell_angle_gamma                 89.775281
_cell_volume                      9309.69131276

loop_
_atom_site_label
_atom_site_type_symbol
_atom_type_description
_atom_site_fract_x
_atom_site_fract_y
_atom_site_fract_z
_atom_type_partial_charge
C1    C     C_R   0.500081 0.999953 0.870777 0.499815
C2    C     C_1   0.500107 0.999912 0.775468 -0.001735
C3    C     C_R   0.303555 0.804667 0.501257 -0.003334
C4    C     C_R   0.254090 0.802245 0.037030 0.207527
C5    C     C_R   0.197462 0.251391 0.035526 0.197463
C6    C     C_R   0.726564 0.222476 0.047461 0.217467
C7    C     C_R   0.803279 0.750242 0.035748 0.191969
C8    C     C_R   0.243119 0.190557 0.029763 0.182728
C9    C     C_R   0.199013 0.747984 0.038088 0.189322
C10   C     C_R   0.756840 0.810449 0.029569 0.192635
C11   C     C_R   0.785875 0.271690 0.046185 0.206886
C12   C     C_R   0.773047 0.277780 0.547244 0.217947
C13   C     C_1   0.499986 0.999957 0.275516 -0.006084
C14   C     C_R   0.692204 0.746618 0.533410 0.188449
C15   C     C_R   0.226787 0.722218 0.547220 0.215908
C16   C     C_R   0.307428 0.253484 0.533427 0.189173
C17   C     C_R   0.740343 0.687251 0.527964 0.189384
C18   C     C_R   0.713601 0.228765 0.545962 0.207483
C19   C     C_R   0.259557 0.312953 0.527811 0.189681
C20   C     C_R   0.286181 0.771283 0.545928 0.205300
C21   C     C_1   0.499991 0.000134 0.180915 0.061090
C22   C     C_1   0.999795 0.499969 0.180985 0.028554
C23   C     C_1   0.000009 0.500099 0.680916 0.066709
C24   C     C_1   0.000085 0.499971 0.275465 -0.007517
C25   C     C_1   0.499813 0.999962 0.680986 0.036889
C26   C     C_1   0.000011 0.499846 0.819094 0.030103
C27   C     C_1   0.500197 0.999917 0.819002 0.039602
C28   C     C_1   0.499988 0.999889 0.319092 0.028840
C29   C     C_1   0.000188 0.499984 0.318999 0.029161
C30   C     C_R   0.499998 0.000053 0.129065 0.556405
C31   C     C_R   0.999916 0.499987 0.129221 0.502395
C32   C     C_R   0.000005 0.500046 0.629066 0.553115
C33   C     C_R   0.000006 0.499943 0.870940 0.486339
C34   C     C_R   0.499920 0.999996 0.629221 0.503330
C35   C     C_R   0.640901 0.860681 0.000264 0.622518
C36   C     C_R   0.139401 0.640966 0.001235 0.633748
C37   C     C_R   0.359105 0.139137 0.000560 0.622939
C38   C     C_R   0.859195 0.360666 0.999826 0.615876
C39   C     C_R   0.642644 0.138500 0.000992 0.549985
C40   C     C_R   0.140560 0.360123 0.999755 0.604781
C41   C     C_R   0.361327 0.858506 0.997954 0.556903
C42   C     C_R   0.860855 0.641104 0.001584 0.621583
C43   C     C_R   0.141331 0.361157 0.500633 0.625023
C44   C     C_R   0.000080 0.500000 0.370775 0.502781
C45   C     C_R   0.640736 0.139304 0.499810 0.614841
C46   C     C_R   0.858753 0.638910 0.500691 0.624926
C47   C     C_R   0.359188 0.860688 0.499805 0.615446
C48   C     C_R   0.142530 0.638618 0.500872 0.548810
C49   C     C_R   0.639293 0.859047 0.501249 0.630767
C50   C     C_R   0.857517 0.361407 0.500895 0.548148
C51   C     C_R   0.360597 0.140887 0.501295 0.630809
C52   C     C_R   0.340767 0.759087 0.913274 0.127891
C53   C     C_R   0.246189 0.346018 0.917699 0.126736
C54   C     C_R   0.745675 0.165899 0.916170 0.160169
C55   C     C_R   0.499994 0.999952 0.370939 0.485240
C56   C     C_R   0.738605 0.630220 0.932421 0.140022
C57   C     C_R   0.372411 0.261430 0.933247 0.139941
C58   C     C_R   0.256892 0.634631 0.929680 0.140885
C59   C     C_R   0.626029 0.734628 0.935269 0.141954
C60   C     C_R   0.780911 0.313094 0.912354 0.149302
C61   C     C_R   0.756532 0.332364 0.415561 0.159595
C62   C     C_R   0.767745 0.873789 0.437188 0.139456
C63   C     C_R   0.243750 0.667544 0.415397 0.158953
C64   C     C_R   0.232265 0.125464 0.437590 0.139266
C65   C     C_R   0.876486 0.765364 0.437153 0.142725
C66   C     C_1   0.499986 0.000081 0.224493 0.004058
C67   C     C_R   0.720516 0.185324 0.412342 0.149263
C68   C     C_R   0.124259 0.234589 0.436883 0.142562
C69   C     C_R   0.279851 0.814565 0.412384 0.149238
C70   C     C_R   0.341113 0.702474 0.879637 0.155058
C71   C     C_R   0.305548 0.349492 0.885266 0.107866
C72   C     C_R   0.753837 0.200131 0.871232 0.135205
C73   C     C_R   0.678136 0.624321 0.901467 0.115210
C74   C     C_R   0.369664 0.309724 0.894224 0.112238
C75   C     C_R   0.301497 0.639444 0.888576 0.098717
C76   C     C_R   0.621827 0.675873 0.903211 0.121699
C77   C     C_1   0.999887 0.499963 0.224515 -0.001352
C78   C     C_R   0.767003 0.275043 0.869291 0.099273
C79   C     C_R   0.749310 0.297361 0.370773 0.135506
C80   C     C_R   0.830000 0.880462 0.407650 0.118244
C81   C     C_R   0.251170 0.702502 0.370664 0.138131
C82   C     C_R   0.170381 0.118800 0.407921 0.118217
C83   C     C_R   0.884101 0.826605 0.407676 0.118318
C84   C     C_R   0.735683 0.222518 0.369166 0.100044
C85   C     C_R   0.116663 0.173027 0.407592 0.118197
C86   C     C_R   0.264849 0.777333 0.369169 0.103694
C87   C     C_R   0.250873 0.693926 0.962949 -0.036799
C88   C     C_1   0.000012 0.500018 0.724493 0.008616
C89   C     C_R   0.310480 0.253474 0.964696 -0.042927
C90   C     C_R   0.775056 0.277063 0.957667 -0.035282
C91   C     C_R   0.687831 0.742930 0.966756 -0.046132
C92   C     C_R   0.250364 0.301988 0.960144 -0.047320
C93   C     C_R   0.298879 0.753878 0.957654 -0.083678
C94   C     C_R   0.743922 0.689073 0.966172 -0.043978
C95   C     C_R   0.742154 0.208703 0.959172 -0.077130
C96   C     C_R   0.725785 0.222054 0.457511 -0.034719
C97   C     C_R   0.813736 0.757355 0.468265 -0.044018
C98   C     C_R   0.274371 0.777893 0.457502 -0.034931
C99   C     C_1   0.499914 0.999933 0.724517 0.003628
C100  C     C_R   0.186589 0.242568 0.468153 -0.044242
C101  C     C_R   0.758786 0.812356 0.468365 -0.045141
C102  C     C_R   0.758983 0.290317 0.458826 -0.076796
C103  C     C_R   0.241244 0.187289 0.468517 -0.045387
C104  C     C_R   0.241196 0.709621 0.458749 -0.077057
C105  C     C_R   0.303470 0.804391 0.997024 -0.026431
C106  C     C_R   0.197430 0.304400 0.998527 -0.005818
C107  C     C_R   0.705468 0.188958 0.003001 -0.044276
C108  C     C_R   0.801685 0.694222 0.000832 -0.005125
C109  C     C_R   0.304353 0.196187 0.998767 -0.005740
C110  C     C_1   0.000013 0.499888 0.775517 -0.003873
C111  C     C_R   0.197962 0.694760 0.001014 -0.010303
C112  C     C_R   0.696189 0.803858 0.998223 -0.004510
C113  C     C_R   0.803645 0.304549 0.001391 -0.003928
C114  C     C_R   0.794868 0.310721 0.502750 -0.043902
C115  C     C_R   0.697895 0.805272 0.500739 -0.008152
C116  C     C_R   0.205175 0.689249 0.502703 -0.043862
C117  C     C_R   0.301856 0.194519 0.500897 -0.008023
C118  C     C_R   0.803360 0.695497 0.498504 -0.006775
C119  C     C_R   0.696366 0.195355 0.501258 -0.003244
C120  C     C_R   0.196838 0.304653 0.498298 -0.006860
H1    H     H_    0.300919 0.857328 0.160501 0.371553
H2    H     H_    0.582434 0.829044 0.632063 0.355775
H3    H     H_    0.065475 0.715055 0.625274 0.373465
H4    H     H_    0.416393 0.171527 0.632081 0.354118
H5    H     H_    0.746561 0.488545 0.546256 0.375324
H6    H     H_    0.549222 0.167605 0.610460 0.353822
H7    H     H_    0.253755 0.511812 0.545489 0.375120
H8    H     H_    0.450056 0.833039 0.610185 0.355096
H9    H     H_    0.423551 0.834256 0.918736 0.222360
H10   H     H_    0.340625 0.865944 0.894338 0.276414
H11   H     H_    0.190487 0.436313 0.897783 0.236441
H12   H     H_    0.097717 0.346570 0.133456 0.352401
H13   H     H_    0.160410 0.358990 0.872235 0.264383
H14   H     H_    0.719705 0.060204 0.902781 0.287872
H15   H     H_    0.774232 0.072697 0.952936 0.279817
H16   H     H_    0.769128 0.525313 0.938936 0.251851
H17   H     H_    0.813596 0.571280 0.894316 0.254373
H18   H     H_    0.450860 0.190902 0.910309 0.238665
H19   H     H_    0.481971 0.258838 0.946210 0.255131
H20   H     H_    0.184603 0.557940 0.909289 0.238290
H21   H     H_    0.259216 0.525944 0.939944 0.250475
H22   H     H_    0.559415 0.806625 0.901317 0.254310
H23   H     H_    0.564593 0.215932 0.124945 0.371784
H24   H     H_    0.518188 0.756442 0.945196 0.245858
H25   H     H_    0.842551 0.396828 0.888579 0.263975
H26   H     H_    0.751698 0.414668 0.893144 0.255982
H27   H     H_    0.782600 0.437920 0.401864 0.287732
H28   H     H_    0.726499 0.426088 0.451550 0.280951
H29   H     H_    0.740075 0.978898 0.447377 0.257615
H30   H     H_    0.696595 0.938089 0.400166 0.250599
H31   H     H_    0.217461 0.562038 0.401584 0.287153
H32   H     H_    0.273520 0.573795 0.451127 0.280895
H33   H     H_    0.258861 0.020307 0.448409 0.258303
H34   H     H_    0.906576 0.658592 0.133124 0.351400
H35   H     H_    0.303443 0.059978 0.401131 0.249253
H36   H     H_    0.937205 0.692453 0.398960 0.247058
H37   H     H_    0.983218 0.735039 0.444172 0.250442
H38   H     H_    0.658339 0.101924 0.388699 0.263418
H39   H     H_    0.748901 0.083156 0.393654 0.258879
H40   H     H_    0.064761 0.307444 0.398196 0.247717
H41   H     H_    0.017666 0.265852 0.443409 0.250055
H42   H     H_    0.342187 0.897893 0.388785 0.262493
H43   H     H_    0.251611 0.916705 0.393890 0.258524
H44   H     H_    0.345846 0.707442 0.806360 0.256558
H45   H     H_    0.198331 0.000251 0.024430 0.394686
H46   H     H_    0.420183 0.668596 0.832658 0.238527
H47   H     H_    0.304681 0.360546 0.812301 0.255392
H48   H     H_    0.341865 0.431294 0.842672 0.244348
H49   H     H_    0.801743 0.162444 0.809842 0.258748
H50   H     H_    0.709940 0.177031 0.805715 0.244137
H51   H     H_    0.671285 0.583820 0.833260 0.255676
H52   H     H_    0.627287 0.534219 0.876170 0.235324
H53   H     H_    0.449935 0.369775 0.863162 0.235786
H54   H     H_    0.417140 0.301829 0.827828 0.250419
H55   H     H_    0.359368 0.562242 0.852673 0.224842
H56   H     H_    0.046764 0.679526 0.116636 0.362063
H57   H     H_    0.286798 0.596520 0.821601 0.258043
H58   H     H_    0.532784 0.620316 0.879839 0.225952
H59   H     H_    0.576137 0.669462 0.836399 0.251524
H60   H     H_    0.721379 0.305912 0.805815 0.255981
H61   H     H_    0.812935 0.289051 0.803006 0.255531
H62   H     H_    0.703036 0.334248 0.308875 0.259711
H63   H     H_    0.794838 0.319041 0.305412 0.244779
H64   H     H_    0.841193 0.927064 0.341514 0.254936
H65   H     H_    0.885411 0.970630 0.387128 0.234915
H66   H     H_    0.297632 0.665528 0.308603 0.254533
H67   H     H_    0.754948 0.008850 0.046407 0.374534
H68   H     H_    0.205850 0.680799 0.305360 0.238786
H69   H     H_    0.159797 0.071341 0.341947 0.253549
H70   H     H_    0.114617 0.028733 0.387618 0.235033
H71   H     H_    0.976000 0.880198 0.386827 0.236144
H72   H     H_    0.931475 0.836506 0.341409 0.251389
H73   H     H_    0.782488 0.190242 0.306138 0.256440
H74   H     H_    0.691114 0.207659 0.302687 0.256540
H75   H     H_    0.024700 0.119799 0.386657 0.236320
H76   H     H_    0.070227 0.162583 0.341222 0.251747
H77   H     H_    0.218307 0.809583 0.306290 0.250768
H78   H     H_    0.950951 0.329544 0.112108 0.357837
H79   H     H_    0.309687 0.792111 0.302633 0.247608
H80   H     H_    0.934013 0.284760 0.625073 0.371604
N1    N     N_3   0.377835 0.823114 0.897509 -0.569136
N2    N     N_3   0.714746 0.931341 0.435738 -0.606503
N3    N     N_3   0.260969 0.591484 0.416204 -0.539977
N4    N     N_3   0.284785 0.067454 0.436608 -0.606430
N5    N     N_3   0.933292 0.711391 0.434553 -0.602238
N6    N     N_3   0.704648 0.109407 0.410351 -0.632422
N7    N     N_3   0.067940 0.288972 0.433874 -0.602232
N8    N     N_3   0.295766 0.890469 0.410491 -0.632711
N9    N     N_3   0.382053 0.710720 0.835523 -0.557026
N10   N     N_3   0.299284 0.393665 0.842800 -0.621621
N11   N     N_3   0.751665 0.157221 0.827969 -0.586117
N12   N     N_3   0.179479 0.381955 0.904413 -0.582603
N13   N     N_3   0.674467 0.564139 0.868613 -0.643684
N14   N     N_3   0.432366 0.315989 0.862999 -0.640625
N15   N     N_3   0.304859 0.579447 0.855577 -0.640288
N16   N     N_3   0.558866 0.669374 0.872474 -0.635305
N17   N     N_3   0.771204 0.312353 0.823900 -0.619990
N18   N     N_3   0.752730 0.339488 0.327289 -0.585455
N19   N     N_3   0.837387 0.943423 0.377641 -0.646311
N20   N     N_3   0.247869 0.660341 0.327110 -0.590989
N21   N     N_3   0.162971 0.055470 0.378148 -0.648027
N22   N     N_3   0.947999 0.832954 0.377498 -0.640450
N23   N     N_3   0.762825 0.089846 0.917723 -0.539090
N24   N     N_3   0.732222 0.184451 0.323957 -0.619446
N25   N     N_3   0.053179 0.166725 0.377246 -0.639564
N26   N     N_3   0.268507 0.815358 0.324024 -0.629408
N27   N     N_3   0.793484 0.574487 0.929727 -0.603229
N28   N     N_3   0.439313 0.221944 0.941098 -0.600451
N29   N     N_3   0.220109 0.567427 0.938226 -0.609152
N30   N     N_3   0.565752 0.784732 0.935929 -0.613195
N31   N     N_3   0.795975 0.389147 0.910100 -0.631752
N32   N     N_3   0.739138 0.408389 0.416557 -0.539161
O1    O     O_3   0.500000 0.000000 0.000010 -0.472419
O2    O     O_R   0.500000 0.939270 0.393730 -0.544691
O3    O     O_3   0.429529 0.809047 0.581197 -0.491202
O4    O     O_R   0.060730 0.500000 0.393730 -0.545612
O5    O     O_R   0.500000 0.060730 0.393730 -0.543819
O6    O     O_R   0.500000 0.939240 0.106280 -0.503512
O7    O     O_R   0.060760 0.500000 0.106280 -0.501800
O8    O     O_R   0.500000 0.060760 0.106280 -0.512877
O9    O     O_R   0.939240 0.500000 0.106280 -0.498781
O10   O     O_R   0.000000 0.439240 0.606280 -0.515097
O11   O     O_R   0.560760 0.000000 0.606280 -0.500389
O12   O     O_R   0.000000 0.560760 0.606280 -0.514333
O13   O     O_3   0.000000 0.500000 0.000010 -0.476402
O14   O     O_R   0.439240 0.000000 0.606280 -0.501241
O15   O     O_R   0.646170 0.914530 0.972140 -0.488595
O16   O     O_R   0.085470 0.646170 0.972140 -0.513000
O17   O     O_R   0.353830 0.085470 0.972140 -0.481004
O18   O     O_R   0.914530 0.353830 0.972140 -0.506904
O19   O     O_R   0.646170 0.085470 0.972140 -0.569326
O20   O     O_R   0.085470 0.353830 0.972140 -0.496864
O21   O     O_R   0.353830 0.914530 0.972140 -0.529116
O22   O     O_R   0.914530 0.646170 0.972140 -0.508304
O23   O     O_R   0.146170 0.414530 0.472140 -0.483756
O24   O     O_3   0.000000 0.500000 0.500010 -0.468601
O25   O     O_R   0.585470 0.146170 0.472140 -0.505024
O26   O     O_R   0.853830 0.585470 0.472140 -0.483659
O27   O     O_R   0.414530 0.853830 0.472140 -0.504980
O28   O     O_R   0.146170 0.585470 0.472140 -0.566804
O29   O     O_R   0.585470 0.853830 0.472140 -0.509086
O30   O     O_R   0.853830 0.414530 0.472140 -0.566568
O31   O     O_R   0.414530 0.146170 0.472140 -0.509298
O32   O     O_R   0.414540 0.146130 0.027870 -0.506772
O33   O     O_R   0.853870 0.414540 0.027870 -0.496634
O34   O     O_R   0.585460 0.853870 0.027870 -0.516245
O35   O     O_3   0.500000 0.000000 0.500010 -0.476348
O36   O     O_R   0.146130 0.585460 0.027870 -0.480179
O37   O     O_R   0.414540 0.853870 0.027870 -0.492536
O38   O     O_R   0.853870 0.585460 0.027870 -0.478421
O39   O     O_R   0.585460 0.146130 0.027870 -0.460014
O40   O     O_R   0.146130 0.414540 0.027870 -0.486281
O41   O     O_R   0.914540 0.646130 0.527870 -0.512657
O42   O     O_R   0.353870 0.914540 0.527870 -0.500696
O43   O     O_R   0.085460 0.353870 0.527870 -0.513031
O44   O     O_R   0.646130 0.085460 0.527870 -0.500491
O45   O     O_R   0.914540 0.353870 0.527870 -0.462304
O46   O     O_R   0.439270 0.000000 0.893730 -0.546223
O47   O     O_R   0.353870 0.085460 0.527870 -0.477261
O48   O     O_R   0.085460 0.646130 0.527870 -0.462381
O49   O     O_R   0.646130 0.914540 0.527870 -0.477370
O50   O     O_2   0.311557 0.929625 0.075353 -0.259593
O51   O     O_2   0.190163 0.896587 0.101696 -0.170569
O52   O     O_3   0.300291 0.821675 0.133696 -0.475049
O53   O     O_2   0.065030 0.235060 0.076287 -0.207947
O54   O     O_2   0.170943 0.216224 0.129388 -0.186939
O55   O     O_3   0.136200 0.346618 0.108086 -0.505003
O56   O     O_2   0.673060 0.123237 0.109547 -0.280193
O57   O     O_R   0.000000 0.439270 0.893730 -0.544848
O58   O     O_2   0.711559 0.236280 0.147284 -0.176950
O59   O     O_3   0.592837 0.238812 0.098435 -0.489606
O60   O     O_2   0.936124 0.770198 0.074351 -0.201507
O61   O     O_2   0.831878 0.786548 0.129552 -0.180389
O62   O     O_3   0.869127 0.657089 0.107250 -0.509503
O63   O     O_2   0.269785 0.092435 0.099650 -0.209593
O64   O     O_2   0.142145 0.101679 0.072413 -0.164335
O65   O     O_3   0.234720 0.038010 0.016284 -0.490208
O66   O     O_2   0.165464 0.753754 0.133663 -0.211911
O67   O     O_2   0.081501 0.813494 0.077261 -0.157917
O68   O     O_R   0.560730 0.000000 0.893730 -0.548649
O69   O     O_3   0.074935 0.675357 0.086064 -0.523338
O70   O     O_2   0.729846 0.898399 0.105252 -0.238214
O71   O     O_2   0.854642 0.902564 0.071880 -0.144951
O72   O     O_3   0.752545 0.966200 0.024700 -0.528810
O73   O     O_2   0.810283 0.343467 0.129292 -0.235307
O74   O     O_2   0.850166 0.216170 0.126099 -0.179647
O75   O     O_3   0.928686 0.310608 0.082010 -0.497302
O76   O     O_2   0.825812 0.377451 0.609349 -0.280441
O77   O     O_2   0.786779 0.264675 0.647098 -0.177465
O78   O     O_3   0.906122 0.261763 0.598495 -0.489576
O79   O     O_R   0.000000 0.560730 0.893730 -0.537002
O80   O     O_2   0.556032 0.716497 0.564890 -0.180373
O81   O     O_2   0.654124 0.708275 0.625201 -0.190891
O82   O     O_3   0.609109 0.834474 0.601028 -0.525368
O83   O     O_2   0.173831 0.622511 0.609187 -0.281611
O84   O     O_2   0.212641 0.735307 0.647124 -0.167333
O85   O     O_3   0.093493 0.738153 0.598745 -0.488150
O86   O     O_2   0.443383 0.283356 0.564984 -0.180931
O87   O     O_2   0.344674 0.292557 0.625177 -0.194562
O88   O     O_3   0.389378 0.165932 0.601272 -0.525633
O89   O     O_2   0.762689 0.601295 0.605028 -0.236863
O90   O     O_R   0.939270 0.500000 0.393730 -0.544084
O91   O     O_2   0.642068 0.591488 0.566564 -0.149507
O92   O     O_3   0.750978 0.530863 0.524488 -0.528560
O93   O     O_2   0.687586 0.157971 0.629110 -0.240660
O94   O     O_2   0.648508 0.285449 0.625620 -0.177226
O95   O     O_3   0.570061 0.191192 0.581398 -0.491396
O96   O     O_2   0.236630 0.399869 0.604595 -0.239043
O97   O     O_2   0.357760 0.408756 0.566305 -0.149382
O98   O     O_3   0.249580 0.469251 0.523831 -0.528347
O99   O     O_2   0.311747 0.842151 0.629168 -0.234245
O100  O     O_2   0.351013 0.714722 0.625359 -0.176060
S1    S     S_3+6 0.263206 0.866168 0.086647 0.098071
S2    S     S_3+6 0.626470 0.749584 0.582101 0.094853
S3    S     S_3+6 0.178640 0.703173 0.602697 0.093851
S4    S     S_3+6 0.372617 0.250731 0.582187 0.092804
S5    S     S_3+6 0.722612 0.602097 0.557578 0.098311
S6    S     S_3+6 0.655261 0.216004 0.597494 0.102564
S7    S     S_3+6 0.277282 0.398348 0.557217 0.097788
S8    S     S_3+6 0.344289 0.784142 0.597382 0.105830
S9    S     S_3+6 0.140917 0.260639 0.088403 0.086059
S10   S     S_3+6 0.677941 0.203852 0.102823 0.091160
S11   S     S_3+6 0.861429 0.742932 0.087859 0.087493
S12   S     S_3+6 0.221059 0.104974 0.056693 0.118763
S13   S     S_3+6 0.129704 0.748405 0.084885 0.104779
S14   S     S_3+6 0.774783 0.895058 0.059618 0.100644
S15   S     S_3+6 0.843402 0.285352 0.097861 0.102759
S16   S     S_3+6 0.820980 0.296793 0.602680 0.090968
Zn1   Zn    Zn3+2 0.500000 0.913210 0.039810 1.049789
Zn2   Zn    Zn3+2 0.000000 0.586760 0.960200 1.005959
Zn3   Zn    Zn3+2 0.413240 0.000000 0.960200 1.002201
Zn4   Zn    Zn3+2 0.000000 0.413240 0.960200 0.996279
Zn5   Zn    Zn3+2 0.086760 0.500000 0.460200 0.972353
Zn6   Zn    Zn3+2 0.500000 0.086760 0.460200 1.003254
Zn7   Zn    Zn3+2 0.913240 0.500000 0.460200 0.972892
Zn8   Zn    Zn3+2 0.500000 0.913240 0.460200 1.003175
Zn9   Zn    Zn3+2 0.086790 0.500000 0.039810 1.049613
Zn10  Zn    Zn3+2 0.500000 0.086790 0.039810 1.057429
Zn11  Zn    Zn3+2 0.913210 0.500000 0.039810 1.057409
Zn12  Zn    Zn3+2 0.000000 0.413210 0.539810 1.044302
Zn13  Zn    Zn3+2 0.586790 1.000000 0.539810 1.053902
Zn14  Zn    Zn3+2 0.000000 0.586790 0.539810 1.045310
Zn15  Zn    Zn3+2 0.413210 1.000000 0.539810 1.054250
Zn16  Zn    Zn3+2 0.586760 0.000000 0.960200 0.963526

loop_
_geom_bond_atom_site_label_1
_geom_bond_atom_site_label_2
_ccdc_geom_bond_type
C64   C103  A    
O31   Zn6   S    
C96   C102  A    
O46   Zn3   S    
O100  S8    D    
C90   C95   A    
C50   O45   A    
C41   C105  S    
C22   C77   T    
C30   O6    A    
C44   O4    A    
O7    Zn9   S    
C42   O22   A    
H49   N11   S    
C52   N1    S    
O75   S15   S    
C104  C116  A    
C57   N28   S    
C12   S16   S    
H34   O62   S    
H59   N16   S    
C34   O14   A    
H1    O52   S    
O69   S13   S    
C37   C109  S    
C81   C86   A    
C6    S10   S    
C43   C120  S    
H26   N31   S    
C62   C101  A    
C69   C98   A    
C40   O40   A    
C64   N4    S    
H20   N29   S    
O18   Zn4   S    
C74   N14   S    
C36   O36   A    
C103  C117  A    
C80   C83   A    
C17   S5    S    
C48   O48   A    
C15   C20   A    
H2    O82   S    
O19   Zn16  S    
H4    O88   S    
H37   N5    S    
C10   S14   S    
O83   S3    D    
C6    C11   A    
O34   Zn1   S    
C81   N20   S    
H66   N20   S    
H19   N28   S    
C50   C114  S    
O90   Zn7   S    
C102  C114  A    
C44   O90   A    
C36   C111  S    
C51   O47   A    
C59   C91   A    
C55   O5    A    
C17   C118  A    
C92   C106  A    
C49   C115  S    
C19   C120  A    
C29   C44   S    
C101  C115  A    
O76   S16   D    
C45   O44   A    
H24   N30   S    
C48   O28   A    
C69   N8    S    
C56   C73   A    
C32   O10   A    
C34   O11   A    
O61   S11   D    
C7    S11   S    
O20   Zn4   S    
C30   O8    A    
C63   C104  A    
C5    C8    A    
O22   Zn2   S    
C60   C90   A    
C82   C85   A    
H15   N23   S    
O1    Zn10  S    
C20   S8    S    
O30   Zn7   S    
C91   C94   A    
C3    C98   A    
C54   N23   S    
C75   N15   S    
O39   Zn10  S    
C11   C113  A    
O82   S2    S    
H12   O55   S    
C24   C77   S    
C1    O46   A    
C87   C111  A    
H41   N7    S    
C46   O26   A    
C42   O38   A    
C21   C66   T    
H3    O85   S    
C60   N31   S    
H57   N15   S    
C1    O68   A    
O98   S7    S    
O80   S2    D    
C60   C78   A    
C63   N3    S    
C62   C80   A    
C78   N17   S    
H45   O65   S    
C79   C84   A    
H22   N30   S    
C65   N5    S    
C41   O21   A    
H43   N8    S    
C61   N32   S    
O58   S10   D    
O42   Zn15  S    
C72   C78   A    
H73   N24   S    
H6    O95   S    
H32   N3    S    
C41   O37   A    
C48   C116  S    
O95   S6    S    
H9    N1    S    
H77   N26   S    
O47   Zn15  S    
C4    S1    S    
C32   O12   A    
C68   C85   A    
C14   C17   A    
H60   N17   S    
O73   S15   D    
O14   Zn15  S    
C39   O39   A    
C12   C114  A    
C13   C66   S    
O68   Zn16  S    
O60   S11   D    
O50   S1    D    
H75   N25   S    
O15   Zn16  S    
O12   Zn14  S    
O23   Zn5   S    
C51   O31   A    
O35   Zn8   S    
C91   C112  A    
C33   O79   A    
C68   C100  A    
O78   S16   S    
C26   C33   S    
O29   Zn8   S    
O56   S10   D    
O77   S16   D    
C52   C93   A    
C54   C95   A    
C2    C99   S    
C23   C88   T    
H61   N17   S    
C85   N25   S    
O4    Zn5   S    
C55   O2    A    
C40   C106  S    
H76   N25   S    
H5    O92   S    
H42   N8    S    
O81   S2    D    
O24   Zn5   S    
O51   S1    D    
H62   N18   S    
C25   C34   S    
H58   N16   S    
O66   S13   D    
O64   S12   D    
C37   O32   A    
H72   N22   S    
H17   N27   S    
O35   Zn15  S    
C38   O18   A    
C61   C79   A    
C53   N12   S    
O1    Zn1   S    
C87   C93   A    
C3    C47   S    
C51   C117  S    
O24   Zn14  S    
H79   N26   S    
C70   C75   A    
C4    C9    A    
O6    Zn1   S    
O32   Zn10  S    
C59   C76   A    
O97   S7    D    
C35   C112  S    
C16   S4    S    
C7    C10   A    
O84   S3    D    
O55   S9    S    
C96   C119  A    
C80   N19   S    
C47   O42   A    
O49   Zn13  S    
C56   C94   A    
O67   S13   D    
C57   C89   A    
O35   Zn6   S    
O92   S5    S    
O86   S4    D    
C38   O33   A    
C40   O20   A    
O59   S10   S    
C72   N11   S    
C43   O43   A    
H21   N29   S    
C14   C115  A    
O11   Zn13  S    
O8    Zn10  S    
C46   C118  S    
C24   C29   T    
C62   N2    S    
O27   Zn8   S    
C25   C99   T    
C47   O27   A    
O35   Zn13  S    
C6    C107  A    
C13   C28   T    
C10   C112  A    
C2    C27   T    
H28   N32   S    
O53   S9    D    
C5    C106  A    
C88   C110  S    
C45   C119  S    
H8    O3    S    
C14   S2    S    
H25   N31   S    
O72   S14   S    
O28   Zn5   S    
C73   N13   S    
O13   Zn2   S    
O24   Zn7   S    
C18   S6    S    
O9    Zn11  S    
O87   S4    D    
H68   N20   S    
C46   O41   A    
H38   N6    S    
C11   S15   S    
H67   O72   S    
C84   N24   S    
C38   C113  S    
C49   O29   A    
O1    Zn3   S    
C100  C103  A    
H54   N14   S    
H55   N15   S    
H48   N10   S    
H27   N32   S    
C76   N16   S    
O45   Zn12  S    
H44   N9    S    
O33   Zn11  S    
C3    C20   A    
O54   S9    D    
H36   N5    S    
C67   N6    S    
C95   C107  A    
H29   N2    S    
H16   N27   S    
O71   S14   D    
O2    Zn8   S    
H30   N2    S    
H52   N13   S    
C50   O30   A    
C31   O7    A    
C56   N27   S    
C31   O9    A    
H47   N10   S    
C71   C74   A    
C33   O57   A    
O5    Zn6   S    
C45   O25   A    
C36   O16   A    
C21   C30   S    
C23   C32   S    
H53   N14   S    
O36   Zn9   S    
O24   Zn12  S    
C16   C117  A    
O38   Zn11  S    
C16   C19   A    
C19   S7    S    
O13   Zn9   S    
O94   S6    D    
H80   O78   S    
H51   N13   S    
C39   O19   A    
C73   C76   A    
H14   N23   S    
C15   C116  A    
O13   Zn4   S    
O41   Zn14  S    
C8    S12   S    
C9    C111  A    
C58   C87   A    
C82   N21   S    
C39   C107  S    
C94   C108  A    
C63   C81   A    
H46   N9    S    
O10   Zn12  S    
H69   N21   S    
O99   S8    D    
C65   C83   A    
C89   C109  A    
H56   O69   S    
C90   C113  A    
C49   O49   A    
C97   C118  A    
O16   Zn2   S    
O93   S6    D    
C93   C105  A    
C83   N22   S    
H64   N19   S    
H50   N11   S    
C100  C120  A    
C26   C110  T    
H33   N4    S    
C67   C84   A    
O88   S4    S    
O63   S12   D    
C68   N7    S    
O79   Zn2   S    
C28   C55   S    
C58   C75   A    
O21   Zn3   S    
C22   C31   S    
H70   N21   S    
O1    Zn16  S    
C79   N18   S    
O13   Zn11  S    
O37   Zn1   S    
C57   C74   A    
O43   Zn12  S    
O40   Zn9   S    
O89   S5    D    
C71   N10   S    
C53   C92   A    
O17   Zn3   S    
C89   C92   A    
H18   N28   S    
O52   S1    S    
H10   N1    S    
H71   N22   S    
C64   C82   A    
H23   O59   S    
O26   Zn7   S    
O91   S5    D    
H63   N18   S    
C67   C96   A    
C86   N26   S    
H78   O75   S    
O48   Zn14  S    
C9    S13   S    
H35   N4    S    
O57   Zn4   S    
H39   N6    S    
H74   N24   S    
O44   Zn13  S    
C43   O23   A    
C70   N9    S    
O65   S12   S    
H65   N19   S    
C15   S3    S    
H31   N3    S    
O25   Zn6   S    
O70   S14   D    
C4    C105  A    
C35   O15   A    
O62   S11   S    
C5    S9    S    
C61   C102  A    
C65   C97   A    
C58   N29   S    
C8    C109  A    
H40   N7    S    
O85   S3    S    
C37   O17   A    
C18   C119  A    
H7    O98   S    
C35   O34   A    
O96   S7    D    
C52   C70   A    
O74   S15   D    
C54   C72   A    
C12   C18   A    
H11   N12   S    
C1    C27   S    
H13   N12   S    
C7    C108  A    
O3    S8    S    
C59   N30   S    
C42   C108  S    
C98   C104  A    
C97   C101  A    
C69   C86   A    
C53   C71   A    
