data_mof_unit_42700.cif
_audit_creation_date              2012-12-10T17:02:29-0500
_audit_creation_method            fapswitch 2.2
_symmetry_space_group_name_H-M    P1
_symmetry_Int_Tables_number       1
_space_group_crystal_system       triclinic
_cell_length_a                    10.755721
_cell_length_b                    11.019083
_cell_length_c                    9.930051
_cell_angle_alpha                 111.22943
_cell_angle_beta                  97.777441
_cell_angle_gamma                 92.147261
_cell_volume                      1082.15952364

loop_
_atom_site_label
_atom_site_type_symbol
_atom_type_description
_atom_site_fract_x
_atom_site_fract_y
_atom_site_fract_z
_atom_type_partial_charge
C1    C     C_R   0.490336 0.254221 0.440563 0.833033
C2    C     C_R   0.509664 0.745779 0.559437 0.833033
C3    C     C_2   0.483305 0.114265 0.407398 -0.352275
C4    C     C_2   0.516695 0.885735 0.592602 -0.352274
C5    C     C_2   0.505481 0.069665 0.515712 -0.130783
C6    C     C_2   0.494519 0.930335 0.484288 -0.130783
C7    C     C_2   0.515815 0.505787 0.078717 0.013043
C8    C     C_2   0.484186 0.494212 0.921283 0.013044
C9    C     C_R   0.263438 0.500384 0.501405 0.780424
C10   C     C_R   0.736562 0.499616 0.498595 0.780424
C11   C     C_R   0.144718 0.737630 0.552162 -0.126572
C12   C     C_R   0.855282 0.262370 0.447837 -0.126572
C13   C     C_R   0.086946 0.852880 0.573963 -0.140040
C14   C     C_R   0.913054 0.147120 0.426036 -0.140040
C15   C     C_R   0.957197 0.851993 0.569686 -0.131123
C16   C     C_R   0.042803 0.148006 0.430312 -0.131123
C17   C     C_R   0.884790 0.735895 0.543800 -0.138307
C18   C     C_R   0.115210 0.264105 0.456198 -0.138307
C19   C     C_R   0.941656 0.617671 0.521708 0.051268
C20   C     C_R   0.058344 0.382329 0.478292 0.051268
C21   C     C_R   0.073036 0.618523 0.525823 0.075036
C22   C     C_R   0.926964 0.381477 0.474177 0.075036
C23   C     C_R   0.870172 0.499187 0.496086 -0.144820
C24   C     C_R   0.129828 0.500813 0.503914 -0.144820
Cu1   Cu    Cu3+1 0.521920 0.521810 0.644910 0.987221
Cu2   Cu    Cu3+1 0.478080 0.478190 0.355090 0.987221
H1    H     H_    0.087547 0.058402 0.413087 0.143375
H2    H     H_    0.912453 0.941598 0.586911 0.143375
H3    H     H_    0.245797 0.743057 0.556799 0.123307
H4    H     H_    0.754203 0.256943 0.443201 0.123307
H5    H     H_    0.143198 0.943188 0.594609 0.150214
H6    H     H_    0.856802 0.056812 0.405390 0.150213
H7    H     H_    0.784193 0.739840 0.541175 0.140192
H8    H     H_    0.215807 0.260159 0.458823 0.140191
H9    H     H_    0.468023 0.863852 0.371123 0.218232
H10   H     H_    0.531977 0.136148 0.628877 0.218232
H11   H     H_    0.541296 0.952658 0.705825 0.164361
H12   H     H_    0.458704 0.047342 0.294175 0.164361
H13   H     H_    0.636110 0.609735 0.925068 0.210038
H14   H     H_    0.363890 0.390264 0.074931 0.210038
N1    N     N_2   0.445130 0.445420 0.137360 -0.322542
N2    N     N_2   0.554870 0.554580 0.862640 -0.322543
O1    O     O_R   0.511700 0.332340 0.577400 -0.553338
O2    O     O_R   0.488300 0.667660 0.422600 -0.553337
O3    O     O_R   0.474680 0.295500 0.332650 -0.575702
O4    O     O_R   0.525320 0.704500 0.667350 -0.575702
O5    O     O_R   0.338170 0.518410 0.622370 -0.554830
O6    O     O_R   0.661830 0.481590 0.377630 -0.554831
O7    O     O_R   0.301150 0.481570 0.377630 -0.575377
O8    O     O_R   0.698850 0.518430 0.622370 -0.575377
C25   C     C_2   0.366269 0.415510 0.835773 0.909451
O9    O     O_2   0.367139 0.299159 0.764238 -0.628259
O10   O     O_R   0.252221 0.472222 0.848986 -0.755374
H15   H     H_    0.176995 0.407890 0.790122 0.330148
C26   C     C_2   0.633732 0.584489 0.164226 0.909452
O11   O     O_2   0.632862 0.700839 0.235764 -0.628259
O12   O     O_R   0.747779 0.527777 0.151012 -0.755375
H16   H     H_    0.823006 0.592109 0.209877 0.330148

loop_
_geom_bond_atom_site_label_1
_geom_bond_atom_site_label_2
_ccdc_geom_bond_type
Cu1   N2    S    
C19   C23   A    
C26   O11   D    
C9    C24   S    
C7    C26   S    
C10   C23   S    
C11   C13   A    
Cu1   O5    S    
C2    C4    S    
Cu2   O6    S    
C3    C5    D    
Cu1   O1    S    
C16   H1    S    
C7    N1    D    
O12   H16   S    
Cu2   O2    S    
C7    C8    S    
C26   O12   S    
O10   H15   S    
C2    O4    A    
C18   H8    S    
C8    C25   S    
C1    O3    A    
C15   H2    S    
C17   H7    S    
C16   C18   A    
H14   N1    S    
C19   C21   A    
C8    N2    D    
C9    O5    A    
H13   N2    S    
C18   C20   A    
C13   C15   A    
C10   O6    A    
C5    C6    S    
C14   C16   A    
Cu2   O7    S    
Cu2   N1    S    
C11   C21   A    
C25   O9    D    
C10   O8    A    
C5    H10   S    
C12   C22   A    
C12   C14   A    
C9    O7    A    
C6    H9    S    
C11   H3    S    
C4    C6    D    
C21   C24   A    
C14   H6    S    
C1    C3    S    
C15   C17   A    
C13   H5    S    
Cu1   O8    S    
C17   C19   A    
Cu2   O3    S    
C12   H4    S    
Cu1   Cu2   S    
C22   C23   A    
Cu1   O4    S    
C1    O1    A    
C2    O2    A    
C20   C24   A    
C3    H12   S    
C20   C22   A    
C4    H11   S    
C25   O10   S    
