data_mof_unit_60632.cif
_audit_creation_date              2012-12-10T19:57:57-0500
_audit_creation_method            fapswitch 2.2
_symmetry_space_group_name_H-M    P1
_symmetry_Int_Tables_number       1
_space_group_crystal_system       triclinic
_cell_length_a                    38.830831
_cell_length_b                    32.081803
_cell_length_c                    21.746941
_cell_angle_alpha                 90.009976
_cell_angle_beta                  124.288525
_cell_angle_gamma                 90.10728
_cell_volume                      22383.2648119

loop_
_atom_site_label
_atom_site_type_symbol
_atom_type_description
_atom_site_fract_x
_atom_site_fract_y
_atom_site_fract_z
_atom_type_partial_charge
C1    C     C_R   0.419303 0.499957 0.419151 0.901301
C2    C     C_R   0.706654 0.500404 0.705729 0.051040
C3    C     C_2   0.001333 0.007537 0.186261 -0.399109
C4    C     C_2   0.530805 0.473746 0.748156 0.191046
C5    C     C_2   0.469483 0.526632 0.252073 0.188078
C6    C     C_2   0.030804 0.973823 0.748144 0.190845
C7    C     C_2   0.970634 0.027996 0.252939 0.189980
C8    C     C_2   0.507615 0.501240 0.692697 -0.411339
C9    C     C_2   0.492213 0.498772 0.307124 -0.412648
C10   C     C_2   0.007516 0.001238 0.692601 -0.412061
C11   C     C_2   0.991622 0.998900 0.306525 -0.416506
C12   C     C_R   0.228107 0.464013 0.213687 -0.177277
C13   C     C_R   0.793352 0.999453 0.294040 0.050126
C14   C     C_R   0.771720 0.466628 0.795888 -0.177100
C15   C     C_R   0.728008 0.981378 0.179960 -0.177255
C16   C     C_R   0.271879 0.980890 0.819395 -0.177328
C17   C     C_R   0.206617 0.500293 0.207978 0.102644
C18   C     C_R   0.793379 0.500261 0.792083 0.102121
C19   C     C_R   0.706629 0.999287 0.207804 0.099524
C20   C     C_R   0.293364 0.999492 0.792250 0.099548
C21   C     C_R   0.228316 0.536607 0.245588 -0.282153
C22   C     C_R   0.771848 0.533969 0.745008 -0.281105
C23   C     C_R   0.728445 0.017144 0.278857 -0.277607
C24   C     C_R   0.206643 0.999788 0.706068 0.050439
C25   C     C_R   0.271654 0.018122 0.721927 -0.277478
C26   C     C_3   0.434184 0.694123 0.831223 0.098096
C27   C     C_3   0.413667 0.725470 0.767040 -0.359138
C28   C     C_3   0.414183 0.709829 0.701281 -0.953797
C29   C     C_3   0.565414 0.694348 0.169398 0.098769
C30   C     C_3   0.584543 0.726222 0.232895 -0.363264
C31   C     C_3   0.583464 0.710470 0.298008 -0.947587
C32   C     C_3   0.001517 0.195110 0.860435 0.095117
C33   C     C_3   0.008233 0.227775 0.816766 -0.365007
C34   C     C_3   0.040366 0.213158 0.802113 -0.940229
C35   C     C_R   0.271497 0.464041 0.256819 -0.259998
C36   C     C_3   0.998265 0.193175 0.139907 0.092695
C37   C     C_3   0.989832 0.224866 0.182575 -0.359036
C38   C     C_3   0.959004 0.207669 0.198668 -0.954995
C39   C     C_3   0.555307 0.439028 0.741423 -0.334440
C40   C     C_3   0.584198 0.414383 0.812901 -0.916958
C41   C     C_3   0.445660 0.561883 0.259329 -0.336392
C42   C     C_3   0.417311 0.587039 0.188252 -0.903725
C43   C     C_3   0.055437 0.939206 0.741521 -0.334194
C44   C     C_3   0.084426 0.914660 0.813075 -0.920040
C45   C     C_3   0.949481 0.065210 0.262104 -0.329472
C46   C     C_R   0.728330 0.466737 0.752782 -0.261046
C47   C     C_3   0.923416 0.092219 0.192579 -0.930681
C48   C     C_3   0.297879 0.576132 0.393743 0.063522
C49   C     C_3   0.325156 0.613941 0.435939 -0.293233
C50   C     C_3   0.331421 0.618983 0.511416 -0.979456
C51   C     C_3   0.701879 0.562716 0.587232 0.062694
C52   C     C_3   0.674542 0.597897 0.535094 -0.294335
C53   C     C_3   0.667548 0.593757 0.458909 -0.973949
C54   C     C_3   0.800505 0.006381 0.445732 0.062699
C55   C     C_3   0.829301 0.025544 0.523075 -0.298349
C56   C     C_3   0.838653 0.994755 0.584136 -0.970778
C57   C     C_R   0.771400 0.981524 0.223060 -0.260492
C58   C     C_3   0.199440 0.008886 0.554652 0.061127
C59   C     C_3   0.170814 0.028855 0.478107 -0.295341
C60   C     C_3   0.161141 0.998836 0.415806 -0.972557
C61   C     C_R   0.228488 0.981097 0.776321 -0.261111
C62   C     C_1   0.162199 0.500283 0.163049 -0.035725
C63   C     C_1   0.837799 0.500254 0.836956 -0.035674
C64   C     C_1   0.662207 0.999597 0.163064 -0.036110
C65   C     C_R   0.580695 0.500039 0.580877 0.901375
C66   C     C_1   0.337788 0.999715 0.836964 -0.036138
C67   C     C_1   0.337793 0.499950 0.338035 -0.006917
C68   C     C_1   0.662204 0.500182 0.662140 -0.007119
C69   C     C_1   0.837801 0.999676 0.337437 -0.009171
C70   C     C_1   0.162196 0.999991 0.662652 -0.009055
C71   C     C_1   0.375083 0.499879 0.375016 -0.183251
C72   C     C_1   0.624914 0.500112 0.625103 -0.183087
C73   C     C_1   0.875089 0.999833 0.374582 -0.182844
C74   C     C_1   0.124908 0.000083 0.625475 -0.183412
C75   C     C_1   0.124890 0.500179 0.125309 -0.183913
C76   C     C_R   0.919306 0.999955 0.419040 0.901943
C77   C     C_1   0.875108 0.500156 0.874684 -0.183835
C78   C     C_1   0.624897 0.999811 0.125347 -0.184176
C79   C     C_1   0.375101 0.999861 0.874660 -0.184217
C80   C     C_R   0.499955 0.419294 0.999934 0.912015
C81   C     C_R   0.999955 0.919294 0.999933 0.912012
C82   C     C_R   0.499838 0.498448 0.880513 0.951794
C83   C     C_R   0.500169 0.501556 0.119491 0.952260
C84   C     C_R   0.999834 0.998453 0.880509 0.951841
C85   C     C_R   0.000195 0.001438 0.119511 0.952129
C86   C     C_R   0.500041 0.580684 0.000059 0.900115
C87   C     C_R   0.080693 0.000038 0.580975 0.901644
C88   C     C_R   0.000039 0.080681 0.000036 0.901738
C89   C     C_R   0.502170 0.500075 0.621348 0.928486
C90   C     C_R   0.497785 0.499923 0.378600 0.928474
C91   C     C_R   0.002125 0.000075 0.621306 0.928255
C92   C     C_R   0.997627 0.999958 0.378428 0.929021
C93   C     C_R   0.999972 0.419403 0.999992 0.903911
C94   C     C_R   0.499993 0.919406 0.999991 0.903311
C95   C     C_R   0.080639 0.500037 0.080714 0.905771
C96   C     C_R   0.919361 0.500023 0.919284 0.905974
C97   C     C_R   0.580641 0.999991 0.080723 0.906401
C98   C     C_R   0.271908 0.536639 0.289955 0.484090
C99   C     C_R   0.419358 0.999982 0.919277 0.906358
C100  C     C_R   0.000005 0.580688 0.000008 0.908215
C101  C     C_R   0.500005 0.080688 0.000008 0.909566
C102  C     C_R   0.978522 0.728233 0.024421 -0.181134
C103  C     C_R   0.021161 0.728325 0.974997 -0.181360
C104  C     C_R   0.479597 0.228237 0.026548 -0.180218
C105  C     C_R   0.520083 0.228322 0.972875 -0.180202
C106  C     C_R   0.999868 0.706658 0.999762 0.167700
C107  C     C_R   0.499866 0.206657 0.999764 0.167700
C108  C     C_R   0.520044 0.271751 0.972798 -0.181626
C109  C     C_R   0.728260 0.533957 0.700701 0.485147
C110  C     C_R   0.479559 0.271666 0.026473 -0.180934
C111  C     C_R   0.021122 0.771755 0.974917 -0.182364
C112  C     C_R   0.978484 0.771662 0.024345 -0.181773
C113  C     C_R   0.499788 0.293329 0.999609 0.169017
C114  C     C_R   0.999789 0.793330 0.999604 0.169124
C115  C     C_1   0.999926 0.662243 0.999883 -0.069915
C116  C     C_1   0.499924 0.162243 0.999883 -0.068599
C117  C     C_1   0.499812 0.337743 0.999661 -0.070083
C118  C     C_1   0.999812 0.837743 0.999658 -0.070939
C119  C     C_1   0.499861 0.375049 0.999763 -0.180475
C120  C     C_R   0.772016 0.016816 0.322850 0.484267
C121  C     C_1   0.999861 0.875049 0.999761 -0.181097
C122  C     C_2   0.532815 0.479927 0.817184 -0.144818
C123  C     C_2   0.467362 0.520408 0.182960 -0.147329
C124  C     C_2   0.032811 0.980006 0.817164 -0.147975
C125  C     C_2   0.968066 0.021491 0.183516 -0.151043
C126  C     C_1   0.999968 0.624935 0.999965 -0.178773
C127  C     C_1   0.499968 0.124935 0.999965 -0.177658
C128  C     C_R   0.983791 0.271842 0.933659 -0.272435
C129  C     C_R   0.014667 0.271927 0.066601 -0.270896
C130  C     C_R   0.464840 0.771786 0.944292 -0.271428
C131  C     C_R   0.228082 0.017871 0.677945 0.484918
C132  C     C_R   0.535117 0.772017 0.056308 -0.271626
C133  C     C_R   0.999245 0.293433 0.000113 0.016270
C134  C     C_R   0.499985 0.793447 0.000214 0.018334
C135  C     C_R   0.534999 0.728536 0.057889 0.452465
C136  C     C_R   0.464974 0.728302 0.942963 0.451286
C137  C     C_R   0.013948 0.228428 0.066823 0.451907
C138  C     C_R   0.984817 0.228374 0.933563 0.452973
C139  C     C_R   0.500014 0.706672 0.000419 -0.102830
C140  C     C_R   0.999536 0.206655 0.000226 -0.101774
C141  C     C_1   0.999513 0.337849 0.000061 -0.000210
C142  C     C_R   0.293344 0.500298 0.294408 0.050762
C143  C     C_1   0.499985 0.837858 0.000079 -0.000103
C144  C     C_1   0.500082 0.662153 0.000351 0.026715
C145  C     C_1   0.999905 0.162142 0.000273 0.026867
C146  C     C_1   0.500106 0.624877 0.000252 -0.185303
C147  C     C_1   0.000073 0.124870 0.000233 -0.185016
C148  C     C_1   0.999750 0.375155 0.999936 -0.190367
C149  C     C_1   0.499988 0.875163 0.000003 -0.190386
C150  C     C_2   0.498888 0.492159 0.813938 -0.400353
C151  C     C_2   0.501163 0.507834 0.186106 -0.401143
C152  C     C_2   0.998866 0.992159 0.813920 -0.400766
H1    H     H_    0.561753 0.473891 0.870536 0.182028
H2    H     H_    0.026962 0.288849 0.118142 0.168365
H3    H     H_    0.770396 0.997724 0.437633 0.140015
H4    H     H_    0.859098 0.035047 0.530945 0.228177
H5    H     H_    0.814376 0.053763 0.527844 0.230186
H6    H     H_    0.809359 0.985257 0.578080 0.266997
H7    H     H_    0.859559 0.009681 0.639447 0.269332
H8    H     H_    0.854417 0.966658 0.581376 0.266150
H9    H     H_    0.183982 0.980048 0.556672 0.136552
H10   H     H_    0.229468 0.000419 0.562391 0.139951
H11   H     H_    0.141119 0.038199 0.470652 0.229549
H12   H     H_    0.186008 0.057265 0.474462 0.230252
H13   H     H_    0.437501 0.788583 0.901347 0.165671
H14   H     H_    0.190333 0.989510 0.421455 0.266937
H15   H     H_    0.140374 0.014337 0.361116 0.270439
H16   H     H_    0.145101 0.970573 0.417442 0.264553
H17   H     H_    0.562432 0.788994 0.099218 0.166299
H18   H     H_    0.468936 0.495226 0.760892 0.161176
H19   H     H_    0.531080 0.504510 0.239146 0.161427
H20   H     H_    0.968891 0.995154 0.760880 0.163316
H21   H     H_    0.031086 0.003149 0.239231 0.163505
H22   H     H_    0.494654 0.528508 0.702330 0.149999
H23   H     H_    0.504727 0.471292 0.297047 0.151420
H24   H     H_    0.994449 0.028456 0.702127 0.149875
H25   H     H_    0.438485 0.526736 0.129672 0.182346
H26   H     H_    0.002438 0.970658 0.294847 0.152977
H27   H     H_    0.288008 0.435903 0.260688 0.164957
H28   H     H_    0.711688 0.440696 0.756265 0.163678
H29   H     H_    0.787826 0.967839 0.201027 0.163252
H30   H     H_    0.211980 0.966853 0.797805 0.162756
H31   H     H_    0.211332 0.435857 0.184548 0.152806
H32   H     H_    0.788363 0.440499 0.832367 0.152550
H33   H     H_    0.711145 0.967548 0.124907 0.153592
H34   H     H_    0.288661 0.966462 0.873883 0.153292
H35   H     H_    0.211559 0.564795 0.240524 0.156089
H36   H     H_    0.061772 0.974049 0.870520 0.181698
H37   H     H_    0.788733 0.560171 0.742658 0.156856
H38   H     H_    0.711792 0.031303 0.300084 0.158803
H39   H     H_    0.288391 0.032816 0.701254 0.158898
H40   H     H_    0.463850 0.288311 0.047282 0.141753
H41   H     H_    0.535742 0.288463 0.951966 0.140666
H42   H     H_    0.961939 0.788305 0.043506 0.141583
H43   H     H_    0.037654 0.788470 0.955732 0.140615
H44   H     H_    0.417987 0.663640 0.810181 0.171551
H45   H     H_    0.467242 0.688728 0.850458 0.121872
H46   H     H_    0.380849 0.730688 0.748439 0.237036
H47   H     H_    0.939472 0.028992 0.130500 0.180739
H48   H     H_    0.430579 0.755686 0.786366 0.215460
H49   H     H_    0.446765 0.705009 0.718344 0.266831
H50   H     H_    0.399196 0.733217 0.655815 0.268016
H51   H     H_    0.396706 0.680006 0.679882 0.263844
H52   H     H_    0.582365 0.664380 0.191485 0.172350
H53   H     H_    0.532355 0.687868 0.149239 0.121471
H54   H     H_    0.617416 0.732421 0.252573 0.237222
H55   H     H_    0.566931 0.755936 0.212458 0.215745
H56   H     H_    0.550799 0.704613 0.279799 0.265696
H57   H     H_    0.597371 0.734276 0.342923 0.268349
H58   H     H_    0.962000 0.711520 0.043628 0.142748
H59   H     H_    0.601662 0.681199 0.320613 0.261731
H60   H     H_    0.992090 0.165270 0.828986 0.169005
H61   H     H_    0.031501 0.188783 0.914955 0.124439
H62   H     H_    0.978214 0.233837 0.762705 0.238020
H63   H     H_    0.019311 0.257388 0.848810 0.215939
H64   H     H_    0.070821 0.207477 0.855525 0.265513
H65   H     H_    0.044654 0.237525 0.770714 0.268328
H66   H     H_    0.029646 0.184016 0.768640 0.265116
H67   H     H_    0.008947 0.163576 0.171924 0.170923
H68   H     H_    0.968695 0.185676 0.085369 0.122740
H69   H     H_    0.037719 0.711682 0.955863 0.142342
H70   H     H_    0.019544 0.232743 0.236101 0.238830
H71   H     H_    0.976831 0.253842 0.149233 0.215272
H72   H     H_    0.929046 0.199429 0.145921 0.267007
H73   H     H_    0.952899 0.231612 0.228259 0.270014
H74   H     H_    0.972043 0.179549 0.234461 0.268873
H75   H     H_    0.608871 0.435002 0.856781 0.259554
H76   H     H_    0.566198 0.399815 0.832809 0.266230
H77   H     H_    0.599563 0.389209 0.801693 0.256314
H78   H     H_    0.532987 0.416552 0.698227 0.225206
H79   H     H_    0.574684 0.452671 0.723561 0.202974
H80   H     H_    0.463911 0.211527 0.047402 0.142780
H81   H     H_    0.435635 0.601173 0.168649 0.264382
H82   H     H_    0.392240 0.566894 0.144001 0.259895
H83   H     H_    0.402443 0.612569 0.199837 0.259833
H84   H     H_    0.425990 0.548691 0.276913 0.206964
H85   H     H_    0.468410 0.583955 0.302887 0.224838
H86   H     H_    0.109028 0.935366 0.856880 0.257987
H87   H     H_    0.066488 0.900019 0.833045 0.266987
H88   H     H_    0.099879 0.889549 0.801939 0.256514
H89   H     H_    0.033201 0.916652 0.698398 0.225497
H90   H     H_    0.074759 0.952933 0.723608 0.201290
H91   H     H_    0.535806 0.211676 0.952093 0.142422
H92   H     H_    0.942918 0.104399 0.173960 0.263202
H93   H     H_    0.896813 0.074032 0.147039 0.261803
H94   H     H_    0.910668 0.119181 0.205618 0.262018
H95   H     H_    0.928692 0.053853 0.278544 0.206816
H96   H     H_    0.973789 0.085640 0.307047 0.224652
H97   H     H_    0.313158 0.547787 0.428410 0.136932
H98   H     H_    0.266831 0.580389 0.384604 0.138765
H99   H     H_    0.356070 0.610194 0.444620 0.231685
H100  H     H_    0.310251 0.642544 0.402386 0.227525
H101  H     H_    0.300941 0.623386 0.504075 0.267590
H102  H     H_    0.971458 0.288698 0.882107 0.167418
H103  H     H_    0.351233 0.646743 0.540383 0.268181
H104  H     H_    0.347130 0.591084 0.546549 0.265325
H105  H     H_    0.686362 0.532389 0.560982 0.136337
H106  H     H_    0.732736 0.564012 0.594795 0.139036
H107  H     H_    0.643860 0.597185 0.527988 0.231920
H108  H     H_    0.689711 0.628386 0.560059 0.228170
H109  H     H_    0.697785 0.595008 0.464500 0.267170
H110  H     H_    0.647688 0.619801 0.422590 0.265155
H111  H     H_    0.651585 0.563846 0.432217 0.265817
H112  H     H_    0.815708 0.977732 0.442555 0.137021
O1    O     O_R   0.439010 0.534430 0.439020 -0.618449
O2    O     O_R   0.939020 0.499970 0.990130 -0.614518
O3    O     O_R   0.560980 0.999970 0.009870 -0.615355
O4    O     O_R   0.439020 0.999970 0.990130 -0.615334
O5    O     O_R   0.000010 0.561020 0.051000 -0.615986
O6    O     O_R   0.999990 0.561020 0.949000 -0.616010
O7    O     O_R   0.500010 0.061020 0.051000 -0.615772
O8    O     O_R   0.499990 0.061020 0.949000 -0.615838
O9    O     O_R   0.439010 0.465570 0.438980 -0.615200
O10   O     O_R   0.560990 0.465570 0.561020 -0.625274
O11   O     O_R   0.939010 0.965570 0.438980 -0.616540
O12   O     O_R   0.560990 0.534430 0.560980 -0.607389
O13   O     O_R   0.060990 0.965570 0.561020 -0.625652
O14   O     O_R   0.500010 0.534430 0.590460 -0.614258
O15   O     O_R   0.499990 0.534430 0.409540 -0.629328
O16   O     O_R   0.000010 0.034430 0.590460 -0.614378
O17   O     O_R   0.999990 0.034430 0.409540 -0.629742
O18   O     O_R   0.500010 0.465570 0.590420 -0.628763
O19   O     O_R   0.499990 0.465570 0.409580 -0.614417
O20   O     O_R   0.000010 0.965570 0.590420 -0.628790
O21   O     O_R   0.999990 0.965570 0.409580 -0.615058
O22   O     O_R   0.534430 0.439010 0.034350 -0.618998
O23   O     O_R   0.939010 0.034430 0.439020 -0.616445
O24   O     O_R   0.465570 0.439010 0.965650 -0.615561
O25   O     O_R   0.034430 0.939010 0.034350 -0.619169
O26   O     O_R   0.965570 0.939010 0.965650 -0.615815
O27   O     O_R   0.534420 0.500000 0.943920 -0.620441
O28   O     O_R   0.465580 0.500000 0.056080 -0.620493
O29   O     O_R   0.034420 0.000000 0.943920 -0.622609
O30   O     O_R   0.965580 0.000000 0.056080 -0.621817
O31   O     O_R   0.465560 0.500000 0.875080 -0.622965
O32   O     O_R   0.534440 0.500000 0.124920 -0.622934
O33   O     O_R   0.965560 1.000000 0.875080 -0.620966
O34   O     O_R   0.060990 0.034430 0.560980 -0.606657
O35   O     O_R   0.034440 1.000000 0.124920 -0.621141
O36   O     O_R   0.534430 0.560990 0.034430 -0.612846
O37   O     O_R   0.465570 0.560990 0.965570 -0.616395
O38   O     O_R   0.034430 0.060990 0.034430 -0.613792
O39   O     O_R   0.965570 0.060990 0.965570 -0.616767
O40   O     O_R   0.000000 0.439050 0.051090 -0.615583
O41   O     O_R   0.000000 0.439050 0.948910 -0.615505
O42   O     O_R   0.500000 0.939050 0.051090 -0.615362
O43   O     O_R   0.500000 0.939050 0.948910 -0.615236
O44   O     O_3   0.429542 0.707233 0.888365 -0.632777
O45   O     O_R   0.060990 0.500040 0.112010 -0.615993
O46   O     O_3   0.570404 0.707721 0.112781 -0.631786
O47   O     O_3   0.968723 0.207377 0.867065 -0.632624
O48   O     O_3   0.030642 0.207571 0.133562 -0.631956
O49   O     O_3   0.293485 0.572882 0.324914 -0.639112
O50   O     O_3   0.706873 0.567926 0.656289 -0.637600
O51   O     O_3   0.793626 0.035936 0.391826 -0.638026
O52   O     O_3   0.206590 0.037733 0.609747 -0.637446
O53   O     O_R   0.939010 0.500040 0.887990 -0.616051
O54   O     O_R   0.560990 0.000040 0.112010 -0.616230
O55   O     O_R   0.439010 0.000040 0.887990 -0.616250
O56   O     O_R   0.060980 0.499970 0.009870 -0.614306
Zn1   Zn    Zn3+2 0.500000 0.545980 0.500000 0.955922
Zn2   Zn    Zn3+2 0.999990 0.500050 0.931820 0.969611
Zn3   Zn    Zn3+2 0.500010 0.000050 0.068180 0.968777
Zn4   Zn    Zn3+2 0.499990 0.000050 0.931820 0.968785
Zn5   Zn    Zn3+2 0.000000 0.045980 0.500000 0.959638
Zn6   Zn    Zn3+2 0.500000 0.454020 0.500000 0.949848
Zn7   Zn    Zn3+2 0.000000 0.954020 0.500000 0.948206
Zn8   Zn    Zn3+2 0.545980 0.500000 0.045940 0.962090
Zn9   Zn    Zn3+2 0.454020 0.500000 0.954060 0.961877
Zn10  Zn    Zn3+2 0.045980 1.000000 0.045940 0.960396
Zn11  Zn    Zn3+2 0.954020 1.000000 0.954060 0.961062
Zn12  Zn    Zn3+2 0.000010 0.500050 0.068180 0.969527

loop_
_geom_bond_atom_site_label_1
_geom_bond_atom_site_label_2
_ccdc_geom_bond_type
C24   C61   A    
C36   O48   S    
C3    C85   S    
O38   Zn10  S    
C26   H44   S    
C75   C95   S    
C51   O50   S    
C135  C139  A    
C66   C79   T    
C15   H33   S    
O54   Zn3   S    
C79   C99   S    
C117  C119  T    
C129  H2    S    
C36   H67   S    
C26   H45   S    
C59   H12   S    
C134  C143  S    
C70   C74   T    
C76   O23   A    
C81   O26   A    
C38   H74   S    
C59   C60   S    
C65   O12   A    
C130  C134  A    
C27   H46   S    
O30   Zn11  S    
C45   C47   S    
C96   O2    A    
C137  C140  A    
C51   C52   S    
C88   O38   A    
O24   Zn9   S    
C100  O6    A    
C84   O29   A    
C17   C21   A    
C81   C121  S    
C90   O15   A    
C108  C113  A    
C140  C145  S    
C19   C23   A    
C43   C44   S    
C37   C38   S    
C31   H57   S    
O5    Zn12  S    
C16   C20   A    
C22   C109  A    
O6    Zn2   S    
C4    C122  S    
C83   O28   A    
C99   O55   A    
C138  C140  A    
C129  C133  A    
O27   Zn8   S    
O18   Zn6   S    
C62   C75   T    
O45   Zn12  S    
C29   O46   S    
C58   H10   S    
C47   H93   S    
C20   C66   S    
C92   O21   A    
C44   H86   S    
C9    C90   S    
C80   O22   A    
C106  C115  S    
C28   H50   S    
C50   H101  S    
C103  H69   S    
C104  C110  A    
C138  O47   S    
C130  H13   S    
C150  H18   S    
C30   H55   S    
C82   O27   A    
O25   Zn10  S    
C143  C149  T    
C129  C137  A    
C132  C134  A    
C94   O42   A    
C105  H91   S    
C104  C107  A    
O10   Zn6   S    
C2    C109  A    
C26   O44   S    
C109  O50   S    
C24   C131  A    
C112  C114  A    
C33   H63   S    
C34   H65   S    
C24   C70   S    
C105  C107  A    
C61   H30   S    
C100  C126  S    
C28   H49   S    
C36   C37   S    
C2    C68   S    
C47   H92   S    
C152  H20   S    
C8    H22   S    
C12   H31   S    
C13   C57   A    
C52   H108  S    
C151  H19   S    
O37   Zn9   S    
C83   O32   A    
C128  C138  A    
C49   H100  S    
O2    Zn12  S    
O53   Zn2   S    
C97   O3    A    
C128  H102  S    
C50   H103  S    
C74   C87   S    
C98   O49   S    
O35   Zn10  S    
C80   C119  S    
O9    Zn6   S    
C29   H52   S    
C98   C142  A    
C101  O8    A    
C44   H88   S    
C45   H96   S    
O16   Zn5   S    
C43   H90   S    
C35   H27   S    
C99   O4    A    
C80   O24   A    
C60   H15   S    
C91   O20   A    
C37   H71   S    
C39   C40   S    
C124  H36   S    
O34   Zn5   S    
C76   O11   A    
O56   Zn2   S    
C40   H76   S    
C5    C9    D    
C29   C30   S    
C42   H83   S    
C136  O44   S    
C55   H5    S    
C131  O52   S    
C78   C97   S    
C114  C118  S    
C12   C35   A    
C112  H42   S    
O19   Zn6   S    
C113  C117  S    
C51   H106  S    
C122  H1    S    
C16   C61   A    
C58   O52   S    
C13   C120  A    
C52   C53   S    
C84   O33   A    
C54   C55   S    
C90   O19   A    
C18   C22   A    
C28   H51   S    
C64   C78   T    
C65   C72   S    
C77   C96   S    
C53   H111  S    
C137  O48   S    
C34   H64   S    
C67   C142  S    
C85   O35   A    
C13   C69   S    
C86   O36   A    
C101  C127  S    
C9    H23   S    
O43   Zn4   S    
C107  C116  S    
C50   H104  S    
C35   C142  A    
C49   C50   S    
C8    C89   S    
C40   H77   S    
C81   O25   A    
C23   H38   S    
C111  H43   S    
O21   Zn7   S    
C55   C56   S    
C41   C42   S    
O40   Zn12  S    
C93   O40   A    
C102  C112  A    
C123  H25   S    
C14   C46   A    
C41   H85   S    
C15   C19   A    
C101  O7    A    
C26   C27   S    
C115  C126  T    
C122  C150  D    
C56   H7    S    
C82   O31   A    
C30   C31   S    
C42   H81   S    
C20   C25   A    
C93   C148  S    
C103  C111  A    
C38   H72   S    
C48   H97   S    
C95   O45   A    
C5    C41   S    
C116  C127  T    
C12   C17   A    
C69   C73   T    
O26   Zn11  S    
C100  O5    A    
C45   H95   S    
C95   O56   A    
C136  C139  A    
C86   C146  S    
C145  C147  T    
C83   C151  S    
C123  C151  D    
O41   Zn2   S    
C46   H28   S    
C39   H78   S    
C144  C146  T    
C25   H39   S    
C54   H3    S    
C58   C59   S    
C43   H89   S    
O14   Zn1   S    
C17   C62   S    
C19   C64   S    
O7    Zn3   S    
C89   O18   A    
C1    C71   S    
C7    C125  S    
C22   H37   S    
C38   H73   S    
C48   C49   S    
C94   O43   A    
C73   C76   S    
O20   Zn7   S    
O17   Zn5   S    
C132  H17   S    
O55   Zn4   S    
O32   Zn8   S    
C87   O34   A    
C96   O53   A    
C6    C10   D    
C29   H53   S    
O22   Zn8   S    
C33   H62   S    
C34   H66   S    
C133  C141  S    
C54   H112  S    
C32   C33   S    
O15   Zn1   S    
O39   Zn11  S    
C31   H56   S    
C21   C98   A    
C97   O54   A    
C88   C147  S    
O36   Zn8   S    
C111  C114  A    
C67   C71   T    
O31   Zn9   S    
O1    Zn1   S    
O28   Zn9   S    
C49   H99   S    
O23   Zn5   S    
C58   H9    S    
C47   H94   S    
O29   Zn10  S    
C14   C18   A    
O11   Zn7   S    
C6    C124  S    
C4    C8    D    
C36   H68   S    
C57   H29   S    
C53   H109  S    
C2    C46   A    
C94   C149  S    
C7    C11   D    
C60   H16   S    
O13   Zn7   S    
C7    C45   S    
C37   H70   S    
C32   H60   S    
C18   C63   S    
C104  H80   S    
C30   H54   S    
C87   O13   A    
C56   H6    S    
C141  C148  T    
C11   C92   S    
C3    H21   S    
O42   Zn3   S    
C1    O9    A    
C135  O46   S    
C68   C72   T    
C124  C152  D    
C48   H98   S    
C15   C57   A    
C88   O39   A    
C21   H35   S    
C10   H24   S    
C55   H4    S    
C105  C108  A    
C120  O51   S    
O12   Zn1   S    
C59   H11   S    
C23   C120  A    
C102  H58   S    
C52   H107  S    
C53   H110  S    
C118  C121  T    
C39   H79   S    
C92   O17   A    
O33   Zn11  S    
C139  C144  S    
C4    C39   S    
C86   O37   A    
C33   C34   S    
C1    O1    A    
C48   O49   S    
C11   H26   S    
C110  C113  A    
C82   C150  S    
O8    Zn4   S    
C32   H61   S    
C84   C152  S    
C25   C131  A    
C44   H87   S    
O3    Zn4   S    
C63   C77   T    
C93   O41   A    
C65   O10   A    
C130  C136  A    
C27   H48   S    
C10   C91   S    
C14   H32   S    
C3    C125  D    
C41   H84   S    
C5    C123  S    
C32   O47   S    
C6    C43   S    
C40   H75   S    
C56   H8    S    
C16   H34   S    
C128  C133  A    
C42   H82   S    
C132  C135  A    
C85   O30   A    
C110  H40   S    
C89   O14   A    
C102  C106  A    
C103  C106  A    
C54   O51   S    
C51   H105  S    
C91   O16   A    
C31   H59   S    
C125  H47   S    
C60   H14   S    
C27   C28   S    
C108  H41   S    
O4    Zn3   S    
