data_mof_unit_57051.cif
_audit_creation_date              2012-12-11T14:46:31-0500
_audit_creation_method            fapswitch 2.2
_symmetry_space_group_name_H-M    P1
_symmetry_Int_Tables_number       1
_space_group_crystal_system       triclinic
_cell_length_a                    17.40249
_cell_length_b                    17.551583
_cell_length_c                    6.939488
_cell_angle_alpha                 90.000072
_cell_angle_beta                  91.400048
_cell_angle_gamma                 90.0
_cell_volume                      2118.97310531

loop_
_atom_site_label
_atom_site_type_symbol
_atom_type_description
_atom_site_fract_x
_atom_site_fract_y
_atom_site_fract_z
_atom_type_partial_charge
O1    O     O_R   0.796490 0.328940 0.373020 -0.531372
O2    O     O_R   0.203510 0.671060 0.626980 -0.531371
O3    O     O_R   0.203510 0.828940 0.626980 -0.531371
O4    O     O_R   0.796490 0.171060 0.373020 -0.531371
O5    O     O_R   0.805560 0.173330 0.702970 -0.544735
O6    O     O_R   0.194440 0.826670 0.297030 -0.544734
O7    O     O_R   0.194440 0.673330 0.297030 -0.544734
O8    O     O_R   0.805560 0.326670 0.702970 -0.544736
O9    O     O_R   0.658440 0.172360 0.870170 -0.538426
O10   O     O_R   0.341560 0.827640 0.129830 -0.538427
O11   O     O_R   0.341560 0.672360 0.129830 -0.538427
O12   O     O_R   0.658440 0.327640 0.870170 -0.538426
C1    C     C_R   0.822158 0.144271 0.537539 0.687221
C2    C     C_R   0.177842 0.855729 0.462461 0.687218
C3    C     C_R   0.177842 0.644271 0.462460 0.687218
C4    C     C_R   0.822158 0.355729 0.537539 0.687221
O13   O     O_3   0.679200 0.250000 0.537050 -0.364526
O14   O     O_3   0.320800 0.750000 0.462950 -0.364527
V1    V     V_3+5 0.736420 0.250000 0.813120 1.431258
V2    V     V_3+5 0.263580 0.750000 0.186880 1.431264
O15   O     O_R   0.649370 0.327980 0.199650 -0.533726
O16   O     O_R   0.350630 0.672020 0.800350 -0.533726
O17   O     O_R   0.350630 0.827980 0.800350 -0.533726
O18   O     O_R   0.649370 0.172020 0.199650 -0.533726
C5    C     C_R   0.630620 0.354345 0.029243 0.720664
C6    C     C_R   0.369380 0.645654 0.970757 0.720669
C7    C     C_R   0.369380 0.854345 0.970757 0.720668
C8    C     C_R   0.630620 0.145654 0.029243 0.720666
H1    H     H_    0.942503 0.130000 0.317365 0.097968
H2    H     H_    0.057496 0.869999 0.682634 0.097968
H3    H     H_    0.057497 0.630001 0.682634 0.097969
H4    H     H_    0.942503 0.369999 0.317366 0.097968
V3    V     V_3+5 0.718510 0.250000 0.312740 1.457385
V4    V     V_3+5 0.281490 0.750000 0.687260 1.457387
O19   O     O_3   0.775740 0.250000 0.038930 -0.370037
O20   O     O_3   0.224260 0.750000 0.961070 -0.370036
C9    C     C_1   0.574223 0.083240 0.016034 -0.168113
C10   C     C_1   0.425777 0.916760 0.983966 -0.168113
C11   C     C_1   0.425777 0.583240 0.983965 -0.168112
C12   C     C_1   0.574223 0.416760 0.016035 -0.168112
C13   C     C_1   0.527496 0.030905 0.005841 0.041986
C14   C     C_1   0.472504 0.969095 0.994159 0.041985
C15   C     C_1   0.472503 0.530905 0.994158 0.041986
C16   C     C_1   0.527496 0.469095 0.005842 0.041986
C17   C     C_R   0.878503 0.080191 0.541074 -0.142810
C18   C     C_R   0.121497 0.919809 0.458926 -0.142811
C19   C     C_R   0.121497 0.580191 0.458925 -0.142811
C20   C     C_R   0.878503 0.419809 0.541075 -0.142808
C21   C     C_R   0.065203 0.033689 0.305529 -0.013277
C22   C     C_R   0.934796 0.966311 0.694469 -0.013275
C23   C     C_R   0.934796 0.533690 0.694467 -0.013272
C24   C     C_R   0.065203 0.466311 0.305528 -0.013279
C25   C     C_R   0.127391 0.981298 0.327262 -0.040945
C26   C     C_R   0.872609 0.018702 0.672738 -0.040945
C27   C     C_R   0.872609 0.481298 0.672737 -0.040943
C28   C     C_R   0.127391 0.518702 0.327260 -0.040945
C29   C     C_R   0.058910 0.916701 0.581352 -0.174412
C30   C     C_R   0.941089 0.083298 0.418647 -0.174415
C31   C     C_R   0.941089 0.416702 0.418647 -0.174418
C32   C     C_R   0.058910 0.583299 0.581352 -0.174412
C33   C     C_R   0.998528 0.970632 0.570083 0.086313
C34   C     C_R   0.001472 0.029368 0.429916 0.086310
C35   C     C_R   0.001472 0.470633 0.429916 0.086308
C36   C     C_R   0.998527 0.529369 0.570081 0.086315
C37   C     C_2   0.065162 0.090623 0.146679 0.503392
H5    H     H_    0.052971 0.150127 0.174843 0.015987
O21   O     O_2   0.077916 0.070847 0.981776 -0.507092
C38   C     C_2   0.934836 0.909376 0.853318 0.503388
H6    H     H_    0.947029 0.849873 0.825153 0.015989
O22   O     O_2   0.922080 0.929150 0.018220 -0.507092
C39   C     C_2   0.934835 0.590627 0.853313 0.503382
H7    H     H_    0.947029 0.650130 0.825147 0.015991
O23   O     O_2   0.922075 0.570854 0.018215 -0.507094
C40   C     C_2   0.065161 0.409378 0.146676 0.503390
H8    H     H_    0.052970 0.349874 0.174839 0.015989
O24   O     O_2   0.077913 0.429155 0.981773 -0.507092
C41   C     C_2   0.798552 0.005814 0.773401 0.427117
H9    H     H_    0.758016 0.051541 0.793989 0.040655
O25   O     O_2   0.779469 0.942334 0.825966 -0.503430
C42   C     C_2   0.201449 0.994186 0.226601 0.427111
H10   H     H_    0.241989 0.948460 0.206033 0.040651
O26   O     O_2   0.220527 0.057665 0.174016 -0.503430
C43   C     C_2   0.201448 0.505814 0.226597 0.427110
H11   H     H_    0.241989 0.551540 0.206034 0.040651
O27   O     O_2   0.220526 0.442336 0.174005 -0.503431
C44   C     C_2   0.798552 0.494187 0.773402 0.427119
H12   H     H_    0.758020 0.448456 0.794014 0.040655
O28   O     O_2   0.779466 0.557669 0.825943 -0.503428

loop_
_geom_bond_atom_site_label_1
_geom_bond_atom_site_label_2
_ccdc_geom_bond_type
O10   C7    A    
C30   C34   A    
C20   C27   A    
C13   C14   S    
C3    C19   S    
C4    C20   S    
O1    V3    S    
C2    C18   S    
C41   H9    S    
C22   C26   A    
O13   V3    S    
C28   C43   S    
C10   C14   T    
C24   C40   S    
C5    C12   S    
C44   O28   D    
C6    C11   S    
O15   V3    S    
C7    C10   S    
H2    C29   S    
C18   C25   A    
O4    C1    A    
O13   V1    S    
C19   C32   A    
O9    V1    S    
O10   V2    S    
C38   H6    S    
C37   O21   D    
O17   C7    A    
C23   C27   A    
C26   C41   S    
O2    V4    S    
O7    C3    A    
O8    C4    A    
C23   C39   S    
C41   O25   D    
O16   V4    S    
C17   C30   A    
O8    V1    S    
C40   H8    S    
C25   C42   S    
C42   O26   D    
C39   O23   D    
C44   H12   S    
C11   C15   T    
O3    V4    S    
O11   V2    S    
H3    C32   S    
C15   C16   S    
O6    C2    A    
C43   H11   S    
O17   V4    S    
O1    C4    A    
O2    C3    A    
O14   V4    S    
O3    C2    A    
C21   C37   S    
C43   O27   D    
C17   C26   A    
C37   H5    S    
C18   C29   A    
C40   O24   D    
C20   C31   A    
O15   C5    A    
O4    V3    S    
C21   C34   A    
O5    C1    A    
C23   C36   A    
O18   C8    A    
C42   H10   S    
C24   C35   A    
C29   C33   A    
O5    V1    S    
O6    V2    S    
C31   C35   A    
O18   V3    S    
O11   C6    A    
O12   C5    A    
C32   C36   A    
C27   C44   S    
C39   H7    S    
V1    O19   S    
C1    C17   S    
C8    C9    S    
C21   C25   A    
O12   V1    S    
V3    O19   S    
V4    O20   S    
O14   V2    S    
C9    C13   T    
C33   C34   A    
C35   C36   A    
V2    O20   S    
C12   C16   T    
H1    C30   S    
C38   O22   D    
O7    V2    S    
O16   C6    A    
C22   C33   A    
H4    C31   S    
C22   C38   S    
C24   C28   A    
O9    C8    A    
C19   C28   A    
