data_mof_unit_5070.cif
_audit_creation_date              2012-12-10T20:39:53-0500
_audit_creation_method            fapswitch 2.2
_symmetry_space_group_name_H-M    P1
_symmetry_Int_Tables_number       1
_space_group_crystal_system       triclinic
_cell_length_a                    23.40783
_cell_length_b                    10.693973
_cell_length_c                    9.901982
_cell_angle_alpha                 89.789135
_cell_angle_beta                  90.879501
_cell_angle_gamma                 90.144283
_cell_volume                      2478.37457457

loop_
_atom_site_label
_atom_site_type_symbol
_atom_type_description
_atom_site_fract_x
_atom_site_fract_y
_atom_site_fract_z
_atom_type_partial_charge
C1    C     C_R   0.500550 0.260250 0.500073 0.868099
C2    C     C_R   0.971582 0.292820 0.549402 0.170009
C3    C     C_R   0.031125 0.297096 0.545846 -0.156459
C4    C     C_R   0.060245 0.408798 0.520434 -0.055612
C5    C     C_R   0.029913 0.520618 0.497413 -0.058781
C6    C     C_R   0.059739 0.634249 0.471943 -0.032033
C7    C     C_R   0.028117 0.746379 0.449831 0.165524
C8    C     C_R   0.968511 0.741737 0.451343 -0.154477
C9    C     C_R   0.119701 0.410604 0.517960 0.545742
C10   C     C_R   0.120038 0.629712 0.469940 0.545324
C11   C     C_R   0.238864 0.561578 0.607756 0.537004
C12   C     C_R   0.389410 0.501053 0.499134 0.880734
C13   C     C_R   0.298515 0.553623 0.609544 -0.356568
C14   C     C_R   0.327250 0.507016 0.497235 -0.082385
C15   C     C_R   0.296283 0.467537 0.382983 -0.221162
C16   C     C_R   0.237114 0.472635 0.381695 -0.187702
C17   C     C_R   0.208610 0.518249 0.494053 0.252280
C18   C     C_R   0.761270 0.447572 0.399741 -0.105742
C19   C     C_R   0.702067 0.442088 0.400782 -0.200779
C20   C     C_R   0.672151 0.507330 0.499499 -0.037615
C21   C     C_R   0.701384 0.582209 0.593144 -0.249318
C22   C     C_R   0.760655 0.586298 0.593506 -0.104320
C23   C     C_R   0.500153 0.739807 0.499759 0.870266
C24   C     C_R   0.790655 0.518056 0.497435 0.318577
C25   C     C_R   0.521077 0.063522 0.615383 0.128776
C26   C     C_R   0.505725 0.128523 0.498307 -0.096654
C27   C     C_R   0.497626 0.064888 0.376055 -0.225261
C28   C     C_R   0.496543 0.936424 0.376405 -0.235654
C29   C     C_R   0.504914 0.871724 0.498202 -0.109156
C30   C     C_R   0.520895 0.935652 0.615223 0.150158
C31   C     C_3   0.496893 0.928316 0.754175 -0.482398
C32   C     C_3   0.497022 0.070097 0.754164 -0.485948
C33   C     C_R   0.460621 0.431593 0.069997 0.054577
C34   C     C_R   0.610379 0.501561 0.500388 0.863330
C35   C     C_R   0.542420 0.557261 0.074361 0.378476
C36   C     C_R   0.545127 0.547316 0.930097 0.351644
C37   C     C_R   0.460343 0.432089 0.927972 0.098753
C38   C     C_3   0.396878 0.444453 0.920878 -0.014853
C39   C     C_3   0.397371 0.444779 0.074756 -0.470919
C40   C     C_R   0.879783 0.627216 0.474434 0.507920
C41   C     C_R   0.879668 0.409141 0.527738 0.504026
C42   C     C_R   0.939945 0.404817 0.526197 -0.022673
C43   C     C_R   0.969715 0.518265 0.499777 -0.057404
C44   C     C_R   0.939328 0.629738 0.475297 -0.046986
H1    H     H_    0.679691 0.385912 0.325939 0.155762
H2    H     H_    0.678186 0.638520 0.664108 0.184804
H3    H     H_    0.783296 0.642064 0.668165 0.149222
H4    H     H_    0.488169 0.113441 0.282125 0.173072
H5    H     H_    0.485510 0.888870 0.283420 0.166965
H6    H     H_    0.453224 0.887105 0.755590 0.201800
H7    H     H_    0.527732 0.887078 0.828240 0.199630
H8    H     H_    0.453430 0.111179 0.755270 0.210481
H9    H     H_    0.527882 0.110912 0.828314 0.201371
H10   H     H_    0.055058 0.211725 0.563171 0.190197
H11   H     H_    0.382816 0.534729 0.875953 0.162882
H12   H     H_    0.384068 0.535861 0.117867 0.187765
H13   H     H_    0.377208 0.361316 0.121538 0.203371
H14   H     H_    0.944586 0.827071 0.433752 0.191406
H15   H     H_    0.322263 0.584102 0.697805 0.152227
H16   H     H_    0.317641 0.430601 0.295936 0.161971
H17   H     H_    0.213225 0.440222 0.294018 0.160750
H18   H     H_    0.784453 0.396022 0.324338 0.142945
N1    N     N_R   0.851580 0.518376 0.500237 -0.354924
N2    N     N_R   0.147838 0.519523 0.493143 -0.334647
N3    N     N_R   0.499610 0.499140 0.142800 -0.161607
N4    N     N_R   0.499610 0.499180 0.857150 -0.178028
O1    O     O_R   0.500010 0.316790 0.614690 -0.617287
O2    O     O_2   0.848742 0.306392 0.557224 -0.568472
O3    O     O_2   0.149547 0.304488 0.540937 -0.562454
O4    O     O_2   0.151259 0.733018 0.444761 -0.584475
O5    O     O_R   0.500000 0.316760 0.385350 -0.623669
O6    O     O_R   0.416160 0.499980 0.614700 -0.628529
O7    O     O_R   0.416150 0.499940 0.385360 -0.621109
O8    O     O_R   0.500000 0.683240 0.614650 -0.602809
O9    O     O_R   0.499990 0.683210 0.385310 -0.608698
O10   O     O_R   0.583850 0.500060 0.614640 -0.585443
O11   O     O_R   0.583840 0.500020 0.385300 -0.559557
O12   O     O_2   0.850006 0.732476 0.446671 -0.565606
Zn1   Zn    Zn3+2 0.500000 0.500020 0.653130 0.965693
Zn2   Zn    Zn3+2 0.500000 0.499980 0.346870 0.975957
C45   C     C_3   0.944393 0.166998 0.576962 -0.777225
H19   H     H_    0.916457 0.139310 0.490465 0.266591
H20   H     H_    0.976618 0.091735 0.590603 0.201023
H21   H     H_    0.919682 0.170669 0.671639 0.271783
O13   O     O_3   0.584843 0.617926 0.147338 -0.569186
C46   C     C_3   0.582471 0.747566 0.120131 0.114177
H22   H     H_    0.538111 0.783915 0.127092 0.111700
H23   H     H_    0.598874 0.768875 0.017869 0.171435
C47   C     C_3   0.620029 0.816074 0.222679 -0.783233
H24   H     H_    0.665277 0.787371 0.211757 0.252793
H25   H     H_    0.616734 0.918568 0.206045 0.203843
H26   H     H_    0.606295 0.793772 0.326836 0.262931
O14   O     O_3   0.594336 0.583011 0.864696 -0.599634
C48   C     C_3   0.639655 0.499553 0.899449 0.164111
H27   H     H_    0.652405 0.448878 0.807296 0.168591
H28   H     H_    0.628791 0.425295 0.974599 0.104928
C49   C     C_3   0.691535 0.571848 0.952931 -0.846325
H29   H     H_    0.685732 0.597630 0.060096 0.280927
H30   H     H_    0.730249 0.512433 0.946944 0.214995
H31   H     H_    0.698477 0.658413 0.893310 0.251091
C50   C     C_3   0.367417 0.329049 0.860129 -0.822176
H32   H     H_    0.382099 0.241801 0.911097 0.227631
H33   H     H_    0.320483 0.337498 0.871603 0.250322
H34   H     H_    0.376814 0.321323 0.751161 0.258783
C51   C     C_3   0.055421 0.872497 0.424729 -0.783522
H35   H     H_    0.083023 0.899022 0.512265 0.264121
H36   H     H_    0.080538 0.870002 0.330606 0.271133
H37   H     H_    0.023238 0.947897 0.411525 0.203428
O15   O     O_3   0.208705 0.601471 0.719015 -0.611294
C52   C     C_3   0.225918 0.723429 0.756536 0.092324
H38   H     H_    0.233857 0.784567 0.667092 0.165566
H39   H     H_    0.265173 0.719153 0.821017 0.131548
C53   C     C_3   0.178716 0.783203 0.837875 -0.758671
H40   H     H_    0.170259 0.726426 0.929609 0.257343
H41   H     H_    0.191785 0.878852 0.869085 0.207129
H42   H     H_    0.138942 0.789380 0.775532 0.259703

loop_
_geom_bond_atom_site_label_1
_geom_bond_atom_site_label_2
_ccdc_geom_bond_type
C27   H4    S    
O14   C48   S    
C11   O15   S    
C9    N2    A    
C11   C13   A    
C41   C42   A    
C19   C20   A    
O10   Zn1   S    
C45   H21   S    
C49   H29   S    
C33   N3    A    
C7    C8    A    
O13   C46   S    
N4    Zn1   S    
C51   H36   S    
C26   C27   A    
C1    O5    A    
C40   N1    A    
C18   C24   A    
C5    C6    A    
C23   C29   S    
C28   C29   A    
C9    O3    S    
C53   H40   S    
C38   C50   S    
C17   N2    S    
C30   C31   S    
C3    H10   S    
C36   N4    A    
C35   N3    A    
C15   C16   A    
C39   H13   S    
C18   C19   A    
C15   H16   S    
C52   H38   S    
C32   H8    S    
C8    H14   S    
C36   O14   S    
C38   H11   S    
C35   C36   A    
C16   C17   A    
C7    C51   S    
C13   C14   A    
C47   H25   S    
C29   C30   A    
O9    Zn2   S    
C53   H42   S    
C20   C34   S    
C25   C32   S    
C22   H3    S    
C5    C43   A    
C50   H33   S    
N3    Zn2   S    
C12   O7    A    
O5    Zn2   S    
C49   H30   S    
C45   H19   S    
C41   O2    S    
C51   H37   S    
C50   H32   S    
O1    Zn1   S    
C23   O9    A    
C46   H22   S    
C18   H18   S    
C48   C49   S    
C25   C26   A    
C33   C37   A    
C43   C44   A    
C37   C38   S    
C28   H5    S    
C39   H12   S    
C37   N4    A    
C33   C39   S    
C47   H26   S    
C48   H28   S    
C45   H20   S    
C52   C53   S    
C10   O4    S    
C40   O12   S    
C12   C14   S    
C24   N1    S    
O8    Zn1   S    
C1    C26   S    
C22   C24   A    
C42   C43   A    
C41   N1    A    
C31   H6    S    
C3    C4    A    
C32   H9    S    
C49   H31   S    
C21   H2    S    
O11   Zn2   S    
C25   C30   A    
C11   C17   A    
C31   C32   S    
C10   N2    A    
C8    C44   A    
C31   H7    S    
C4    C5    A    
C46   C47   S    
C6    C10   A    
C19   H1    S    
C6    C7    A    
C13   H15   S    
O6    Zn1   S    
C51   H35   S    
C2    C3    A    
C47   H24   S    
C34   O11   A    
O15   C52   S    
C35   O13   S    
C38   C39   S    
C2    C42   A    
C1    O1    A    
O7    Zn2   S    
C46   H23   S    
C12   O6    A    
C48   H27   S    
C52   H39   S    
C40   C44   A    
C20   C21   A    
C16   H17   S    
C27   C28   A    
C14   C15   A    
C2    C45   S    
C50   H34   S    
C23   O8    A    
C4    C9    A    
C21   C22   A    
C34   O10   A    
C53   H41   S    
