data_mof_unit_6659.cif
_audit_creation_date              2012-12-11T14:54:18-0500
_audit_creation_method            fapswitch 2.2
_symmetry_space_group_name_H-M    P1
_symmetry_Int_Tables_number       1
_space_group_crystal_system       triclinic
_cell_length_a                    19.106917
_cell_length_b                    10.894604
_cell_length_c                    18.866936
_cell_angle_alpha                 90.142921
_cell_angle_beta                  89.884247
_cell_angle_gamma                 89.852519
_cell_volume                      3927.35139052

loop_
_atom_site_label
_atom_site_type_symbol
_atom_type_description
_atom_site_fract_x
_atom_site_fract_y
_atom_site_fract_z
_atom_type_partial_charge
C1    C     C_R   0.729820 0.374317 0.645198 0.538875
C2    C     C_R   0.271353 0.374398 0.355226 0.542600
C3    C     C_R   0.229820 0.874317 0.645198 0.538876
C4    C     C_R   0.771353 0.874398 0.355226 0.542600
C5    C     C_3   0.546190 0.334573 0.445030 -0.270346
C6    C     C_3   0.566355 0.338707 0.522688 -0.250279
C7    C     C_3   0.046193 0.834570 0.445030 -0.270347
C8    C     C_3   0.066357 0.838705 0.522688 -0.250281
C9    C     C_R   0.686804 0.929058 0.532103 -0.155745
C10   C     C_R   0.279952 0.839321 0.454778 -0.192583
C11   C     C_R   0.186804 0.429052 0.532104 -0.155747
C12   C     C_R   0.779951 0.339321 0.454778 -0.192581
C13   C     C_R   0.693196 0.916502 0.459019 -0.012223
C14   C     C_R   0.283715 0.822970 0.527441 -0.055004
C15   C     C_R   0.193196 0.416496 0.459020 -0.012221
C16   C     C_R   0.783714 0.322969 0.527441 -0.055004
C17   C     C_R   0.759727 0.898641 0.429928 -0.003096
C18   C     C_R   0.249248 0.907409 0.573388 -0.034348
C19   C     C_R   0.259727 0.398642 0.429928 -0.003099
C20   C     C_R   0.749248 0.407409 0.573388 -0.034348
C21   C     C_R   0.818284 0.888001 0.474215 -0.061992
C22   C     C_R   0.218293 0.012407 0.545833 -0.108189
C23   C     C_R   0.318284 0.388007 0.474215 -0.061996
C24   C     C_R   0.718294 0.512407 0.545833 -0.108183
C25   C     C_R   0.812059 0.893498 0.547011 0.238994
C26   C     C_R   0.216805 0.030744 0.473827 0.210436
C27   C     C_R   0.312060 0.393502 0.547010 0.238993
C28   C     C_R   0.716805 0.530745 0.473827 0.210437
C29   C     C_R   0.746435 0.921401 0.576031 0.005711
C30   C     C_R   0.248979 0.944019 0.427752 0.015618
C31   C     C_R   0.246436 0.421399 0.576032 0.005709
C32   C     C_R   0.748978 0.444019 0.427752 0.015613
C33   C     C_R   0.457808 0.060548 0.946499 -0.036926
C34   C     C_R   0.447972 0.051149 0.019624 -0.045896
C35   C     C_R   0.957808 0.560548 0.946499 -0.036926
C36   C     C_R   0.947972 0.551149 0.019624 -0.045896
C37   C     C_R   0.456544 0.156424 0.063134 -0.002696
C38   C     C_R   0.490928 0.165797 0.918748 0.018980
C39   C     C_R   0.956544 0.656424 0.063134 -0.002696
C40   C     C_R   0.990929 0.665797 0.918748 0.018980
C41   C     C_R   0.481327 0.265595 0.033056 -0.159529
C42   C     C_R   0.500869 0.268739 0.962139 -0.134906
C43   C     C_R   0.981327 0.765595 0.033056 -0.159529
C44   C     C_R   0.000869 0.768739 0.962139 -0.134906
C45   C     C_R   0.531056 0.155514 0.647330 0.538466
C46   C     C_R   0.438816 0.150398 0.361449 0.555782
C47   C     C_R   0.031056 0.655514 0.647330 0.538467
C48   C     C_R   0.938817 0.650398 0.361449 0.555780
C49   C     C_R   0.815452 0.933879 0.958022 0.226933
C50   C     C_R   0.215423 0.032033 0.025269 0.235713
C51   C     C_R   0.315452 0.433879 0.958022 0.226933
C52   C     C_R   0.715423 0.532033 0.025269 0.235713
C53   C     C_R   0.820188 0.925524 0.030995 -0.123551
C54   C     C_R   0.216098 0.014331 0.952614 -0.129953
C55   C     C_R   0.320188 0.425525 0.030995 -0.123551
C56   C     C_R   0.716098 0.514331 0.952614 -0.129953
C57   C     C_R   0.760351 0.907277 0.072971 0.016265
C58   C     C_R   0.246767 0.909878 0.924235 -0.000574
C59   C     C_R   0.260352 0.407277 0.072971 0.016265
C60   C     C_R   0.746767 0.409878 0.924235 -0.000574
C61   C     C_R   0.694530 0.900495 0.041769 -0.130820
C62   C     C_R   0.279670 0.823272 0.968212 -0.135978
C63   C     C_R   0.194530 0.400495 0.041769 -0.130820
C64   C     C_R   0.779671 0.323272 0.968212 -0.135978
C65   C     C_R   0.688856 0.910616 0.968630 -0.194225
C66   C     C_R   0.281165 0.841553 0.040864 -0.183003
C67   C     C_R   0.188857 0.410615 0.968630 -0.194225
C68   C     C_R   0.781165 0.341553 0.040864 -0.183003
C69   C     C_R   0.749093 0.928476 0.926640 0.059039
C70   C     C_R   0.250707 0.946738 0.069563 0.057407
C71   C     C_R   0.249093 0.428476 0.926640 0.059039
C72   C     C_R   0.750707 0.446738 0.069563 0.057406
C73   C     C_R   0.740614 0.969186 0.647441 0.521316
C74   C     C_R   0.258904 0.974183 0.353919 0.550754
C75   C     C_R   0.240614 0.469185 0.647441 0.521317
C76   C     C_R   0.758904 0.474183 0.353919 0.550752
C77   C     C_R   0.729239 0.376685 0.852657 0.553117
C78   C     C_R   0.271619 0.376841 0.146757 0.550346
C79   C     C_R   0.229239 0.876685 0.852657 0.553116
C80   C     C_R   0.771619 0.876841 0.146757 0.550346
C81   C     C_R   0.529563 0.157370 0.851733 0.550040
C82   C     C_R   0.438051 0.152368 0.138810 0.555580
C83   C     C_R   0.029563 0.657370 0.851733 0.550040
C84   C     C_R   0.938051 0.652368 0.138810 0.555579
C85   C     C_R   0.740792 0.971730 0.854546 0.568282
C86   C     C_R   0.259408 0.975687 0.144084 0.557279
C87   C     C_R   0.240792 0.471730 0.854546 0.568282
C88   C     C_R   0.759408 0.475687 0.144084 0.557280
C89   C     C_R   0.457762 0.153441 0.436573 -0.016847
C90   C     C_R   0.491275 0.165273 0.581808 0.010537
C91   C     C_R   0.957763 0.653441 0.436573 -0.016849
C92   C     C_R   0.991276 0.665273 0.581808 0.010543
C93   C     C_R   0.483732 0.261066 0.466585 0.009379
C94   C     C_R   0.502005 0.265500 0.537147 0.081873
C95   C     C_R   0.983734 0.761065 0.466585 0.009379
C96   C     C_R   0.002006 0.765500 0.537147 0.081875
C97   C     C_R   0.454334 0.063097 0.555252 -0.059559
C98   C     C_R   0.444433 0.051600 0.481656 -0.063969
C99   C     C_R   0.954334 0.563097 0.555252 -0.059557
C100  C     C_R   0.944433 0.551600 0.481656 -0.063970
Cr1   Cr    Cr6+3 0.771950 0.169480 0.750100 1.105727
Cr2   Cr    Cr6+3 0.228050 0.169480 0.249900 1.083110
Cr3   Cr    Cr6+3 0.271950 0.669480 0.750100 1.105728
Cr4   Cr    Cr6+3 0.728050 0.669480 0.249900 1.083107
Cr5   Cr    Cr6+3 0.614930 0.323340 0.749170 1.046686
Cr6   Cr    Cr6+3 0.385070 0.323340 0.250830 1.029483
Cr7   Cr    Cr6+3 0.114930 0.823340 0.749170 1.046686
Cr8   Cr    Cr6+3 0.885070 0.823340 0.250830 1.029484
Cr9   Cr    Cr6+3 0.616590 0.010620 0.750610 1.047441
Cr10  Cr    Cr6+3 0.383410 0.010620 0.249390 1.070273
Cr11  Cr    Cr6+3 0.116590 0.510620 0.750610 1.047440
Cr12  Cr    Cr6+3 0.883410 0.510620 0.249390 1.070274
H1    H     H_    0.871604 0.929731 0.054653 0.129334
H2    H     H_    0.189449 0.079160 0.918391 0.122375
H3    H     H_    0.371604 0.429731 0.054653 0.129334
H4    H     H_    0.689449 0.579160 0.918391 0.122375
H5    H     H_    0.648072 0.885926 0.073643 0.160291
H6    H     H_    0.301139 0.738696 0.946943 0.173397
H7    H     H_    0.148072 0.385926 0.073643 0.160291
H8    H     H_    0.801139 0.238696 0.946943 0.173397
H9    H     H_    0.637056 0.909627 0.945391 0.149428
H10   H     H_    0.305051 0.773225 0.074717 0.154618
H11   H     H_    0.137056 0.409627 0.945391 0.149428
H12   H     H_    0.805051 0.273225 0.074717 0.154618
H13   H     H_    0.031286 0.925895 0.423585 0.156060
H14   H     H_    0.115234 0.786998 0.534333 0.130700
H15   H     H_    0.531283 0.425898 0.423586 0.156060
H16   H     H_    0.615232 0.287002 0.534333 0.130699
H17   H     H_    0.583698 0.281469 0.411711 0.149308
H18   H     H_    0.563282 0.432405 0.545946 0.175374
H19   H     H_    0.083700 0.781465 0.411711 0.149307
H20   H     H_    0.063284 0.932403 0.545945 0.175371
H21   H     H_    0.635913 0.951793 0.554176 0.147527
H22   H     H_    0.304297 0.773591 0.419095 0.152064
H23   H     H_    0.135912 0.451782 0.554177 0.147529
H24   H     H_    0.804296 0.273591 0.419095 0.152065
H25   H     H_    0.869366 0.873006 0.451799 0.158673
H26   H     H_    0.191867 0.077917 0.580101 0.159269
H27   H     H_    0.369366 0.373017 0.451799 0.158677
H28   H     H_    0.691867 0.577918 0.580102 0.159271
H29   H     H_    0.489753 0.346636 0.065229 0.141911
H30   H     H_    0.526604 0.350107 0.942102 0.146715
H31   H     H_    0.989753 0.846636 0.065229 0.141911
H32   H     H_    0.026604 0.850107 0.942102 0.146714
O1    O     O_R   0.787510 0.042610 0.670410 -0.475477
O2    O     O_R   0.212490 0.042610 0.329590 -0.498739
O3    O     O_R   0.287510 0.542610 0.670410 -0.475475
O4    O     O_R   0.712490 0.542610 0.329590 -0.498747
O5    O     O_R   0.556450 0.252890 0.823790 -0.496960
O6    O     O_R   0.443550 0.252890 0.176210 -0.498768
O7    O     O_R   0.056450 0.752890 0.823790 -0.496960
O8    O     O_R   0.943550 0.752890 0.176210 -0.498768
O9    O     O_R   0.545750 0.051070 0.830560 -0.506601
O10   O     O_R   0.454250 0.051070 0.169440 -0.485205
O11   O     O_R   0.045750 0.551070 0.830560 -0.506600
O12   O     O_R   0.954250 0.551070 0.169440 -0.485205
O13   O     O_R   0.681210 0.959150 0.825320 -0.526409
O14   O     O_R   0.318790 0.959150 0.174680 -0.521444
O15   O     O_R   0.181210 0.459150 0.825320 -0.526409
O16   O     O_R   0.818790 0.459150 0.174680 -0.521444
O17   O     O_3   0.667820 0.167810 0.749960 -0.278536
O18   O     O_3   0.332180 0.167810 0.250040 -0.310333
O19   O     O_3   0.167820 0.667810 0.749960 -0.278536
O20   O     O_3   0.832180 0.667810 0.250040 -0.310333
O21   O     O_R   0.765670 0.292090 0.675090 -0.475505
O22   O     O_R   0.234330 0.292090 0.324910 -0.459558
O23   O     O_R   0.265670 0.792090 0.675090 -0.475506
O24   O     O_R   0.734330 0.792090 0.324910 -0.459560
O25   O     O_R   0.670220 0.409020 0.668560 -0.529022
O26   O     O_R   0.329780 0.409020 0.331440 -0.536174
O27   O     O_R   0.170220 0.909020 0.668560 -0.529022
O28   O     O_R   0.829780 0.909020 0.331440 -0.536173
O29   O     O_R   0.556580 0.251590 0.674980 -0.492082
O30   O     O_R   0.443420 0.251590 0.325020 -0.496809
O31   O     O_R   0.056580 0.751590 0.674980 -0.492082
O32   O     O_R   0.943420 0.751590 0.325020 -0.496809
O33   O     O_R   0.545890 0.049670 0.670030 -0.507754
O34   O     O_R   0.454110 0.049670 0.329970 -0.466290
O35   O     O_R   0.045890 0.549670 0.670030 -0.507755
O36   O     O_R   0.954110 0.549670 0.329970 -0.466291
O37   O     O_R   0.681340 0.957860 0.676500 -0.513970
O38   O     O_R   0.318660 0.957860 0.323500 -0.512592
O39   O     O_R   0.181340 0.457860 0.676500 -0.513971
O40   O     O_R   0.818660 0.457860 0.323500 -0.512590
O41   O     O_R   0.787380 0.044010 0.830940 -0.450728
O42   O     O_R   0.212620 0.044010 0.169060 -0.447120
O43   O     O_R   0.287380 0.544010 0.830940 -0.450728
O44   O     O_R   0.712620 0.544010 0.169060 -0.447120
O45   O     O_R   0.765540 0.293390 0.823910 -0.486216
O46   O     O_R   0.234460 0.293390 0.176090 -0.464245
O47   O     O_R   0.265540 0.793390 0.823910 -0.486216
O48   O     O_R   0.734460 0.793390 0.176090 -0.464245
O49   O     O_R   0.670090 0.410410 0.829090 -0.522932
O50   O     O_R   0.329910 0.410410 0.170910 -0.535540
O51   O     O_R   0.170090 0.910410 0.829090 -0.522932
O52   O     O_R   0.829910 0.910410 0.170910 -0.535540
C101  C     C_1   0.433190 0.965401 0.602727 0.224947
N1    N     N_1   0.417326 0.889056 0.642065 -0.247540
C102  C     C_1   0.436969 0.929254 0.452596 0.258566
N2    N     N_1   0.433921 0.831180 0.429131 -0.273622
C103  C     C_1   0.933190 0.465402 0.602726 0.224947
N3    N     N_1   0.917326 0.389056 0.642064 -0.247540
C104  C     C_1   0.936968 0.429254 0.452596 0.258565
N4    N     N_1   0.933920 0.331180 0.429131 -0.273620
O53   O     O_3   0.874592 0.950316 0.916769 -0.673115
H33   H     H_    0.914703 0.970956 0.947764 0.317483
O54   O     O_3   0.179873 0.131206 0.053619 -0.668529
H34   H     H_    0.149196 0.167506 0.016832 0.314955
O55   O     O_3   0.374592 0.450317 0.916769 -0.673114
H35   H     H_    0.414703 0.470956 0.947764 0.317483
O56   O     O_3   0.679874 0.631206 0.053619 -0.668529
H36   H     H_    0.649196 0.667506 0.016832 0.314955
C105  C     C_1   0.632364 0.928126 0.414506 0.216463
N5    N     N_1   0.584144 0.937165 0.377985 -0.250199
C106  C     C_1   0.329442 0.726425 0.551457 0.262435
N6    N     N_1   0.368513 0.651405 0.569211 -0.196153
C107  C     C_1   0.132363 0.428116 0.414507 0.216467
N7    N     N_1   0.084143 0.437152 0.377987 -0.250199
C108  C     C_1   0.829442 0.226424 0.551457 0.262435
N8    N     N_1   0.868512 0.151403 0.569211 -0.196159
O57   O     O_3   0.871334 0.876630 0.587479 -0.684055
H37   H     H_    0.857282 0.854731 0.636393 0.333856
O58   O     O_3   0.184220 0.135108 0.449970 -0.679097
H38   H     H_    0.139618 0.107258 0.428522 0.339751
O59   O     O_3   0.371335 0.376639 0.587478 -0.684052
H39   H     H_    0.357284 0.354733 0.636391 0.333856
O60   O     O_3   0.684219 0.635108 0.449971 -0.679100
H40   H     H_    0.639620 0.607258 0.428517 0.339757
C109  C     C_1   0.437154 0.959009 0.900985 0.222936
N9    N     N_1   0.420871 0.878162 0.864735 -0.259735
C110  C     C_1   0.440200 0.929262 0.049427 0.233881
N10   N     N_1   0.436281 0.831636 0.073126 -0.295065
C111  C     C_1   0.937154 0.459009 0.900985 0.222936
N11   N     N_1   0.920871 0.378163 0.864735 -0.259735
C112  C     C_1   0.940200 0.429262 0.049427 0.233881
N12   N     N_1   0.936281 0.331636 0.073126 -0.295065

loop_
_geom_bond_atom_site_label_1
_geom_bond_atom_site_label_2
_ccdc_geom_bond_type
C58   C62   A    
Cr12  O12   S    
C104  N4    T    
C49   C53   A    
Cr3   O23   S    
C93   C94   A    
Cr6   O6    S    
C55   C59   A    
C34   C37   A    
Cr6   O26   S    
C41   C42   A    
C14   C18   A    
C43   H31   S    
C95   C96   A    
C8    C96   S    
C21   H25   S    
C6    H18   S    
C75   O39   A    
C68   H12   S    
Cr7   O51   S    
C97   C98   A    
Cr10  O18   S    
C81   O9    A    
C7    C8    S    
Cr12  O40   S    
C46   C89   S    
Cr7   O27   S    
O53   H33   S    
C24   H28   S    
C36   C112  S    
Cr5   O49   S    
Cr8   O20   S    
Cr1   O1    S    
C50   C54   A    
C55   H3    S    
Cr5   O25   S    
C98   C102  S    
C16   C108  S    
C37   C41   A    
Cr10  O10   S    
C64   C68   A    
C23   H27   S    
O59   H39   S    
C39   C84   S    
C38   C42   A    
Cr1   O45   S    
C5    C6    S    
C30   C74   S    
C100  C104  S    
C81   O5    A    
C26   O58   S    
C83   O11   A    
Cr10  O34   S    
Cr4   O48   S    
C54   H2    S    
C92   C96   A    
C79   O51   A    
C59   C78   S    
C3    C18   S    
C78   O50   A    
C13   C105  S    
C9    C13   A    
Cr11  O15   S    
Cr8   O8    S    
C11   C15   A    
C46   O34   A    
C12   C16   A    
C6    C94   S    
C48   C91   S    
C78   O46   A    
C32   C76   S    
C42   H30   S    
C52   O56   S    
C47   O35   A    
C112  N12   T    
C46   O30   A    
C25   O57   S    
C35   C111  S    
C23   C27   A    
C91   C100  A    
Cr8   O52   S    
Cr9   O9    S    
C111  N11   T    
C2    O22   A    
C90   C97   A    
C7    H19   S    
Cr10  O14   S    
C9    C29   A    
Cr12  O36   S    
Cr7   O7    S    
C50   O54   S    
C5    H17   S    
C11   C31   A    
C102  N2    T    
Cr2   O22   S    
C49   C69   A    
C12   C32   A    
Cr4   O44   S    
Cr11  O35   S    
C80   O48   A    
C57   C80   S    
C40   C83   S    
C88   O44   A    
C85   O13   A    
C47   C92   S    
Cr1   O41   S    
C28   O60   S    
Cr11  O39   S    
C72   C88   S    
C79   O47   A    
C53   H1    S    
Cr9   O13   S    
C90   C94   A    
C83   O7    A    
Cr5   O5    S    
C25   C29   A    
Cr12  O20   S    
C63   C67   A    
C60   C77   S    
C62   C66   A    
C4    O28   A    
C27   C31   A    
O54   H34   S    
C10   H22   S    
C28   C32   A    
Cr11  O19   S    
O58   H38   S    
O55   H35   S    
C10   C14   A    
C108  N8    T    
C53   C57   A    
C19   C23   A    
C27   O59   S    
C87   O43   A    
C56   H4    S    
C51   C55   A    
C75   O3    A    
C107  N7    T    
C105  N5    T    
Cr6   O50   S    
C61   H5    S    
C17   C21   A    
C4    O24   A    
C73   O1    A    
C68   C72   A    
C35   C36   A    
C15   C19   A    
C43   C44   A    
O56   H36   S    
C8    H20   S    
C109  N9    T    
C52   C72   A    
C45   O29   A    
Cr4   O24   S    
O57   H37   S    
C73   O37   A    
C10   C30   A    
C31   C75   S    
O60   H40   S    
C61   C65   A    
C1    O21   A    
C16   C20   A    
C77   O49   A    
C5    H15   S    
C66   H10   S    
C33   C34   A    
Cr6   O30   S    
Cr3   O43   S    
Cr2   O42   S    
C7    H13   S    
C88   O16   A    
Cr1   O21   S    
C45   C90   S    
C86   O14   A    
C34   C110  S    
C76   O4    A    
C82   O6    A    
C58   C79   S    
C2    O26   A    
C71   C87   S    
C4    C17   S    
C84   O8    A    
C8    H14   S    
Cr7   O19   S    
C86   O42   A    
C65   H9    S    
Cr8   O28   S    
C38   C81   S    
C12   H24   S    
Cr5   O17   S    
C37   C82   S    
Cr3   O47   S    
C70   C86   S    
C48   O36   A    
C69   C85   S    
Cr2   O18   S    
C54   C58   A    
Cr9   O37   S    
C21   C25   A    
C1    C20   S    
Cr12  O16   S    
C85   O41   A    
C2    C19   S    
C18   C22   A    
Cr3   O19   S    
C74   O2    A    
C36   C39   A    
C11   H23   S    
C24   C28   A    
C49   O53   S    
C67   H11   S    
Cr4   O20   S    
C5    C93   S    
C51   C71   A    
C57   C61   A    
C74   O38   A    
C45   O33   A    
C51   O55   S    
C33   C109  S    
C7    C95   S    
C41   H29   S    
C22   H26   S    
C59   C63   A    
C33   C38   A    
C64   H8    S    
C99   C100  A    
C13   C17   A    
C89   C98   A    
C60   C64   A    
C80   O52   A    
C77   O45   A    
Cr1   O17   S    
C35   C40   A    
C50   C70   A    
C6    H16   S    
Cr4   O4    S    
Cr9   O17   S    
Cr2   O2    S    
C84   O12   A    
C3    O27   A    
C15   C107  S    
C66   C70   A    
Cr7   O31   S    
C65   C69   A    
Cr8   O32   S    
C1    O25   A    
Cr2   O46   S    
C87   O15   A    
C14   C106  S    
C67   C71   A    
Cr6   O18   S    
C106  N6    T    
C89   C93   A    
C101  N1    T    
C47   O31   A    
C62   H6    S    
C91   C95   A    
C82   O10   A    
C56   C60   A    
C3    O23   A    
C40   C44   A    
C29   C73   S    
C103  N3    T    
Cr10  O38   S    
C63   H7    S    
C22   C26   A    
C39   C43   A    
C110  N10   T    
Cr9   O33   S    
Cr5   O29   S    
C44   H32   S    
C48   O32   A    
C76   O40   A    
Cr11  O11   S    
C20   C24   A    
C99   C103  S    
C52   C56   A    
C92   C99   A    
Cr3   O3    S    
C97   C101  S    
C26   C30   A    
C9    H21   S    
