data_mof_unit_48877.cif
_audit_creation_date              2013-03-05T16:25:42-0500
_audit_creation_method            fapswitch 2.2
_symmetry_space_group_name_H-M    P1
_symmetry_Int_Tables_number       1
_space_group_crystal_system       triclinic
_cell_length_a                    18.423537
_cell_length_b                    18.34124
_cell_length_c                    18.427407
_cell_angle_alpha                 119.952559
_cell_angle_beta                  120.015919
_cell_angle_gamma                 90.088751
_cell_volume                      4401.70132307

loop_
_atom_site_label
_atom_site_type_symbol
_atom_site_description
_atom_site_fract_x
_atom_site_fract_y
_atom_site_fract_z
_atom_type_partial_charge
Zn1   Zn    Zn3+2 0.543850 0.957090 0.414170 1.117452
Zn2   Zn    Zn3+2 0.542910 0.129670 0.585830 1.099877
Zn3   Zn    Zn3+2 0.542910 0.956180 0.585840 1.127267
Zn4   Zn    Zn3+2 0.370330 0.957070 0.414150 1.102703
O1    O     O_3   0.500000 0.000000 0.500000 -0.564071
O2    O     O_R   0.323800 0.055370 0.439900 -0.561291
O3    O     O_R   0.616140 0.884540 0.439940 -0.629752
O4    O     O_R   0.615480 0.176200 0.560080 -0.597359
O5    O     O_R   0.444590 0.883880 0.560080 -0.638183
O6    O     O_R   0.614550 0.175310 0.729160 -0.607607
O7    O     O_R   0.324730 0.885400 0.270830 -0.615611
O8    O     O_R   0.614550 0.053870 0.729160 -0.574373
O9    O     O_R   0.446170 0.885420 0.270850 -0.572065
O10   O     O_R   0.616140 0.055410 0.439930 -0.603246
O11   O     O_R   0.323800 0.884510 0.439910 -0.582508
O12   O     O_R   0.444590 0.176180 0.560060 -0.674725
O13   O     O_R   0.615480 0.883900 0.560100 -0.572839
C1    C     C_R   0.360514 0.140481 0.501785 0.892813
C2    C     C_R   0.642101 0.861640 0.502687 0.904994
C3    C     C_R   0.638052 0.140392 0.498396 0.911733
C4    C     C_R   0.359826 0.861263 0.501115 0.838009
C5    C     C_R   0.638315 0.139114 0.777872 0.950650
C6    C     C_R   0.361739 0.862585 0.223128 0.938031
C7    C     C_2   0.269285 0.749785 0.945206 0.181445
C8    C     C_2   0.194841 0.679075 0.885216 0.106474
C9    C     C_2   0.333305 0.783981 0.051972 0.443463
C10   C     C_2   0.306661 0.821840 0.114093 -0.334017
H1    H     H_    0.239958 0.826062 0.082600 0.183997
C11   C     C_R   0.717257 0.770358 0.432484 -0.005575
C12   C     C_R   0.694824 0.801807 0.502121 -0.195363
C13   C     C_R   0.714009 0.764419 0.559473 0.199148
C14   C     C_R   0.748565 0.693060 0.537508 0.343552
C15   C     C_R   0.788777 0.679531 0.485264 -0.204315
C16   C     C_R   0.763651 0.711814 0.425101 -0.058658
C17   C     C_3   0.809361 0.746544 0.395219 -0.338625
C18   C     C_3   0.759373 0.814900 0.406083 -0.182303
H2    H     H_    0.882710 0.775726 0.453378 0.190895
C19   C     C_R   0.214777 0.801015 0.463111 -0.037527
C20   C     C_R   0.303191 0.804634 0.499530 -0.025517
C21   C     C_R   0.334686 0.747023 0.527984 -0.119142
H3    H     H_    0.401208 0.744935 0.552024 0.200533
C22   C     C_R   0.280891 0.692376 0.527184 -0.135525
H4    H     H_    0.307014 0.649388 0.550632 0.180325
C23   C     C_R   0.195072 0.695087 0.498710 0.011213
C24   C     C_R   0.162532 0.748493 0.464527 0.031628
C25   C     C_3   0.114730 0.813925 0.489274 0.032232
C26   C     C_3   0.168995 0.869984 0.479036 0.501702
C27   C     C_R   0.219585 0.168049 0.426961 0.030518
C28   C     C_R   0.306898 0.198203 0.509472 -0.067416
C29   C     C_R   0.338548 0.284291 0.601658 -0.112517
C30   C     C_R   0.282027 0.337335 0.603824 -0.080863
C31   C     C_R   0.195070 0.304552 0.513049 -0.064112
C32   C     C_R   0.165518 0.217264 0.429837 -0.085462
C33   C     C_3   0.086875 0.145534 0.323658 0.098272
C34   C     C_3   0.150471 0.090269 0.319381 0.177303
H5    H     H_    0.132868 0.029586 0.314678 0.193912
C35   C     C_R   0.760836 0.271592 0.946891 -0.097633
C36   C     C_R   0.688759 0.196040 0.890091 -0.095770
C37   C     C_R   0.664601 0.180012 0.944141 0.391526
C38   C     C_R   0.723998 0.230572 0.053733 -0.189623
C39   C     C_R   0.800310 0.304501 0.108816 -0.132604
C40   C     C_R   0.812615 0.326696 0.052385 -0.031429
C41   C     C_3   0.891523 0.357846 0.056771 0.567037
C42   C     C_3   0.833108 0.292262 0.937785 0.111112
H6    H     H_    0.816731 0.325937 0.898391 0.166616
C43   C     C_R   0.733902 0.286154 0.571311 0.139653
C44   C     C_R   0.682027 0.197375 0.488372 -0.105522
C45   C     C_R   0.670858 0.167193 0.394531 -0.107861
C46   C     C_R   0.727434 0.220266 0.394501 -0.083044
C47   C     C_R   0.792043 0.303768 0.487515 -0.099981
C48   C     C_R   0.785570 0.337931 0.569614 -0.055800
C49   C     C_3   0.852435 0.395653 0.683345 -0.421592
C50   C     C_3   0.794708 0.337645 0.686790 0.191992
H7    H     H_    0.918762 0.387690 0.705738 0.189339
Zn5   Zn    Zn3+2 0.956190 0.542870 0.585830 1.117233
Zn6   Zn    Zn3+2 0.957140 0.543780 0.414160 1.101275
Zn7   Zn    Zn3+2 0.957140 0.370280 0.414170 1.060283
Zn8   Zn    Zn3+2 0.129710 0.542890 0.585850 1.117958
O14   O     O_3   0.000040 0.499960 0.500000 -0.547431
O15   O     O_R   0.176240 0.615450 0.560090 -0.631758
O16   O     O_R   0.883910 0.444550 0.560070 -0.621424
O17   O     O_R   0.884570 0.616050 0.439900 -0.653875
O18   O     O_R   0.055460 0.323770 0.439940 -0.610539
O19   O     O_R   0.885490 0.446080 0.270840 -0.598254
O20   O     O_R   0.175320 0.614550 0.729170 -0.588698
O21   O     O_R   0.885490 0.324650 0.270840 -0.642078
O22   O     O_R   0.053870 0.614540 0.729150 -0.582126
O23   O     O_R   0.883910 0.615420 0.560060 -0.573376
O24   O     O_R   0.176240 0.444580 0.560100 -0.630467
O25   O     O_R   0.055460 0.616070 0.439920 -0.566139
O26   O     O_R   0.884570 0.323750 0.439920 -0.650709
C51   C     C_R   0.139943 0.640473 0.500464 0.920206
C52   C     C_R   0.857591 0.359532 0.497288 0.807969
C53   C     C_R   0.856163 0.635919 0.496122 0.900605
C54   C     C_R   0.139736 0.360007 0.503542 0.838880
C55   C     C_R   0.861162 0.360750 0.221799 0.855754
C56   C     C_R   0.138474 0.637679 0.776499 0.927736
S1    S     S_3+6 0.291418 0.809735 0.902782 0.086505
O27   O     O_2   0.328066 0.760301 0.842476 -0.207349
O28   O     O_2   0.207236 0.819510 0.836164 -0.303734
O29   O     O_3   0.366794 0.911629 0.005052 -0.477031
H8    H     H_    0.377897 0.939761 0.975954 0.405253
C57   C     C_2   0.690169 0.805138 0.308002 0.569041
H9    H     H_    0.637269 0.741634 0.242586 0.101570
O30   O     O_2   0.692588 0.867685 0.300857 -0.506938
C58   C     C_2   0.015423 0.777677 0.410222 0.566080
H10   H     H_    0.977799 0.823245 0.415629 0.090240
O31   O     O_2   0.976519 0.698506 0.340673 -0.448824
S2    S     S_3+6 0.137198 0.857189 0.613733 0.056373
O32   O     O_2   0.125171 0.946744 0.657805 -0.219888
O33   O     O_2   0.072318 0.794014 0.600725 -0.325608
O34   O     O_3   0.240590 0.865289 0.695803 -0.472477
H11   H     H_    0.251683 0.902224 0.764274 0.420215
S3    S     S_3+6 0.104749 0.866507 0.363281 0.095731
O35   O     O_2   0.053119 0.771210 0.270629 -0.274807
O36   O     O_2   0.040996 0.916500 0.368495 -0.198706
O37   O     O_3   0.171741 0.913745 0.350563 -0.485637
H12   H     H_    0.142384 0.880498 0.275655 0.389367
S4    S     S_3+6 0.241694 0.982784 0.589406 0.126061
O38   O     O_2   0.291729 0.023269 0.567064 -0.275364
O39   O     O_2   0.186487 0.038617 0.612107 -0.189624
O40   O     O_3   0.316022 0.984739 0.692657 -0.490142
H13   H     H_    0.328379 0.043002 0.752491 0.429458
C59   C     C_2   0.427623 0.317238 0.697385 0.425187
H14   H     H_    0.487400 0.328371 0.700784 0.126746
O41   O     O_2   0.434506 0.332688 0.773542 -0.488102
C60   C     C_2   0.314098 0.424472 0.702067 0.577658
H15   H     H_    0.383031 0.467158 0.752915 0.070951
O42   O     O_2   0.264957 0.447202 0.729287 -0.494709
S5    S     S_3+6 0.001668 0.098943 0.324893 0.122560
O43   O     O_2   0.042721 0.107194 0.423769 -0.177176
O44   O     O_2   0.935066 0.147117 0.314871 -0.257352
O45   O     O_3   0.949205 0.990178 0.226631 -0.442021
H16   H     H_    0.918211 0.989248 0.163949 0.400558
S6    S     S_3+6 0.170547 0.619774 0.927400 0.077743
O46   O     O_2   0.253882 0.612835 0.999167 -0.245859
O47   O     O_2   0.128737 0.667688 0.981597 -0.238860
O48   O     O_3   0.098843 0.516167 0.825397 -0.519157
H17   H     H_    0.087388 0.488055 0.854327 0.398186
C61   C     C_2   0.051611 0.173014 0.251193 0.597968
H18   H     H_    0.084395 0.238389 0.276442 0.065596
O49   O     O_2   0.986561 0.121197 0.162827 -0.474906
S7    S     S_3+6 0.180041 0.071355 0.233490 0.039289
O50   O     O_2   0.248620 0.025711 0.246712 -0.284862
O51   O     O_2   0.098720 0.012575 0.124662 -0.211458
O52   O     O_3   0.221838 0.169212 0.258877 -0.575131
H19   H     H_    0.232855 0.152847 0.206162 0.410284
S8    S     S_3+6 0.557222 0.104053 0.875602 0.107171
O53   O     O_2   0.562213 0.011512 0.838596 -0.198265
O54   O     O_2   0.524703 0.129041 0.942391 -0.215678
O55   O     O_3   0.483623 0.105911 0.774752 -0.547216
H20   H     H_    0.462223 0.044912 0.713092 0.377837
C62   C     C_2   0.708202 0.205449 0.110638 0.638643
H21   H     H_    0.718218 0.256810 0.182197 0.017888
O56   O     O_2   0.687427 0.127374 0.080016 -0.435356
S9    S     S_3+6 0.913900 0.471739 0.097244 0.117065
O57   O     O_2   0.828121 0.489646 0.051339 -0.242474
O58   O     O_2   0.967046 0.533234 0.212106 -0.189353
O59   O     O_3   0.972560 0.490163 0.058053 -0.501019
H22   H     H_    0.982575 0.553543 0.082550 0.423488
S10   S     S_3+6 0.991533 0.341228 0.131542 0.098230
O60   O     O_2   0.057239 0.355831 0.110483 -0.206508
O61   O     O_2   0.032925 0.407605 0.244074 -0.320416
O62   O     O_3   0.969685 0.238496 0.104060 -0.504165
H23   H     H_    0.018363 0.218193 0.100599 0.400648
S11   S     S_3+6 0.858952 0.194172 0.876142 0.075482
O63   O     O_2   0.795211 0.145642 0.761886 -0.283891
O64   O     O_2   0.951895 0.220414 0.905988 -0.212941
O65   O     O_3   0.847327 0.124402 0.906448 -0.468205
H24   H     H_    0.890220 0.092715 0.903052 0.404209
C63   C     C_2   0.601820 0.081084 0.296845 0.625255
H25   H     H_    0.616372 0.038141 0.242466 0.125397
O66   O     O_2   0.526976 0.059502 0.274300 -0.519032
S12   S     S_3+6 0.436819 0.765874 0.086999 0.126074
O67   O     O_2   0.508860 0.853092 0.150729 -0.214332
O68   O     O_2   0.457500 0.726981 0.147360 -0.298790
O69   O     O_3   0.431887 0.694394 0.980536 -0.487459
H26   H     H_    0.491538 0.687999 0.005900 0.390598
C64   C     C_2   0.714474 0.190406 0.296547 0.383973
H27   H     H_    0.769582 0.186474 0.289685 0.159356
O70   O     O_2   0.640612 0.169197 0.221666 -0.511962
C65   C     C_2   0.856179 0.491454 0.728156 0.716556
H28   H     H_    0.795984 0.507702 0.698080 0.135381
O71   O     O_2   0.927396 0.551818 0.798283 -0.458263
C66   C     C_2   0.844957 0.287325 0.727831 0.462925
H29   H     H_    0.888808 0.320390 0.810188 0.138663
O72   O     O_2   0.839709 0.211397 0.670650 -0.515975
S13   S     S_3+6 0.739989 0.392707 0.746754 0.021058
O73   O     O_2   0.692379 0.330200 0.751220 -0.281944
O74   O     O_2   0.808087 0.472970 0.854193 -0.242204
O75   O     O_3   0.665493 0.425153 0.678900 -0.552916
H30   H     H_    0.638309 0.453943 0.716048 0.398214
S14   S     S_3+6 0.714121 0.816846 0.671685 0.158279
O76   O     O_2   0.620757 0.788964 0.640215 -0.197263
O77   O     O_2   0.772263 0.792292 0.742843 -0.167000
O78   O     O_3   0.753248 0.928548 0.737523 -0.452770
H31   H     H_    0.807338 0.940786 0.740380 0.356313
S15   S     S_3+6 0.727825 0.612956 0.558973 0.098645
O79   O     O_2   0.806238 0.636683 0.660587 -0.229868
O80   O     O_2   0.646073 0.610436 0.558585 -0.213907
O81   O     O_3   0.711473 0.510880 0.465049 -0.575415
H32   H     H_    0.708083 0.471780 0.486494 0.375886
C67   C     C_2   0.782195 0.676648 0.288045 0.524208
H33   H     H_    0.752899 0.606420 0.252277 0.102460
O82   O     O_2   0.794916 0.698291 0.241477 -0.477642
C68   C     C_2   0.823777 0.909590 0.493000 0.571780
H34   H     H_    0.867394 0.939510 0.484625 0.114502
O83   O     O_2   0.828111 0.952939 0.572143 -0.523871

loop_
_geom_bond_atom_site_label_1
_geom_bond_atom_site_label_2
_geom_bond_distance
_ccdc_geom_bond_type
C26   S3    1.814651 S    
C63   H25   1.085209 S    
O15   C51   1.278462 A    
O29   H8    0.990581 S    
O17   C53   1.283004 A    
S7    O52   1.682268 S    
O65   H24   0.990317 S    
C3    C44   1.456943 S    
C17   C18   1.548371 S    
Zn6   O14   1.947667 S    
C67   H33   1.085831 S    
C17   C67   1.508396 S    
C15   C53   1.461340 S    
Zn6   O19   1.925490 S    
S3    O35   1.504973 D    
C35   C36   1.390865 A    
C39   C55   1.473831 S    
S6    O46   1.503210 D    
C32   C33   1.498599 S    
O6    C5    1.281000 A    
S14   O76   1.503225 D    
C67   O82   1.220645 D    
C11   C18   1.509547 S    
C9    C10   1.342776 D    
O4    C3    1.274613 A    
S13   O75   1.682229 S    
Zn1   O1    1.952164 S    
S9    O57   1.504160 D    
C17   H2    1.112297 S    
S8    O54   1.503028 D    
C41   S9    1.795513 S    
S2    O33   1.503514 D    
C12   C13   1.436232 A    
C45   C63   1.488846 S    
Zn8   O15   1.940559 S    
C66   O72   1.221211 D    
C58   H10   1.084743 S    
Zn7   O18   1.945013 S    
S7    O50   1.501850 D    
O8    C5    1.282638 A    
C50   S13   1.805687 S    
O9    C6    1.276709 A    
C31   C54   1.451519 S    
S13   O74   1.503233 D    
C16   C17   1.493546 S    
O19   C55   1.283449 A    
O7    C6    1.282939 A    
C28   C29   1.430586 A    
S12   O67   1.502589 D    
C19   C24   1.379301 A    
C42   S11   1.804679 S    
Zn3   O8    1.925446 S    
C38   C62   1.477815 S    
C33   C61   1.504793 S    
C40   C41   1.510016 S    
O59   H22   0.990530 S    
C45   C46   1.425482 A    
S14   O77   1.501848 D    
C14   S15   1.786284 S    
O55   H20   0.989565 S    
S8    O55   1.683955 S    
C47   C48   1.389161 A    
C8    C56   1.437231 S    
C6    C10   1.443482 S    
C62   O56   1.221007 D    
Zn2   O12   1.945014 S    
C23   C51   1.448472 S    
C37   S8    1.784473 S    
C26   S4    1.809693 S    
C43   C44   1.396211 A    
C27   C34   1.493771 S    
C37   C38   1.432342 A    
S6    O47   1.502807 D    
S11   O64   1.502379 D    
C46   C47   1.425533 A    
C22   C23   1.404954 A    
S15   O81   1.682961 S    
O2    C1    1.281488 A    
O34   H11   0.990327 S    
S10   O61   1.502629 D    
Zn7   O26   1.943345 S    
S10   O60   1.503483 D    
S12   O68   1.503459 D    
S4    O39   1.503127 D    
Zn8   O24   1.941309 S    
C27   C32   1.348205 A    
C33   S5    1.801684 S    
O23   C53   1.277191 A    
C34   S7    1.799238 S    
C41   C42   1.553750 S    
C30   C31   1.427497 A    
S3    O37   1.678620 S    
O10   C3    1.280319 A    
C35   C40   1.374874 A    
C47   C52   1.459977 S    
C29   C59   1.485339 S    
C7    C8    1.353170 D    
C49   H7    1.114035 S    
S2    O34   1.682341 S    
Zn6   O17   1.944657 S    
C20   C21   1.406730 A    
C13   S14   1.791804 S    
C68   H34   1.085345 S    
C49   C50   1.548729 S    
C36   C37   1.418472 A    
C24   C25   1.510765 S    
C43   C50   1.509989 S    
C11   C16   1.369444 A    
C50   C66   1.509953 S    
C44   C45   1.423657 A    
S13   O73   1.501275 D    
C19   C20   1.403416 A    
O24   C54   1.275083 A    
S5    O44   1.503329 D    
C60   O42   1.221357 D    
C43   C48   1.365874 A    
C11   C12   1.393733 A    
Zn3   O5    1.941314 S    
O26   C52   1.276416 A    
O16   C52   1.280661 A    
O25   C51   1.276524 A    
C13   C14   1.418990 A    
C4    C20   1.450583 S    
O11   C4    1.275351 A    
S14   O78   1.681473 S    
O18   C54   1.274546 A    
C34   H5    1.107210 S    
C29   C30   1.427737 A    
Zn7   O14   1.941770 S    
C57   O30   1.221434 D    
C18   C68   1.517907 S    
C31   C32   1.386168 A    
C61   H18   1.085603 S    
Zn4   O7    1.928417 S    
S12   O69   1.681901 S    
C19   C26   1.509302 S    
S15   O79   1.503503 D    
S6    O48   1.682408 S    
O21   C55   1.284191 A    
Zn8   O20   1.928371 S    
Zn4   O2    1.941163 S    
C21   H3    1.083337 S    
Zn7   O21   1.928729 S    
O69   H26   0.990558 S    
S1    O28   1.503443 D    
C18   C57   1.514898 S    
S11   O63   1.501975 D    
C7    S1    1.778295 S    
Zn2   O1    1.941617 S    
Zn1   O9    1.926765 S    
C22   H4    1.083197 S    
C60   H15   1.085197 S    
Zn2   O6    1.928684 S    
C10   H1    1.088424 S    
S10   O62   1.676209 S    
C23   C24   1.398499 A    
C35   C42   1.493421 S    
C59   O41   1.220884 D    
O52   H19   0.990562 S    
S4    O40   1.679762 S    
Zn5   O22   1.926765 S    
O75   H30   0.990531 S    
S7    O51   1.502904 D    
C33   C34   1.556507 S    
O62   H23   0.990744 S    
Zn1   O3    1.942592 S    
S9    O59   1.681404 S    
Zn2   O4    1.943345 S    
C7    C9    1.448850 S    
O78   H31   0.990562 S    
Zn3   O1    1.947667 S    
C5    C36   1.465711 S    
S3    O36   1.502614 D    
S4    O38   1.501166 D    
C61   O49   1.220546 D    
Zn5   O16   1.938018 S    
C63   O66   1.221299 D    
S1    O29   1.682078 S    
O3    C2    1.293992 A    
O81   H32   0.990910 S    
C30   C60   1.489465 S    
C14   C15   1.418754 A    
Zn4   O11   1.940554 S    
S9    O58   1.500053 D    
S5    O43   1.503428 D    
O40   H13   0.990476 S    
C49   C65   1.505947 S    
C48   C49   1.492644 S    
C41   S10   1.807612 S    
O37   H12   0.990589 S    
C42   H6    1.108438 S    
Zn8   O14   1.949117 S    
O5    C4    1.281297 A    
C66   H29   1.084633 S    
O45   H16   0.990414 S    
C58   O31   1.218284 D    
C27   C28   1.384138 A    
C25   C58   1.508011 S    
C21   C22   1.398096 A    
O13   C2    1.270805 A    
C15   C16   1.391724 A    
Zn3   O13   1.944759 S    
C68   O83   1.221015 D    
S8    O53   1.503925 D    
C39   C40   1.398845 A    
C8    S6    1.782802 S    
C65   O71   1.219717 D    
C25   C26   1.572090 S    
O20   C56   1.274831 A    
O48   H17   0.990584 S    
C64   H27   1.082393 S    
S5    O45   1.681829 S    
Zn5   O23   1.942487 S    
Zn4   O1    1.949118 S    
S11   O65   1.681583 S    
O12   C1    1.269557 A    
S1    O27   1.503098 D    
C25   S2    1.814628 S    
C57   H9    1.085653 S    
C9    S12   1.774368 S    
C38   C39   1.427426 A    
S15   O80   1.503144 D    
Zn1   O10   1.938120 S    
C64   O70   1.221010 D    
C62   H21   1.084393 S    
S2    O32   1.501923 D    
C2    C12   1.466271 S    
Zn5   O14   1.952162 S    
C46   C64   1.482004 S    
C65   H28   1.084847 S    
C1    C28   1.452631 S    
Zn6   O25   1.941210 S    
C59   H14   1.084423 S    
O22   C56   1.280036 A    
