data_mof_unit_58543.cif
_audit_creation_date              2012-12-11T14:08:26-0500
_audit_creation_method            fapswitch 2.2
_symmetry_space_group_name_H-M    P1
_symmetry_Int_Tables_number       1
_space_group_crystal_system       triclinic
_cell_length_a                    10.956594
_cell_length_b                    10.967809
_cell_length_c                    18.705603
_cell_angle_alpha                 90.054567
_cell_angle_beta                  89.968181
_cell_angle_gamma                 60.136836
_cell_volume                      1949.3708454

loop_
_atom_site_label
_atom_site_type_symbol
_atom_type_description
_atom_site_fract_x
_atom_site_fract_y
_atom_site_fract_z
_atom_type_partial_charge
C1    C     C_R   0.313793 0.610411 0.610557 0.568461
C2    C     C_3   0.689117 0.543744 0.798712 -0.051601
C3    C     C_3   0.703081 0.676083 0.811670 0.037174
C4    C     C_3   0.674132 0.650346 0.675559 0.039264
C5    C     C_3   0.805902 0.664564 0.686893 -0.255835
C6    C     C_3   0.695536 0.518711 0.718114 -0.218855
C7    C     C_2   0.671011 0.165762 0.673263 -0.129119
C8    C     C_2   0.676319 0.177738 0.830767 -0.081968
C9    C     C_2   0.782693 0.157656 0.788895 -0.152267
C10   C     C_2   0.763061 0.185585 0.711751 -0.181331
C11   C     C_2   0.324661 0.587635 0.687446 -0.114357
C12   C     C_R   0.655108 0.623478 0.600646 0.544537
C13   C     C_2   0.180884 0.677532 0.833344 0.002600
C14   C     C_2   0.222985 0.551695 0.798682 -0.035365
C15   C     C_2   0.245825 0.542717 0.720656 -0.135525
C16   C     C_2   0.595351 0.593333 0.309875 0.001217
C17   C     C_2   0.640027 0.663202 0.160211 -0.085194
C18   C     C_2   0.693575 0.532652 0.186344 -0.098008
C19   C     C_2   0.701067 0.507470 0.264075 0.007740
C20   C     C_2   0.677473 0.125516 0.337976 -0.104158
C21   C     C_2   0.682246 0.084226 0.185617 -0.106496
C22   C     C_2   0.625414 0.032363 0.230928 -0.163168
C23   C     C_R   0.627327 0.229322 0.602540 0.540196
C24   C     C_2   0.599047 0.079560 0.305176 -0.134667
C25   C     C_2   0.118387 0.683627 0.346307 -0.083109
C26   C     C_2   0.102596 0.694207 0.192317 -0.083708
C27   C     C_2   0.037804 0.808351 0.235008 -0.158499
C28   C     C_2   0.070918 0.802943 0.310360 -0.140138
C29   C     C_R   0.700638 0.105170 0.898731 0.572751
C30   C     C_R   0.725966 0.690204 0.887591 0.568456
C31   C     C_R   0.116160 0.708720 0.905673 0.548314
C32   C     C_R   0.701790 0.042883 0.111750 0.560827
C33   C     C_R   0.692770 0.687690 0.094245 0.548127
C34   C     C_R   0.214607 0.652071 0.405012 0.568905
C35   C     C_R   0.081612 0.715604 0.116430 0.555835
C36   C     C_R   0.611176 0.583189 0.388697 0.562892
C37   C     C_R   0.621173 0.221705 0.397969 0.559195
C38   C     C_3   0.566743 0.806438 0.783927 -0.266409
C39   C     C_3   0.544867 0.786097 0.704855 -0.250522
C40   C     C_3   0.829189 0.668453 0.768065 -0.230679
Cr1   Cr    Cr6+3 0.393010 0.398050 0.501480 1.026780
Cr2   Cr    Cr6+3 0.398820 0.707980 0.501630 1.036167
Cr3   Cr    Cr6+3 0.708140 0.393940 0.496850 1.031221
Cr4   Cr    Cr6+3 0.937950 0.938450 0.008940 1.023062
Cr5   Cr    Cr6+3 0.626180 0.937030 0.994750 1.011940
Cr6   Cr    Cr6+3 0.937790 0.625760 0.001410 1.035371
H1    H     H_    0.575264 0.903033 0.789755 0.144317
H2    H     H_    0.800926 0.430596 0.703345 0.166235
H3    H     H_    0.928966 0.573157 0.782872 0.163688
H4    H     H_    0.900482 0.574609 0.662304 0.133551
H5    H     H_    0.886643 0.118003 0.811661 0.172245
H6    H     H_    0.826913 0.222424 0.685984 0.155404
H7    H     H_    0.570458 0.227584 0.809403 0.106773
H8    H     H_    0.612101 0.121207 0.697828 0.096072
H9    H     H_    0.178889 0.515856 0.689510 0.140620
H10   H     H_    0.473859 0.822545 0.815571 0.113374
H11   H     H_    0.395912 0.608282 0.717027 0.067313
H12   H     H_    0.760565 0.443434 0.152316 0.164545
H13   H     H_    0.579565 0.755340 0.193057 0.112010
H14   H     H_    0.585359 0.965690 0.211621 0.144710
H15   H     H_    0.503716 0.091565 0.329638 0.183230
H16   H     H_    0.717581 0.156115 0.202863 0.153353
H17   H     H_    0.778180 0.103364 0.316230 0.142259
H18   H     H_    0.973718 0.912573 0.212478 0.157600
H19   H     H_    0.447826 0.779721 0.699048 0.125507
H20   H     H_    0.076657 0.891595 0.332505 0.175217
H21   H     H_    0.169270 0.588440 0.212352 0.135173
H22   H     H_    0.103959 0.598800 0.325913 0.142025
H23   H     H_    0.529272 0.879326 0.673793 0.128512
H24   H     H_    0.841889 0.760786 0.780641 0.104694
H25   H     H_    0.791299 0.762508 0.661285 0.120045
H26   H     H_    0.583574 0.566723 0.818172 0.104551
H27   H     H_    0.619382 0.484996 0.702593 0.095101
O1    O     O_R   0.507110 0.256280 0.580300 -0.521685
O2    O     O_R   0.524640 0.695370 0.425100 -0.458099
O3    O     O_R   0.735890 0.504390 0.415980 -0.472069
O4    O     O_R   0.690560 0.277820 0.422350 -0.503373
O5    O     O_3   0.499990 0.499990 0.499980 -0.314900
O6    O     O_R   0.089190 0.825870 0.932320 -0.523821
O7    O     O_R   0.819070 0.053960 0.931440 -0.496192
O8    O     O_R   0.607070 0.076440 0.916460 -0.536870
O9    O     O_R   0.647110 0.806550 0.917690 -0.517856
O10   O     O_R   0.837080 0.593860 0.915300 -0.489037
O11   O     O_R   0.064770 0.636080 0.932550 -0.519847
O12   O     O_R   0.280830 0.527190 0.577940 -0.506656
O13   O     O_R   0.068250 0.829200 0.092940 -0.517654
O14   O     O_R   0.799650 0.057040 0.080330 -0.495807
O15   O     O_R   0.586130 0.079760 0.077080 -0.487891
O16   O     O_R   0.627700 0.809630 0.066580 -0.512364
O17   O     O_R   0.816140 0.597180 0.075920 -0.501898
O18   O     O_R   0.045360 0.639170 0.081440 -0.488474
O19   O     O_3   0.833980 0.833750 0.001700 -0.281731
O20   O     O_R   0.261360 0.738990 0.584270 -0.527539
O21   O     O_R   0.532590 0.694780 0.574370 -0.525317
O22   O     O_R   0.744470 0.503750 0.577000 -0.524566
O23   O     O_R   0.698520 0.277230 0.571620 -0.507691
O24   O     O_R   0.498530 0.256920 0.419280 -0.505828
O25   O     O_R   0.272880 0.527780 0.428680 -0.492745
O26   O     O_R   0.252780 0.739630 0.423250 -0.484352
C41   C     C_3   0.227165 0.424197 0.835141 -0.243435
C42   C     C_3   0.266467 0.296999 0.785776 -0.304995
C43   C     C_3   0.280653 0.171001 0.827476 -0.441437
H28   H     H_    0.369970 0.132009 0.865308 0.179554
H29   H     H_    0.183058 0.199960 0.857992 0.196836
H30   H     H_    0.299716 0.085184 0.789674 0.130854
H31   H     H_    0.182396 0.325769 0.745199 0.176831
H32   H     H_    0.366701 0.265474 0.757332 0.161820
H33   H     H_    0.303396 0.390735 0.880113 0.162730
H34   H     H_    0.122091 0.452910 0.856433 0.200910
C44   C     C_3   0.180331 0.804467 0.796623 -0.245285
C45   C     C_3   0.074951 0.869057 0.734575 -0.292846
C46   C     C_3   0.096217 0.979904 0.695765 -0.428418
H35   H     H_    0.071944 0.069963 0.731541 0.156008
H36   H     H_    0.206689 0.934556 0.677625 0.169690
H37   H     H_    0.028054 0.017409 0.647704 0.164583
H38   H     H_    0.080011 0.793571 0.694384 0.188622
H39   H     H_    0.967681 0.912699 0.755948 0.151915
H40   H     H_    0.153561 0.893213 0.833621 0.169396
H41   H     H_    0.287472 0.778926 0.781941 0.112916
C47   C     C_2   0.841404 0.394987 0.287554 0.599197
O27   O     O_2   0.926103 0.425535 0.312220 -0.493923
O28   O     O_R   0.880485 0.254538 0.275763 -0.738003
H42   H     H_    0.979837 0.187159 0.292423 0.339575
C48   C     C_2   0.451985 0.693400 0.281789 0.528607
O29   O     O_2   0.382769 0.810761 0.307857 -0.499078
O30   O     O_R   0.399825 0.655775 0.222785 -0.710628
H43   H     H_    0.315823 0.740185 0.200924 0.346354
C49   C     C_2   0.796824 0.413906 0.838349 0.571662
O31   O     O_2   0.919300 0.349004 0.818263 -0.587715
O32   O     O_R   0.756999 0.375180 0.901568 -0.688195
H44   H     H_    0.839111 0.292729 0.926025 0.341979

loop_
_geom_bond_atom_site_label_1
_geom_bond_atom_site_label_2
_ccdc_geom_bond_type
C42   H32   S    
C7    C10   D    
O30   H43   S    
Cr2   O20   S    
C45   C46   S    
C1    C11   S    
C10   H6    S    
C49   O31   D    
C44   H40   S    
C37   O24   A    
C25   C28   D    
Cr2   O2    S    
C24   H15   S    
C40   H24   S    
C26   H21   S    
C22   H14   S    
C38   C39   S    
C35   O13   A    
C2    H26   S    
Cr5   O9    S    
Cr6   O19   S    
C40   H3    S    
C32   O15   A    
Cr3   O3    S    
C23   O23   A    
C43   H30   S    
C18   C19   S    
C30   O10   A    
Cr5   O19   S    
C44   C45   S    
C36   O3    A    
Cr1   O1    S    
C11   C15   D    
C18   H12   S    
C20   C24   D    
C3    C38   S    
C8    C9    D    
C9    H5    S    
Cr3   O22   S    
C12   O22   A    
C45   H38   S    
C4    C12   S    
Cr4   O14   S    
Cr5   O16   S    
C9    C10   S    
Cr4   O19   S    
C25   C34   S    
C44   H41   S    
C41   H34   S    
C13   C14   D    
C39   H19   S    
C12   O21   A    
C2    C6    S    
C25   H22   S    
C17   C33   S    
Cr4   O13   S    
C31   O6    A    
C46   H36   S    
C46   H35   S    
C47   O28   S    
C17   C18   D    
C1    O12   A    
C21   C32   S    
C41   H33   S    
C42   C43   S    
Cr4   O7    S    
Cr5   O15   S    
C4    C6    S    
Cr1   O5    S    
Cr6   O18   S    
C32   O14   A    
C37   O4    A    
C31   O11   A    
Cr3   O5    S    
C15   H9    S    
C30   O9    A    
C3    C30   S    
C28   H20   S    
C29   O8    A    
C13   C44   S    
C36   O2    A    
C33   O16   A    
C14   C15   S    
C4    C39   S    
Cr3   O23   S    
C39   H23   S    
C43   H29   S    
C38   H1    S    
C6    H2    S    
C17   H13   S    
Cr6   O11   S    
C3    C40   S    
Cr2   O5    S    
C26   C27   D    
C22   C24   S    
C5    H4    S    
C8    C29   S    
C23   O1    A    
Cr1   O12   S    
C47   O27   D    
C6    H27   S    
C48   O30   S    
C42   H31   S    
Cr2   O21   S    
C33   O17   A    
C13   C31   S    
Cr4   O6    S    
Cr5   O8    S    
C4    C5    S    
C49   O32   S    
C8    H7    S    
C19   C47   S    
C14   C41   S    
Cr6   O17   S    
Cr3   O4    S    
C34   O26   A    
C45   H39   S    
C20   H17   S    
C2    C3    S    
C16   C48   S    
C5    H25   S    
C11   H11   S    
Cr2   O26   S    
C16   C36   S    
C20   C37   S    
C29   O7    A    
C16   C19   D    
C7    C23   S    
C41   C42   S    
C34   O25   A    
O32   H44   S    
Cr1   O24   S    
C43   H28   S    
C27   H18   S    
Cr6   O10   S    
C26   C35   S    
C38   H10   S    
C1    O20   A    
C5    C40   S    
C27   C28   S    
Cr1   O25   S    
C7    H8    S    
C21   H16   S    
O28   H42   S    
C21   C22   D    
C46   H37   S    
C35   O18   A    
C48   O29   D    
C2    C49   S    
