data_mof_unit_5370.cif
_audit_creation_date              2013-03-05T16:02:23-0500
_audit_creation_method            fapswitch 2.2
_symmetry_space_group_name_H-M    P1
_symmetry_Int_Tables_number       1
_space_group_crystal_system       triclinic
_cell_length_a                    14.981604
_cell_length_b                    14.064506
_cell_length_c                    10.653774
_cell_angle_alpha                 90.013007
_cell_angle_beta                  88.34319
_cell_angle_gamma                 90.205222
_cell_volume                      2243.89167385

loop_
_atom_site_label
_atom_site_type_symbol
_atom_site_description
_atom_site_fract_x
_atom_site_fract_y
_atom_site_fract_z
_atom_type_partial_charge
O1    O     O_R   0.367860 0.580280 0.500020 -0.615610
O2    O     O_R   0.367860 0.419720 0.500020 -0.615289
C1    C     C_R   0.326757 0.499735 0.501706 0.911815
O3    O     O_R   0.500000 0.580270 0.314790 -0.624388
O4    O     O_R   0.500000 0.419730 0.314790 -0.625759
C2    C     C_R   0.500689 0.500003 0.257470 0.826104
Zn1   Zn    Zn3+2 0.500020 0.607200 0.499990 0.953677
Zn2   Zn    Zn3+2 0.500020 0.392800 0.499990 0.954657
O5    O     O_R   0.632160 0.580270 0.499960 -0.612053
O6    O     O_R   0.632160 0.419730 0.499960 -0.612308
O7    O     O_R   0.500030 0.580270 0.685200 -0.633170
O8    O     O_R   0.500030 0.419730 0.685200 -0.632143
C3    C     C_R   0.672605 0.500183 0.497679 0.896501
C4    C     C_R   0.500660 0.499969 0.742400 0.834619
C5    C     C_3   0.449048 0.587522 0.073341 -0.397638
C6    C     C_3   0.455568 0.408037 0.073117 -0.398190
H1    H     H_    0.482078 0.654622 0.103038 0.192408
H2    H     H_    0.488383 0.343353 0.110240 0.191966
H3    H     H_    0.379807 0.588592 0.112718 0.173248
H4    H     H_    0.384185 0.405820 0.104735 0.178082
C7    C     C_3   0.446536 0.585431 0.930560 -0.394986
C8    C     C_3   0.462169 0.404867 0.930469 -0.385536
H5    H     H_    0.376431 0.581326 0.900753 0.189925
H6    H     H_    0.395744 0.389396 0.892635 0.193100
H7    H     H_    0.474436 0.653799 0.893789 0.182344
H8    H     H_    0.506199 0.344601 0.901331 0.182831
H9    H     H_    0.633193 0.568655 0.104642 0.181601
H10   H     H_    0.636272 0.441346 0.098076 0.183297
H11   H     H_    0.628398 0.577920 0.890533 0.174898
H12   H     H_    0.640849 0.451125 0.883453 0.162158
C9    C     C_3   0.598480 0.504921 0.068023 -0.399598
C10   C     C_3   0.500948 0.500023 0.121022 0.179427
C11   C     C_3   0.501583 0.499909 0.878686 0.189362
C12   C     C_3   0.598621 0.509350 0.923379 -0.422632
C13   C     C_R   0.814415 0.510651 0.385082 -0.239841
C14   C     C_R   0.766958 0.500694 0.497887 -0.045722
C15   C     C_R   0.808589 0.491427 0.611608 -0.259605
C16   C     C_R   0.901383 0.491723 0.614788 0.108422
C17   C     C_R   0.951070 0.500999 0.499878 0.032104
C18   C     C_R   0.906779 0.510513 0.385087 0.143946
C19   C     C_R   0.945431 0.482778 0.729204 0.194869
C20   C     C_R   0.038283 0.482517 0.727329 -0.195947
C21   C     C_R   0.088526 0.490859 0.613865 0.022281
C22   C     C_R   0.044606 0.500368 0.499219 -0.013924
C23   C     C_R   0.093679 0.508404 0.383686 0.124062
C24   C     C_R   0.047441 0.518308 0.270977 -0.205631
C25   C     C_R   0.955043 0.519410 0.271993 -0.221046
C26   C     C_R   0.181831 0.489960 0.613130 -0.085310
C27   C     C_R   0.230472 0.498775 0.499135 -0.111986
C28   C     C_R   0.187528 0.506000 0.383440 0.133204
H13   H     H_    0.779205 0.517733 0.297905 0.137248
H14   H     H_    0.767487 0.484287 0.696459 0.140228
H15   H     H_    0.070975 0.475617 0.816130 0.163945
H16   H     H_    0.081643 0.525509 0.180705 0.162549
H17   H     H_    0.921228 0.526928 0.183914 0.149170
C29   C     C_R   0.557883 0.798042 0.420538 0.061849
C30   C     C_R   0.557563 0.202424 0.420032 0.061343
N1    N     N_R   0.500070 0.750030 0.500050 -0.123651
N2    N     N_R   0.500070 0.249970 0.500050 -0.124035
C31   C     C_R   0.442847 0.798316 0.579138 -0.084298
C32   C     C_R   0.443032 0.201291 0.579408 -0.084217
C33   C     C_R   0.441720 0.898776 0.580771 0.017392
C34   C     C_R   0.441808 0.100832 0.580897 0.016991
C35   C     C_R   0.500379 0.949413 0.499283 0.084010
C36   C     C_R   0.500384 0.050630 0.499280 0.084131
C37   C     C_R   0.559143 0.898954 0.418059 -0.024457
C38   C     C_R   0.559017 0.101520 0.417843 -0.024158
C39   C     C_R   0.383518 0.949607 0.661791 -0.199746
C40   C     C_R   0.383585 0.049584 0.661888 -0.198520
C41   C     C_R   0.617234 0.050116 0.336991 -0.199725
C42   C     C_R   0.617333 0.950783 0.337148 -0.199500
H18   H     H_    0.398143 0.758355 0.641138 0.138940
H19   H     H_    0.398471 0.240945 0.641603 0.141621
H20   H     H_    0.337918 0.912030 0.725223 0.142564
H21   H     H_    0.338038 0.086841 0.725391 0.143803
H22   H     H_    0.663331 0.086183 0.272852 0.151309
H23   H     H_    0.663494 0.915049 0.273097 0.151391
C43   C     C_1   0.227305 0.478495 0.730076 0.125954
N3    N     N_1   0.260822 0.468852 0.825357 -0.269916
C44   C     C_3   0.240733 0.509232 0.260206 -0.936291
H24   H     H_    0.313198 0.500930 0.271652 0.229026
H25   H     H_    0.219734 0.450053 0.198536 0.241340
H26   H     H_    0.229678 0.578302 0.212774 0.239242
C45   C     C_1   0.618428 0.744727 0.340044 0.227892
N4    N     N_1   0.667649 0.702954 0.275241 -0.251012
C46   C     C_1   0.617149 0.256298 0.338179 0.226463
N5    N     N_1   0.665424 0.298677 0.272226 -0.244477
C47   C     C_3   0.895382 0.473476 0.853923 -0.942584
H27   H     H_    0.852665 0.408784 0.853884 0.245401
H28   H     H_    0.941239 0.467261 0.933619 0.238616
H29   H     H_    0.853099 0.537140 0.870895 0.241568

loop_
_geom_bond_atom_site_label_1
_geom_bond_atom_site_label_2
_geom_bond_distance
_ccdc_geom_bond_type
C18   C25   1.392581 A    
C2    C10   1.453574 S    
C34   C36   1.408828 A    
C19   C20   1.390656 A    
C13   C14   1.385417 A    
C4    C11   1.452429 S    
C1    C27   1.443575 S    
C5    C10   1.551481 S    
C9    C10   1.552483 S    
C23   C24   1.410670 A    
C5    H3    1.107816 S    
C14   C15   1.384999 A    
O2    C1    1.284641 A    
O3    Zn1   2.009029 S    
C20   H15   1.082370 S    
C16   C17   1.420050 A    
O7    C4    1.283625 A    
C30   N2    1.370125 A    
C7    C11   1.553303 S    
C31   H18   1.082882 S    
C39   H20   1.083329 S    
C30   C46   1.442884 S    
C31   C33   1.413180 A    
C26   C43   1.446511 S    
C32   C34   1.413038 A    
O5    C3    1.280822 A    
C33   C35   1.408852 A    
C34   C40   1.406107 A    
C39   C40   1.406123 A    
C36   C38   1.410087 A    
C41   C42   1.397074 A    
C21   C26   1.397764 A    
Zn1   N1    2.008831 S    
C6    H4    1.112233 S    
O1    Zn1   2.014504 S    
C30   C38   1.419580 A    
C44   H26   1.110262 S    
C29   C45   1.442235 S    
N2    C32   1.366760 A    
H12   C12   1.113451 S    
H9    C9    1.111045 S    
C45   N4    1.157183 T    
C3    C14   1.413619 S    
C44   H25   1.110503 S    
C17   C18   1.414735 A    
C15   H14   1.083449 S    
C43   N3    1.153686 T    
C32   H19   1.082921 S    
H11   C12   1.113364 S    
O1    C1    1.287308 A    
C35   C37   1.409846 A    
Zn1   O7    2.009297 S    
C21   C22   1.410627 A    
C15   C16   1.391580 A    
C37   C42   1.409507 A    
C47   H29   1.110442 S    
Zn2   O8    2.009128 S    
C24   H16   1.081170 S    
C11   C12   1.548050 S    
C9    C12   1.542210 S    
C6    H2    1.113715 S    
C16   C19   1.408678 A    
O3    C2    1.283306 A    
C26   C27   1.403423 A    
C47   H28   1.111197 S    
C7    H5    1.107301 S    
C13   H13   1.086058 S    
C8    H6    1.105324 S    
C20   C21   1.410119 A    
C42   H23   1.082374 S    
C22   C23   1.419660 A    
C25   H17   1.084563 S    
C5    H1    1.114066 S    
C19   C47   1.512152 S    
C7    H7    1.113826 S    
C24   C25   1.384140 A    
C6    C8    1.520755 S    
C46   N5    1.157485 T    
H10   C9    1.112125 S    
O2    Zn2   2.017168 S    
O8    C4    1.282563 A    
C44   H24   1.102595 S    
O6    C3    1.281541 A    
C28   C44   1.516713 S    
O4    Zn2   2.009198 S    
C17   C22   1.401191 A    
C6    C10   1.552392 S    
C33   C39   1.406110 A    
C38   C41   1.409313 A    
C35   C36   1.423577 A    
C13   C18   1.383774 A    
Zn2   N2    2.008838 S    
C41   H22   1.082385 S    
O4    C2    1.283570 A    
C23   C28   1.406452 A    
C29   C37   1.419578 A    
C29   N1    1.370182 A    
C40   H21   1.083342 S    
Zn1   O5    2.016898 S    
C5    C7    1.522982 S    
C47   H27   1.110521 S    
Zn2   O6    2.014233 S    
C27   C28   1.410643 A    
C8    H8    1.114435 S    
N1    C31   1.366832 A    
C8    C11   1.554254 S    
