data_mof_unit_46901.cif
_audit_creation_date              2013-03-05T15:58:19-0500
_audit_creation_method            fapswitch 2.2
_symmetry_space_group_name_H-M    P1
_symmetry_Int_Tables_number       1
_space_group_crystal_system       triclinic
_cell_length_a                    14.903397
_cell_length_b                    15.037463
_cell_length_c                    15.078147
_cell_angle_alpha                 109.95896
_cell_angle_beta                  110.022362
_cell_angle_gamma                 108.368924
_cell_volume                      2602.78697207

loop_
_atom_site_label
_atom_site_type_symbol
_atom_site_description
_atom_site_fract_x
_atom_site_fract_y
_atom_site_fract_z
_atom_type_partial_charge
C1    C     C_R   0.980568 0.260391 0.071987 -0.086550
C2    C     C_R   0.085762 0.802917 0.002199 -0.046033
H1    H     H_    0.951392 0.259622 0.128001 0.133186
H2    H     H_    0.144330 0.833413 0.978965 0.126547
N1    N     N_R   0.947560 0.293820 0.002910 -0.053919
N2    N     N_R   0.052440 0.706180 0.997090 -0.038881
C3    C     C_R   0.315900 0.770039 0.224976 -0.069116
C4    C     C_R   0.713191 0.191739 0.800748 -0.007850
H3    H     H_    0.380013 0.784476 0.204952 0.140199
H4    H     H_    0.673089 0.163983 0.840643 0.180744
N3    N     N_R   0.208960 0.706170 0.152110 -0.038517
N4    N     N_R   0.791040 0.293830 0.847890 -0.061626
C5    C     C_R   0.213401 0.409640 0.908004 -0.216509
C6    C     C_R   0.774229 0.590151 0.018680 -0.160072
H5    H     H_    0.186070 0.326074 0.852674 0.140757
H6    H     H_    0.792170 0.673695 0.051788 0.141098
N5    N     N_R   0.154330 0.443160 0.946140 -0.061535
N6    N     N_R   0.845670 0.556840 0.053860 -0.074449
C7    C     C_R   0.991797 0.588096 0.298242 0.436920
C8    C     C_R   0.938663 0.412725 0.684863 0.415637
N7    N     N_R   0.002190 0.556820 0.208880 -0.073952
N8    N     N_R   0.997810 0.443180 0.791120 -0.088742
C9    C     C_R   0.298581 0.590431 0.992449 0.286935
C10   C     C_R   0.685513 0.409206 0.928364 0.343075
N9    N     N_R   0.210550 0.556810 0.002910 -0.082875
N10   N     N_R   0.789450 0.443190 0.997090 -0.099651
C11   C     C_R   0.886963 0.410789 0.194296 -0.145271
C12   C     C_R   0.040933 0.593428 0.778904 -0.118068
H7    H     H_    0.816348 0.332139 0.146148 0.134508
H8    H     H_    0.077410 0.678008 0.806968 0.138964
N11   N     N_R   0.945970 0.443180 0.152110 -0.065566
N12   N     N_R   0.054030 0.556820 0.847890 -0.059832
C13   C     C_R   0.222452 0.774659 0.313852 -0.064884
C14   C     C_R   0.804200 0.191177 0.713681 0.038313
H9    H     H_    0.197451 0.797741 0.371853 0.174192
H10   H     H_    0.844107 0.168328 0.670205 0.122311
N13   N     N_R   0.151530 0.706170 0.208880 -0.056122
N14   N     N_R   0.848470 0.293830 0.791120 -0.034387
C15   C     C_R   0.071965 0.255593 0.981110 -0.128720
C16   C     C_R   0.996560 0.799601 0.093705 -0.143931
H11   H     H_    0.125976 0.246268 0.951282 0.120385
H12   H     H_    0.981733 0.825279 0.159962 0.123736
N15   N     N_R   0.004980 0.293810 0.946140 -0.056023
N16   N     N_R   0.995020 0.706190 0.053860 -0.048455
C17   C     C_R   0.058506 0.233644 0.061078 0.067384
C18   C     C_R   0.049880 0.862646 0.061368 0.052822
C19   C     C_R   0.327319 0.813033 0.328453 0.005293
C20   C     C_R   0.717120 0.124749 0.714630 -0.028511
C21   C     C_R   0.303645 0.500127 0.935463 -0.068746
C22   C     C_R   0.672834 0.498897 0.938891 -0.087228
C23   C     C_R   0.910167 0.498547 0.284891 -0.001887
C24   C     C_R   0.971536 0.504816 0.673737 -0.028099
H13   H     H_    0.495345 0.299268 0.027821 0.179316
H14   H     H_    0.647925 0.822556 0.133294 0.194075
C25   C     C_R   0.161697 0.042484 0.091573 -0.212614
C26   C     C_R   0.034267 0.121928 0.147342 -0.173047
C27   C     C_R   0.324004 0.187090 0.952018 0.461432
C28   C     C_R   0.824289 0.893809 0.221938 0.370916
Ni1   Ni    Ni4+2 0.869690 0.369690 0.000000 0.244923
Ni2   Ni    Ni4+2 0.130310 0.630310 0.000000 0.297358
Ni3   Ni    Ni4+2 0.001390 0.369680 0.869810 0.221868
Ni4   Ni    Ni4+2 0.998610 0.630320 0.130190 0.235720
C29   C     C_R   0.237350 0.151912 0.969957 -0.298721
C30   C     C_R   0.921306 0.952458 0.225513 -0.249186
H15   H     H_    0.520091 0.391411 0.211998 0.139202
H16   H     H_    0.640718 0.845366 0.977654 0.207618
C31   C     C_R   0.611788 0.169643 0.092773 -0.039715
C32   C     C_R   0.260855 0.783142 0.770976 -0.182503
H17   H     H_    0.532855 0.151842 0.034362 0.223052
H18   H     H_    0.334698 0.776833 0.789333 0.207197
C33   C     C_R   0.667532 0.258568 0.198076 -0.279665
C34   C     C_R   0.164265 0.700868 0.674233 -0.220491
H19   H     H_    0.631692 0.308889 0.218970 0.167986
H20   H     H_    0.165088 0.631679 0.620807 0.207708
C35   C     C_R   0.773533 0.288450 0.273183 -0.007667
C36   C     C_R   0.065245 0.702643 0.650706 -0.023112
C37   C     C_R   0.818513 0.220786 0.246075 0.435092
C38   C     C_R   0.066035 0.793775 0.720013 0.440852
C39   C     C_R   0.763446 0.134062 0.139203 -0.408871
C40   C     C_R   0.162990 0.874769 0.818503 -0.416250
H21   H     H_    0.803355 0.089953 0.116224 0.200335
H22   H     H_    0.159696 0.936987 0.877001 0.190728
C41   C     C_R   0.662035 0.110556 0.060228 0.414585
C42   C     C_R   0.260155 0.868393 0.846600 0.441773
C43   C     C_R   0.875735 0.405550 0.471557 -0.085821
C44   C     C_R   0.919482 0.593011 0.460213 -0.109267
H23   H     H_    0.865887 0.331626 0.471019 0.203507
H24   H     H_    0.941968 0.666999 0.456403 0.187017
C45   C     C_R   0.934647 0.505401 0.568967 0.041120
C46   C     C_R   0.877786 0.494290 0.366746 0.018377
C47   C     C_R   0.962724 0.601504 0.562509 0.139674
C48   C     C_R   0.841152 0.398043 0.371003 0.087413
H25   H     H_    0.156983 0.087630 0.902081 0.163046
H26   H     H_    0.000234 0.986049 0.296139 0.150447
H27   H     H_    0.355248 0.325254 0.881202 0.156856
H28   H     H_    0.605346 0.668250 0.942460 0.133151
H29   H     H_    0.368265 0.319968 0.244919 0.125492
H30   H     H_    0.809491 0.920654 0.970783 0.182571
C49   C     C_R   0.253510 0.196946 0.075185 0.077574
C50   C     C_R   0.916534 0.958322 0.133005 0.052698
C51   C     C_R   0.441372 0.323626 0.144634 -0.157946
C52   C     C_R   0.718953 0.872555 0.045571 -0.127092
H31   H     H_    0.105603 0.001114 0.537376 0.155185
H32   H     H_    0.017233 0.099858 0.557683 0.125091
C53   C     C_R   0.229815 0.032531 0.492994 -0.161840
C54   C     C_R   0.917203 0.011790 0.605701 -0.047216
H33   H     H_    0.204079 0.076138 0.454926 0.130837
H34   H     H_    0.983322 0.009049 0.662063 0.176818
C55   C     C_R   0.317525 0.016731 0.494183 -0.097973
C56   C     C_R   0.813821 0.968822 0.595558 -0.110295
H35   H     H_    0.358578 0.047291 0.455592 0.139121
H36   H     H_    0.801488 0.935365 0.646299 0.162791
C57   C     C_R   0.349394 0.958048 0.541618 0.055921
C58   C     C_R   0.728973 0.975965 0.525398 0.071539
C59   C     C_R   0.297260 0.921488 0.593682 -0.015729
C60   C     C_R   0.747072 0.020642 0.460904 -0.047539
H37   H     H_    0.322091 0.877694 0.632087 0.161021
H38   H     H_    0.683072 0.027845 0.407190 0.145341
C61   C     C_R   0.207923 0.935161 0.589824 0.083420
C62   C     C_R   0.851006 0.065296 0.472995 -0.055868
H39   H     H_    0.164754 0.902988 0.625955 0.143772
H40   H     H_    0.865798 0.103644 0.426609 0.162769
C63   C     C_R   0.174119 0.990195 0.539255 0.026196
C64   C     C_R   0.936352 0.062440 0.546568 -0.064093
C65   C     C_R   0.531631 0.982312 0.630287 -0.113987
C66   C     C_R   0.527376 0.884032 0.435622 -0.198582
H41   H     H_    0.530106 0.019484 0.704517 0.190657
H42   H     H_    0.526182 0.839700 0.361258 0.138212
C67   C     C_R   0.630220 0.012296 0.629841 0.053789
C68   C     C_R   0.430783 0.878767 0.433650 0.074397
C69   C     C_R   0.628398 0.954342 0.532165 0.039518
C70   C     C_R   0.434921 0.932331 0.533513 0.011582
C71   C     C_R   0.427066 0.272097 0.040258 -0.257189
C72   C     C_R   0.723497 0.861094 0.134746 -0.223492
C73   C     C_R   0.016382 0.020791 0.134000 0.053292
C74   C     C_R   0.170315 0.138846 0.094463 0.052290
H43   H     H_    0.216490 0.015405 0.076105 0.185869
H44   H     H_    0.984735 0.151216 0.171187 0.173224
C75   C     C_R   0.355028 0.284738 0.162760 -0.061410
C76   C     C_R   0.814409 0.914966 0.041827 -0.149398
C77   C     C_R   0.077121 0.976733 0.098543 0.042582
C78   C     C_R   0.095741 0.171591 0.108828 0.037020
C79   C     C_3   0.452180 0.419967 0.820061 -0.089958
C80   C     C_3   0.512384 0.578531 0.015349 -0.091778
C81   C     C_3   0.429799 0.516882 0.838584 -0.133913
C82   C     C_3   0.532440 0.481912 0.996827 -0.168267
H45   H     H_    0.385444 0.531797 0.774216 0.151494
H46   H     H_    0.578493 0.471639 0.064465 0.134992
H47   H     H_    0.427634 0.356026 0.738667 0.176591
H48   H     H_    0.535783 0.642625 0.096195 0.155207
C83   C     C_3   0.394985 0.500060 0.918885 0.166066
C84   C     C_3   0.569157 0.498534 0.917631 0.148818
C85   C     C_3   0.415138 0.403468 0.899711 -0.119343
C86   C     C_3   0.549081 0.595050 0.935439 -0.099393
N17   N     N_R   0.305455 0.136657 0.843632 0.212857
O1    O     O_R   0.380222 0.121451 0.826041 -0.323844
O2    O     O_R   0.212870 0.106409 0.761739 -0.508057
N18   N     N_R   0.827582 0.861124 0.301648 0.227917
O3    O     O_R   0.738026 0.810928 0.300629 -0.427551
O4    O     O_R   0.916554 0.865924 0.364319 -0.450445
N19   N     N_R   0.614033 0.032579 0.946825 0.244620
O5    O     O_R   0.518193 0.008134 0.874506 -0.380271
O6    O     O_R   0.671281 0.996147 0.912891 -0.463044
N20   N     N_R   0.355016 0.942962 0.953877 0.257708
O7    O     O_R   0.434735 0.922334 0.987610 -0.327399
O8    O     O_R   0.357797 0.025815 0.022815 -0.457550
Cl1   Cl    Cl    0.950322 0.252328 0.337974 -0.729815
Cl2   Cl    Cl    0.944640 0.800390 0.694232 -0.678305
Cl3   Cl    Cl    0.109999 0.674147 0.427433 -0.774211
Cl4   Cl    Cl    0.805178 0.301066 0.593030 -0.728181
N21   N     N_R   0.347394 0.693294 0.999174 0.223726
O9    O     O_R   0.425028 0.719058 0.976361 -0.424370
O10   O     O_R   0.303528 0.755444 0.013201 -0.421113
N22   N     N_R   0.599179 0.302596 0.880797 0.221834
O11   O     O_R   0.523541 0.250127 0.778504 -0.391981
O12   O     O_R   0.602348 0.254047 0.937469 -0.456392

loop_
_geom_bond_atom_site_label_1
_geom_bond_atom_site_label_2
_geom_bond_distance
_ccdc_geom_bond_type
C8    Cl4   1.765051 S    
N21   O9    1.299267 A    
C31   C41   1.401570 A    
C25   C77   1.397704 A    
C57   C70   1.474547 S    
N17   O2    1.299924 A    
C58   C69   1.477515 S    
C6    N6    1.340413 A    
C68   C70   1.413136 A    
N6    N10   1.401114 A    
H15   C51   1.081916 S    
C40   C42   1.407403 A    
C10   N22   1.422337 S    
C61   C63   1.396642 A    
C52   C72   1.394795 A    
N13   Ni4   1.867829 S    
C51   C75   1.395796 A    
N20   O8    1.299335 A    
C15   H11   1.070455 S    
C28   C72   1.402571 A    
C16   C18   1.368961 A    
C27   N17   1.426454 S    
N8    N12   1.400989 A    
C1    N1    1.319825 A    
C36   C38   1.404961 A    
N20   O7    1.301025 A    
C7    N7    1.347925 A    
C10   N10   1.332219 A    
C80   C83   1.534150 S    
C1    H1    1.075878 S    
C44   C47   1.394156 A    
C55   H35   1.083161 S    
C23   C46   1.484123 S    
C38   C40   1.401161 A    
C79   C85   1.542658 S    
C11   H7    1.067488 S    
C66   C68   1.405967 A    
C25   C74   1.397800 A    
H14   C72   1.080691 S    
C26   H44   1.070845 S    
C53   C63   1.395496 A    
C79   C81   1.550947 S    
N11   Ni1   1.861807 S    
N3    N13   1.402487 A    
H16   C52   1.082316 S    
N22   O11   1.300085 A    
C80   H48   1.109730 S    
C50   C76   1.400514 A    
C56   H36   1.083078 S    
N19   O6    1.300775 A    
N4    Ni1   1.861644 S    
C46   C48   1.409371 A    
H28   C86   1.097214 S    
C62   H40   1.082186 S    
C59   H37   1.083141 S    
C49   C74   1.456908 S    
C29   C49   1.391401 A    
N9    Ni2   1.866489 S    
C4    N4    1.332610 A    
C45   C47   1.419811 A    
N10   Ni1   1.866487 S    
C56   C58   1.405995 A    
C31   C33   1.395136 A    
C42   N20   1.438445 S    
C50   C73   1.480218 S    
C55   C57   1.406493 A    
C15   C17   1.413730 A    
N14   Ni3   1.867827 S    
C26   C78   1.401239 A    
C49   C75   1.399464 A    
C61   H39   1.080990 S    
C41   N19   1.440600 S    
H31   C63   1.076796 S    
C73   C77   1.418369 A    
C22   C84   1.464416 S    
N2    N16   1.402364 A    
C37   Cl1   1.761830 S    
N18   O4    1.300565 A    
C27   C71   1.401951 A    
C24   C45   1.488530 S    
C2    N2    1.345599 A    
C81   H45   1.109939 S    
C43   C48   1.374222 A    
C11   C23   1.373049 A    
C27   C29   1.388208 A    
C18   C77   1.473392 S    
C82   H46   1.109096 S    
C43   H23   1.071225 S    
C10   C22   1.383831 A    
C21   C83   1.466039 S    
C19   C68   1.471332 S    
C11   N11   1.319021 A    
C32   C42   1.400850 A    
N2    Ni2   1.866598 S    
C12   N12   1.320118 A    
H13   C71   1.076341 S    
C34   H20   1.083598 S    
C44   C46   1.402388 A    
C39   H21   1.070794 S    
C43   C45   1.401119 A    
N6    Ni4   1.867866 S    
C15   N15   1.346448 A    
C28   C30   1.407743 A    
N16   Ni4   1.876656 S    
C57   C59   1.401891 A    
C2    C18   1.403930 A    
C60   C62   1.396757 A    
H30   C76   1.083012 S    
C31   H17   1.078101 S    
C3    C19   1.393369 A    
C2    H2    1.077823 S    
C4    C20   1.378597 A    
C7    C23   1.395911 A    
C53   H33   1.082268 S    
C3    N3    1.336196 A    
C16   N16   1.314790 A    
C32   C34   1.392201 A    
N7    N11   1.400990 A    
C37   C39   1.398615 A    
C34   C36   1.406112 A    
N22   O12   1.298222 A    
C52   C76   1.393381 A    
C35   C37   1.409022 A    
N7    Ni4   1.876512 S    
C81   C83   1.534841 S    
C74   C78   1.400565 A    
C35   C48   1.477476 S    
C82   C84   1.533910 S    
C81   C86   1.551758 S    
N1    Ni1   1.866600 S    
C80   C82   1.527120 S    
C79   C84   1.535714 S    
C84   C86   1.526682 S    
C59   C61   1.394986 A    
C5    H5    1.081660 S    
C28   N18   1.437568 S    
N18   O3    1.301723 A    
C13   C19   1.390428 A    
C5    C21   1.382897 A    
C20   C67   1.476909 S    
C14   C20   1.373937 A    
N12   Ni2   1.861808 S    
N5    Ni3   1.867869 S    
N3    Ni2   1.861643 S    
N4    N14   1.402489 A    
C26   C73   1.386877 A    
N15   Ni3   1.876656 S    
C33   H19   1.079058 S    
C54   C56   1.399473 A    
C3    H3    1.078346 S    
C53   C55   1.395748 A    
C66   H42   1.081918 S    
C6    H6    1.080600 S    
C14   N14   1.334758 A    
C7    Cl3   1.750681 S    
C8    N8    1.353231 A    
C58   C60   1.407540 A    
H32   C64   1.080499 S    
C51   C71   1.398669 A    
N21   O10   1.300160 A    
C29   H25   1.082538 S    
C38   Cl2   1.758530 S    
C25   H43   1.078066 S    
C5    N5    1.337246 A    
N5    N9    1.401115 A    
C12   H8    1.063730 S    
C30   C50   1.406580 A    
C30   H26   1.083212 S    
C8    C24   1.404682 A    
N19   O5    1.301233 A    
N8    Ni3   1.876514 S    
C33   C35   1.400075 A    
C12   C24   1.387659 A    
C65   C70   1.378341 A    
C1    C17   1.384970 A    
C6    C22   1.391045 A    
C82   C85   1.536217 S    
C54   H34   1.082128 S    
C66   C69   1.396014 A    
C44   H24   1.084113 S    
C16   H12   1.066570 S    
C13   H9    1.059030 S    
C40   H22   1.072835 S    
C60   H38   1.083267 S    
C17   C78   1.486083 S    
C14   H10   1.069355 S    
C83   C85   1.526845 S    
C80   C86   1.543547 S    
C13   N13   1.318538 A    
C9    C21   1.378557 A    
C36   C47   1.476250 S    
C39   C41   1.403824 A    
C65   C67   1.397678 A    
C79   H47   1.108957 S    
C9    N9    1.334100 A    
C9    N21   1.437113 S    
C4    H4    1.074079 S    
C54   C64   1.399061 A    
N17   O1    1.298405 A    
C65   H41   1.078892 S    
C32   H18   1.082530 S    
N1    N15   1.402363 A    
H27   C85   1.096161 S    
H29   C75   1.083024 S    
C62   C64   1.396802 A    
C67   C69   1.418004 A    
