data_mof_unit_65010.cif
_audit_creation_date              2013-03-05T16:28:16-0500
_audit_creation_method            fapswitch 2.2
_symmetry_space_group_name_H-M    P1
_symmetry_Int_Tables_number       1
_space_group_crystal_system       triclinic
_cell_length_a                    26.028519
_cell_length_b                    26.009824
_cell_length_c                    22.166439
_cell_angle_alpha                 89.988924
_cell_angle_beta                  125.763754
_cell_angle_gamma                 90.014567
_cell_volume                      12176.8745421

loop_
_atom_site_label
_atom_site_type_symbol
_atom_site_description
_atom_site_fract_x
_atom_site_fract_y
_atom_site_fract_z
_atom_type_partial_charge
Zn1   Zn    Zn3+2 0.824140 0.706600 0.561580 0.995710
Zn2   Zn    Zn3+2 0.824140 0.293400 0.561580 0.994281
Zn3   Zn    Zn3+2 0.324140 0.206600 0.561580 0.979214
Zn4   Zn    Zn3+2 0.324140 0.793400 0.561580 0.981921
Zn5   Zn    Zn3+2 0.762580 0.793360 0.438420 1.017202
Zn6   Zn    Zn3+2 0.762580 0.206640 0.438420 1.018762
Zn7   Zn    Zn3+2 0.262580 0.293360 0.438420 1.039560
Zn8   Zn    Zn3+2 0.262580 0.706640 0.438420 1.045510
Zn9   Zn    Zn3+2 0.737390 0.793360 0.561570 1.066046
Zn10  Zn    Zn3+2 0.737390 0.206640 0.561570 1.068395
Zn11  Zn    Zn3+2 0.237390 0.293360 0.561570 1.036017
Zn12  Zn    Zn3+2 0.237390 0.706640 0.561570 1.043839
Zn13  Zn    Zn3+2 0.675820 0.706600 0.438430 1.040515
Zn14  Zn    Zn3+2 0.675820 0.293400 0.438430 1.037478
Zn15  Zn    Zn3+2 0.175820 0.206600 0.438430 1.047419
Zn16  Zn    Zn3+2 0.175820 0.793400 0.438430 1.048802
O1    O     O_3   0.749980 0.749980 0.500000 -0.520244
O2    O     O_3   0.749980 0.250020 0.500000 -0.520635
O3    O     O_3   0.249980 0.249980 0.500000 -0.521212
O4    O     O_3   0.249980 0.750020 0.500000 -0.521697
O5    O     O_R   0.637440 0.719620 0.335610 -0.626234
O6    O     O_R   0.637440 0.280380 0.335610 -0.624275
O7    O     O_R   0.137440 0.219620 0.335610 -0.607864
O8    O     O_R   0.137440 0.780380 0.335610 -0.625891
O9    O     O_R   0.862520 0.719620 0.664390 -0.641924
O10   O     O_R   0.862520 0.280380 0.664390 -0.639639
O11   O     O_R   0.362520 0.219620 0.664390 -0.639767
O12   O     O_R   0.362520 0.780380 0.664390 -0.640197
O13   O     O_R   0.844240 0.780350 0.456900 -0.619254
O14   O     O_R   0.844240 0.219650 0.456900 -0.613641
O15   O     O_R   0.344240 0.280350 0.456900 -0.609423
O16   O     O_R   0.344240 0.719650 0.456900 -0.610760
O17   O     O_R   0.655730 0.780340 0.543100 -0.619104
O18   O     O_R   0.655730 0.219660 0.543100 -0.618102
O19   O     O_R   0.155730 0.280340 0.543100 -0.613358
O20   O     O_R   0.155730 0.719660 0.543100 -0.603516
O21   O     O_R   0.758800 0.865790 0.456890 -0.647000
O22   O     O_R   0.758800 0.134210 0.456890 -0.634194
O23   O     O_R   0.258800 0.365790 0.456890 -0.607802
O24   O     O_R   0.258800 0.634210 0.456890 -0.610074
O25   O     O_R   0.698070 0.634180 0.456910 -0.591001
O26   O     O_R   0.698070 0.365820 0.456910 -0.591238
O27   O     O_R   0.198070 0.134180 0.456910 -0.599973
O28   O     O_R   0.198070 0.865820 0.456910 -0.589137
O29   O     O_R   0.741170 0.865780 0.543090 -0.603361
O30   O     O_R   0.741170 0.134220 0.543090 -0.602466
O31   O     O_R   0.241170 0.365780 0.543090 -0.606234
O32   O     O_R   0.241170 0.634220 0.543090 -0.608378
O33   O     O_R   0.801880 0.634180 0.543110 -0.660771
O34   O     O_R   0.801880 0.365820 0.543110 -0.661806
O35   O     O_R   0.301880 0.134180 0.543110 -0.657769
O36   O     O_R   0.301880 0.865820 0.543110 -0.661964
O37   O     O_R   0.887330 0.719620 0.543100 -0.656211
O38   O     O_R   0.887330 0.280380 0.543100 -0.646919
O39   O     O_R   0.387330 0.219620 0.543100 -0.657245
O40   O     O_R   0.387330 0.780380 0.543100 -0.657455
O41   O     O_R   0.612630 0.719620 0.456900 -0.640736
O42   O     O_R   0.612630 0.280380 0.456900 -0.640308
O43   O     O_R   0.112630 0.219620 0.456900 -0.635876
O44   O     O_R   0.112630 0.780380 0.456900 -0.640991
O45   O     O_R   0.698160 0.780350 0.335610 -0.623135
O46   O     O_R   0.698160 0.219650 0.335610 -0.631062
O47   O     O_R   0.198160 0.280350 0.335610 -0.616388
O48   O     O_R   0.198160 0.719650 0.335610 -0.612657
O49   O     O_R   0.801810 0.780340 0.664390 -0.594405
O50   O     O_R   0.801810 0.219660 0.664390 -0.594955
O51   O     O_R   0.301810 0.280340 0.664390 -0.619221
O52   O     O_R   0.301810 0.719660 0.664390 -0.622478
C1    C     C_R   0.650335 0.750019 0.300612 0.829574
C2    C     C_R   0.650329 0.249976 0.300616 0.820225
C3    C     C_R   0.150356 0.249993 0.300610 0.830165
C4    C     C_R   0.150353 0.750004 0.300616 0.836696
C5    C     C_R   0.849642 0.750034 0.699393 0.839058
C6    C     C_R   0.849643 0.249965 0.699398 0.837896
C7    C     C_R   0.349624 0.250009 0.699394 0.815943
C8    C     C_R   0.349627 0.749988 0.699400 0.815198
C9    C     C_R   0.890181 0.750264 0.500305 0.878045
C10   C     C_R   0.889970 0.250088 0.499768 0.831113
C11   C     C_R   0.390195 0.250279 0.500332 0.868412
C12   C     C_R   0.390196 0.749727 0.500337 0.867735
C13   C     C_R   0.609549 0.750660 0.499561 0.833109
C14   C     C_R   0.609556 0.249342 0.499578 0.833491
C15   C     C_R   0.109168 0.251000 0.498716 0.795095
C16   C     C_R   0.109622 0.749414 0.499719 0.849826
C17   C     C_R   0.751312 0.890123 0.501152 0.920274
C18   C     C_R   0.751121 0.109864 0.501025 0.914918
C19   C     C_R   0.249015 0.390174 0.499300 0.861274
C20   C     C_R   0.248659 0.609889 0.498840 0.884381
C21   C     C_R   0.749995 0.610027 0.499923 0.865487
C22   C     C_R   0.750001 0.389972 0.499927 0.863083
C23   C     C_R   0.249998 0.110026 0.500164 0.838928
C24   C     C_R   0.250012 0.889965 0.499956 0.863041
C25   C     C_R   0.694870 0.526006 0.462777 -0.049966
C26   C     C_R   0.694874 0.473974 0.462777 -0.049554
C27   C     C_R   0.196539 0.026043 0.451353 -0.059714
C28   C     C_R   0.196565 0.973995 0.450384 -0.037452
C29   C     C_R   0.750537 0.554471 0.499025 -0.006515
C30   C     C_R   0.750545 0.445529 0.499031 -0.006070
C31   C     C_R   0.250418 0.054469 0.501463 -0.011109
C32   C     C_R   0.250414 0.945511 0.500822 -0.006809
C33   C     C_R   0.808105 0.527019 0.535500 -0.186412
C34   C     C_R   0.808109 0.473000 0.535503 -0.187476
C35   C     C_R   0.306092 0.026968 0.553785 -0.183077
C36   C     C_R   0.306056 0.972961 0.553567 -0.192145
H1    H     H_    0.853014 0.547040 0.564191 0.179552
H2    H     H_    0.853020 0.452993 0.564194 0.179425
H3    H     H_    0.349585 0.046915 0.594681 0.176371
H4    H     H_    0.349496 0.952966 0.594472 0.176778
C37   C     C_3   0.624243 0.469938 0.422089 0.333107
C38   C     C_3   0.624238 0.530011 0.422092 0.332713
C39   C     C_3   0.128453 0.970469 0.383821 0.327139
C40   C     C_3   0.128856 0.030535 0.385128 0.347838
C41   C     C_3   0.505938 0.203334 0.024308 0.491066
C42   C     C_3   0.502506 0.796032 0.024332 0.489823
C43   C     C_3   0.997477 0.705619 0.024368 0.490036
C44   C     C_3   0.997795 0.294451 0.024358 0.489889
C45   C     C_3   0.939886 0.740784 0.975478 -0.231064
C46   C     C_3   0.939981 0.259484 0.975481 -0.232116
C47   C     C_3   0.442357 0.231657 0.975447 -0.229497
C48   C     C_3   0.441160 0.764826 0.975470 -0.227863
H5    H     H_    0.890450 0.731920 0.955014 0.167203
H6    H     H_    0.890602 0.268581 0.955020 0.166520
H7    H     H_    0.395267 0.215589 0.954953 0.163532
H8    H     H_    0.392972 0.778056 0.954991 0.164264
H9    H     H_    0.452997 0.304879 0.046254 0.178458
H10   H     H_    0.457375 0.689928 0.046252 0.179493
H11   H     H_    0.964673 0.817380 0.046186 0.186171
H12   H     H_    0.964287 0.182953 0.046206 0.186203
C49   C     C_1   0.889335 0.750173 0.778827 -0.097710
C50   C     C_1   0.889341 0.249817 0.778830 -0.097379
C51   C     C_1   0.389260 0.250056 0.778831 -0.116815
C52   C     C_1   0.389271 0.749929 0.778836 -0.116349
C53   C     C_1   0.610752 0.250042 0.221193 -0.096918
C54   C     C_1   0.610789 0.749942 0.221191 -0.090444
C55   C     C_1   0.110864 0.750169 0.221191 -0.076730
C56   C     C_1   0.110882 0.249821 0.221186 -0.070931
C57   C     C_3   0.020207 0.713900 0.974862 -0.227682
C58   C     C_3   0.020465 0.285887 0.974848 -0.227105
C59   C     C_3   0.526292 0.220406 0.974828 -0.229431
C60   C     C_3   0.524001 0.782433 0.974834 -0.228384
C61   C     C_3   0.963428 0.750301 0.926770 0.104784
C62   C     C_3   0.963454 0.249682 0.926769 0.105199
C63   C     C_3   0.463288 0.250022 0.926775 0.114774
C64   C     C_3   0.463327 0.749950 0.926779 0.113764
C65   C     C_3   0.557343 0.268981 0.024238 -0.213015
C66   C     C_3   0.558683 0.734473 0.024223 -0.207260
C67   C     C_3   0.060235 0.760432 0.024200 -0.204837
C68   C     C_3   0.060200 0.239264 0.024194 -0.205778
C69   C     C_3   0.536797 0.250666 0.073244 0.144738
C70   C     C_3   0.536902 0.749315 0.073246 0.142907
C71   C     C_3   0.037080 0.750919 0.073240 0.134820
C72   C     C_3   0.037112 0.249062 0.073237 0.134574
C73   C     C_3   0.002923 0.796793 0.974639 -0.107983
C74   C     C_3   0.002656 0.203098 0.974644 -0.108263
C75   C     C_3   0.493814 0.298592 0.974720 -0.120201
C76   C     C_3   0.497483 0.702011 0.974702 -0.123315
C77   C     C_3   0.473819 0.280177 0.024855 -0.196267
C78   C     C_3   0.476247 0.716952 0.024855 -0.196692
C79   C     C_3   0.980305 0.787185 0.024815 -0.191122
C80   C     C_3   0.980106 0.212990 0.024824 -0.190148
C81   C     C_1   0.922774 0.750256 0.845641 -0.013615
C82   C     C_1   0.922789 0.249729 0.845643 -0.013589
C83   C     C_1   0.422662 0.250049 0.845646 -0.030092
C84   C     C_1   0.422686 0.749928 0.845651 -0.029589
C85   C     C_1   0.577385 0.250262 0.154385 0.011343
C86   C     C_1   0.577455 0.749718 0.154385 0.016081
C87   C     C_1   0.077578 0.750468 0.154383 0.029885
C88   C     C_1   0.077607 0.249517 0.154379 0.030783
H13   H     H_    0.004605 0.834695 0.952818 0.174546
H14   H     H_    0.004093 0.165121 0.952829 0.174531
H15   H     H_    0.488197 0.338192 0.952966 0.160610
H16   H     H_    0.494818 0.662925 0.952929 0.160287
H17   H     H_    0.604743 0.284533 0.045123 0.166945
H18   H     H_    0.607143 0.721767 0.045096 0.171593
H19   H     H_    0.109884 0.768768 0.045059 0.176695
H20   H     H_    0.109794 0.230695 0.045050 0.176397
H21   H     H_    0.035717 0.683293 0.953897 0.167423
H22   H     H_    0.036164 0.316339 0.953871 0.167353
H23   H     H_    0.547068 0.195236 0.953828 0.161915
H24   H     H_    0.542794 0.809905 0.953838 0.162868
C89   C     C_R   0.507208 0.713623 0.460873 0.038424
C90   C     C_R   0.507192 0.286339 0.460799 0.038754
C91   C     C_R   0.008369 0.213226 0.463679 -0.089009
C92   C     C_R   0.005825 0.784719 0.458118 0.034702
C93   C     C_R   0.555110 0.749974 0.502731 -0.234948
C94   C     C_R   0.555131 0.250045 0.502772 -0.235283
C95   C     C_R   0.050288 0.254801 0.492636 -0.141450
C96   C     C_R   0.055310 0.750275 0.503131 -0.233556
C97   C     C_R   0.551532 0.782348 0.551998 0.434481
C98   C     C_R   0.551590 0.217751 0.552147 0.433973
C99   C     C_R   0.032711 0.299617 0.513501 0.437540
C100  C     C_R   0.053127 0.720038 0.555176 0.438810
C101  C     C_R   0.499091 0.779354 0.554047 -0.212352
C102  C     C_R   0.499134 0.220742 0.554167 -0.212770
C103  C     C_R   0.980486 0.297494 0.516672 -0.170893
C104  C     C_R   0.000397 0.722889 0.556722 -0.207622
H25   H     H_    0.496682 0.805209 0.590652 0.204115
H26   H     H_    0.496753 0.194943 0.590857 0.204135
H27   H     H_    0.969202 0.330852 0.536162 0.195505
H28   H     H_    0.999067 0.698644 0.595550 0.204830
C105  C     C_R   0.447930 0.747248 0.504661 -0.160756
C106  C     C_R   0.447934 0.252772 0.504666 -0.161170
C107  C     C_R   0.943104 0.252914 0.494758 -0.159668
C108  C     C_R   0.947897 0.752880 0.504604 -0.160841
C109  C     C_R   0.454267 0.712800 0.461184 -0.052062
C110  C     C_R   0.454244 0.287164 0.461096 -0.050537
C111  C     C_R   0.954910 0.212839 0.462794 -0.038856
C112  C     C_R   0.952836 0.785534 0.458321 -0.039304
C113  C     C_3   0.410887 0.701134 0.379649 0.315526
C114  C     C_3   0.410862 0.298723 0.379527 0.315325
C115  C     C_3   0.960464 0.156289 0.478440 0.299910
C116  C     C_3   0.909070 0.793649 0.375878 0.302523
C117  C     C_3   0.469290 0.702044 0.379281 0.162761
C118  C     C_3   0.469272 0.297816 0.379175 0.162487
C119  C     C_3   0.019771 0.156792 0.479887 0.230584
C120  C     C_3   0.967547 0.792713 0.375672 0.164879
H29   H     H_    0.387668 0.662917 0.367818 0.204121
H30   H     H_    0.387606 0.336924 0.367583 0.204737
H31   H     H_    0.968742 0.146875 0.532446 0.169727
H32   H     H_    0.884163 0.831277 0.360561 0.192303
H33   H     H_    0.469995 0.733156 0.345150 0.103443
H34   H     H_    0.470012 0.266662 0.345134 0.103227
H35   H     H_    0.016244 0.134069 0.435063 0.197221
H36   H     H_    0.969707 0.760155 0.344485 0.106230
C121  C     C_R   0.749830 0.973596 0.447986 -0.007060
C122  C     C_R   0.749670 0.026403 0.447879 0.008683
C123  C     C_R   0.271093 0.473589 0.466837 0.106187
C124  C     C_R   0.270442 0.526510 0.465955 0.099373
C125  C     C_R   0.758802 0.945812 0.507212 -0.165300
C126  C     C_R   0.758214 0.054141 0.506881 -0.165590
C127  C     C_R   0.242840 0.446005 0.494105 -0.324919
C128  C     C_R   0.241115 0.554247 0.491782 -0.316496
C129  C     C_R   0.777754 0.972776 0.572855 0.183785
C130  C     C_R   0.777102 0.027184 0.572495 0.189421
C131  C     C_R   0.204447 0.472983 0.509681 0.208013
C132  C     C_R   0.202936 0.527360 0.507671 0.223974
C133  C     C_3   0.699643 0.029295 0.365898 0.222964
C134  C     C_3   0.699820 0.970464 0.366030 0.221673
C135  C     C_3   0.336319 0.529882 0.486950 0.204659
C136  C     C_3   0.337059 0.471109 0.487943 0.205780
H37   H     H_    0.716865 0.047199 0.335130 0.093608
H38   H     H_    0.717141 0.952634 0.335337 0.086182
H39   H     H_    0.370236 0.548412 0.541998 0.036245
H40   H     H_    0.371436 0.453525 0.543599 0.039792
O53   O     O_3   0.596244 0.819116 0.595845 -0.704011
H41   H     H_    0.599533 0.841492 0.562028 0.353898
O54   O     O_3   0.596362 0.181069 0.596147 -0.702843
H42   H     H_    0.599650 0.158607 0.562415 0.355027
O55   O     O_3   0.065259 0.345431 0.532295 -0.672274
H43   H     H_    0.082382 0.348744 0.502681 0.370152
O56   O     O_3   0.099785 0.685623 0.602670 -0.700397
H44   H     H_    0.103003 0.660903 0.570977 0.382656
O57   O     O_3   0.367500 0.740874 0.337292 -0.740367
H45   H     H_    0.390784 0.774056 0.351909 0.326196
O58   O     O_3   0.367515 0.258928 0.337281 -0.741558
H46   H     H_    0.390831 0.225766 0.351993 0.325755
O59   O     O_3   0.910244 0.127775 0.418921 -0.716948
H47   H     H_    0.902806 0.139855 0.371877 0.348203
O60   O     O_3   0.867488 0.752161 0.337188 -0.748598
H48   H     H_    0.892236 0.719675 0.354728 0.329925
O61   O     O_3   0.483022 0.653064 0.365914 -0.650298
H49   H     H_    0.518184 0.657731 0.360902 0.388064
O62   O     O_3   0.482964 0.346781 0.365678 -0.650172
H50   H     H_    0.518124 0.342108 0.360668 0.388086
O63   O     O_3   0.074262 0.146868 0.551517 -0.724005
H51   H     H_    0.110175 0.147033 0.547362 0.367889
O64   O     O_3   0.979239 0.841008 0.358031 -0.657597
H52   H     H_    0.013780 0.835848 0.352038 0.386998
N1    N     N_R   0.799727 0.945502 0.640185 0.242809
O65   O     O_R   0.771116 0.950766 0.672132 -0.287171
O66   O     O_R   0.847578 0.914214 0.668706 -0.381066
N2    N     N_R   0.797663 0.054528 0.639194 0.247818
O67   O     O_R   0.849000 0.082119 0.672409 -0.378186
O68   O     O_R   0.761353 0.056912 0.661585 -0.288154
N3    N     N_R   0.165252 0.445782 0.524729 0.244770
O69   O     O_R   0.104174 0.445710 0.475345 -0.346290
O70   O     O_R   0.188861 0.430374 0.592038 -0.293893
N4    N     N_R   0.162788 0.554642 0.521522 0.252901
O71   O     O_R   0.164027 0.544035 0.579720 -0.301048
O72   O     O_R   0.122553 0.588477 0.473896 -0.391994
O73   O     O_3   0.643347 0.050651 0.349594 -0.701020
H53   H     H_    0.613943 0.052152 0.294566 0.346108
O74   O     O_3   0.643661 0.948874 0.349851 -0.700002
H54   H     H_    0.614266 0.947219 0.294832 0.346110
O75   O     O_3   0.336595 0.551035 0.428973 -0.642207
H55   H     H_    0.381784 0.553241 0.448047 0.354822
O76   O     O_3   0.337902 0.449291 0.430708 -0.643170
H56   H     H_    0.383137 0.447773 0.449830 0.355199
N5    N     N_R   0.591951 0.446525 0.347997 0.221231
O77   O     O_R   0.530450 0.443843 0.304785 -0.265910
O78   O     O_R   0.623808 0.429288 0.323828 -0.367474
N6    N     N_R   0.591938 0.553437 0.348003 0.221075
O79   O     O_R   0.530438 0.556103 0.304802 -0.266043
O80   O     O_R   0.623789 0.570709 0.323830 -0.366022
N7    N     N_R   0.120009 0.947765 0.317912 0.229282
O81   O     O_R   0.065659 0.951667 0.253365 -0.287666
O82   O     O_R   0.165831 0.922975 0.322981 -0.370495
N8    N     N_R   0.123085 0.055809 0.321969 0.219784
O83   O     O_R   0.081376 0.091895 0.284754 -0.301986
O84   O     O_R   0.163201 0.045619 0.306515 -0.353619
N9    N     N_R   0.605384 0.446320 0.466689 0.219142
O85   O     O_R   0.647016 0.424926 0.530553 -0.391220
O86   O     O_R   0.546073 0.445701 0.441789 -0.253858
N10   N     N_R   0.605379 0.553591 0.466699 0.219056
O87   O     O_R   0.647002 0.575021 0.530537 -0.391533
O88   O     O_R   0.546075 0.554143 0.441828 -0.253969
N11   N     N_R   0.086623 0.946809 0.400246 0.224317
O89   O     O_R   0.109128 0.927936 0.465690 -0.352628
O90   O     O_R   0.025863 0.945214 0.349118 -0.254499
N12   N     N_R   0.087365 0.053126 0.402866 0.225741
O91   O     O_R   0.109909 0.067192 0.470429 -0.397265
O92   O     O_R   0.026583 0.055616 0.352020 -0.294775
O93   O     O_3   0.513286 0.153605 0.052216 -0.750331
H57   H     H_    0.488070 0.131206 0.007866 0.333379
O94   O     O_3   0.506149 0.845115 0.052263 -0.749988
H58   H     H_    0.479262 0.867226 0.007923 0.333485
O95   O     O_3   0.995643 0.658018 0.052337 -0.734834
H59   H     H_    0.966286 0.636583 0.008013 0.336691
O96   O     O_3   0.996267 0.342146 0.052318 -0.735608
H60   H     H_    0.967047 0.363625 0.007991 0.336646

loop_
_geom_bond_atom_site_label_1
_geom_bond_atom_site_label_2
_geom_bond_distance
_ccdc_geom_bond_type
C31   C35   1.411517 A    
Zn5   O21   1.942632 S    
C45   C79   1.553834 S    
C47   C63   1.541317 S    
C46   C80   1.553827 S    
C48   C64   1.541309 S    
O23   C19   1.277110 A    
N9    O85   1.301857 A    
C1    C54   1.428511 S    
O42   C14   1.281100 A    
C27   C31   1.387857 A    
C103  C107  1.405124 A    
C136  H40   1.114213 S    
C101  C105  1.401732 A    
C74   H14   1.110087 S    
C57   C61   1.541336 S    
C118  H34   1.115143 S    
C113  O57   1.409282 S    
C66   C70   1.540016 S    
C76   C78   1.552747 S    
O34   C22   1.274213 A    
C108  C112  1.394338 A    
Zn11  O51   1.911472 S    
N2    O67   1.300914 A    
Zn3   O3    1.944983 S    
C104  C108  1.401918 A    
Zn16  O28   1.942604 S    
C44   C58   1.536033 S    
O28   C24   1.274599 A    
C25   C38   1.505356 S    
O53   H41   0.991333 S    
C64   C84   1.459236 S    
C48   C78   1.553815 S    
O11   C7    1.282296 A    
C63   C83   1.459249 S    
C44   O96   1.397765 S    
C91   C119  1.499021 S    
N12   O92   1.301222 A    
C118  O62   1.400976 S    
O62   H50   0.991721 S    
C17   C125  1.457188 S    
H12   C80   1.110093 S    
C116  H32   1.111916 S    
C30   C34   1.411683 A    
C113  C117  1.525101 S    
C94   C98   1.424591 A    
C120  H36   1.115302 S    
O16   C12   1.274138 A    
C123  C124  1.376548 A    
Zn16  O4    1.944958 S    
Zn12  O4    1.940385 S    
Zn13  O5    1.909372 S    
Zn2   O10   1.909177 S    
C20   C128  1.456560 S    
O47   C3    1.282540 A    
C115  O59   1.408322 S    
Zn7   O3    1.940713 S    
N1    O66   1.301188 A    
N8    O83   1.301334 A    
C42   C70   1.522820 S    
C9    C108  1.450209 S    
C116  O60   1.409305 S    
C47   H7    1.110084 S    
C26   C37   1.505355 S    
C113  H29   1.112030 S    
O24   C20   1.273236 A    
Zn11  O19   1.944869 S    
C41   O93   1.397772 S    
Zn10  O2    1.940385 S    
C71   C87   1.459536 S    
C123  C136  1.494061 S    
C66   H18   1.110080 S    
N6    O80   1.302000 A    
C60   H24   1.110078 S    
C44   C46   1.536046 S    
C126  C130  1.418689 A    
H9    C77   1.110083 S    
C67   C73   1.552840 S    
Zn9   O49   1.911472 S    
C114  O58   1.409280 S    
C59   H23   1.110076 S    
Zn4   O4    1.944720 S    
C117  O61   1.400968 S    
Zn7   O23   1.942632 S    
C35   H3    1.082965 S    
Zn8   O24   1.942430 S    
C90   C110  1.382179 A    
C71   C79   1.540119 S    
O25   C21   1.274488 A    
C91   C111  1.380114 A    
O29   C17   1.273308 A    
C39   C40   1.562489 S    
C32   C36   1.412362 A    
N7    O82   1.301753 A    
C39   N11   1.469560 S    
Zn12  O52   1.911477 S    
O46   C2    1.282689 A    
O55   H43   0.989402 S    
C68   H20   1.110078 S    
O22   C18   1.275264 A    
C132  N4    1.437137 S    
O57   H45   0.993698 S    
N4    O72   1.301342 A    
Zn13  O41   1.942916 S    
O50   C6    1.282178 A    
C128  C132  1.417482 A    
O59   H47   0.993774 S    
Zn16  O44   1.942743 S    
Zn1   O37   1.942898 S    
Zn2   O34   1.942774 S    
Zn3   O39   1.942898 S    
C43   C57   1.536041 S    
C58   C68   1.553828 S    
C41   C59   1.536121 S    
C42   C60   1.536115 S    
C129  C130  1.415195 A    
C50   C82   1.201753 T    
N10   O88   1.300818 A    
C135  O75   1.401744 S    
C122  C133  1.495874 S    
C133  C134  1.530181 S    
C111  C115  1.498633 S    
C103  H27   1.083628 S    
Zn10  O50   1.911477 S    
C28   C39   1.506934 S    
C39   N7    1.468476 S    
Zn5   O45   1.911279 S    
C69   C85   1.459492 S    
C10   C107  1.452548 S    
C3    C56   1.428568 S    
C4    C55   1.428583 S    
C122  C126  1.393092 A    
C76   H16   1.110079 S    
C40   N8    1.472618 S    
O5    C1    1.282057 A    
O26   C22   1.274435 A    
O31   C19   1.271952 A    
C64   C76   1.539385 S    
C67   C71   1.540036 S    
C110  C114  1.499372 S    
C63   C75   1.539381 S    
C47   C77   1.553829 S    
C54   C86   1.201634 T    
N5    O77   1.300959 A    
C49   C81   1.201772 T    
C62   C74   1.539408 S    
Zn7   O47   1.911279 S    
Zn8   O48   1.911274 S    
O51   C7    1.282496 A    
C43   C71   1.522834 S    
C25   C29   1.389960 A    
O8    C4    1.282183 A    
C68   C72   1.540033 S    
C135  H39   1.114201 S    
O64   H52   0.991794 S    
C93   C97   1.424646 A    
O52   C8    1.282304 A    
C115  H31   1.112595 S    
Zn1   O1    1.944983 S    
O40   C12   1.273868 A    
C133  H37   1.113558 S    
C96   C100  1.424397 A    
Zn14  O6    1.909438 S    
Zn3   O11   1.909243 S    
Zn15  O27   1.942736 S    
C8    C52   1.428790 S    
C61   C73   1.539418 S    
C102  H26   1.083625 S    
C28   C32   1.389915 A    
C99   O55   1.377809 S    
O9    C5    1.282390 A    
C125  C129  1.419034 A    
C99   C103  1.402662 A    
C97   C101  1.394149 A    
O13   C9    1.274095 A    
N2    O68   1.300652 A    
O74   H54   0.991926 S    
C55   C87   1.201679 T    
N4    O71   1.300994 A    
C127  C131  1.419162 A    
O18   C14   1.271250 A    
C23   C31   1.445223 S    
O6    C2    1.282232 A    
Zn4   O40   1.943071 S    
O58   H46   0.993698 S    
Zn9   O29   1.942232 S    
C33   C34   1.405038 A    
C75   C77   1.552747 S    
C131  N3    1.431739 S    
Zn11  O31   1.942232 S    
C135  C136  1.528807 S    
Zn12  O32   1.942434 S    
Zn13  O25   1.942736 S    
O56   H44   0.991428 S    
C37   N5    1.470092 S    
Zn15  O3    1.944695 S    
Zn11  O3    1.940789 S    
C68   C74   1.552851 S    
C14   C94   1.459218 S    
C100  C104  1.394775 A    
O43   C15   1.277272 A    
C27   C40   1.499768 S    
C67   H19   1.110079 S    
C92   C120  1.499128 S    
Zn5   O1    1.940713 S    
C26   C30   1.389986 A    
C102  C106  1.401793 A    
C90   C94   1.398927 A    
C134  O74   1.402692 S    
O35   C23   1.273445 A    
C41   C47   1.536138 S    
C117  H33   1.115142 S    
C43   C45   1.536058 S    
O19   C15   1.274831 A    
C131  C132  1.414851 A    
O32   C20   1.274499 A    
O94   H58   0.991199 S    
N1    O65   1.300509 A    
Zn9   O17   1.944869 S    
C121  C134  1.495719 S    
N8    O84   1.302365 A    
C72   C88   1.459511 S    
C5    C49   1.428761 S    
N9    O86   1.300821 A    
Zn14  O42   1.942743 S    
C37   N9    1.470551 S    
N11   O89   1.301964 A    
C18   C126  1.457256 S    
O7    C3    1.281999 A    
Zn2   O38   1.943071 S    
C60   C66   1.553822 S    
N7    O81   1.301073 A    
Zn3   O35   1.942641 S    
C121  C125  1.393438 A    
C45   C61   1.541297 S    
C52   C84   1.201773 T    
O75   H55   0.992048 S    
C91   C95   1.397447 A    
O39   C11   1.273771 A    
O76   H56   0.992051 S    
C51   C83   1.201782 T    
C11   C106  1.450261 S    
C130  N2    1.433004 S    
C58   C62   1.541330 S    
C16   C96   1.459336 S    
O12   C8    1.282094 A    
C36   H4    1.082967 S    
C12   C105  1.450247 S    
C38   N6    1.470090 S    
N12   O91   1.301537 A    
C40   N12   1.470676 S    
C70   C78   1.540085 S    
Zn15  O43   1.942916 S    
C57   C67   1.553822 S    
C60   C64   1.541366 S    
C62   C82   1.459211 S    
Zn13  O1    1.944695 S    
C92   C112  1.382032 A    
Zn6   O46   1.911274 S    
C37   C38   1.562486 S    
C129  N1    1.435213 S    
O93   H57   0.991192 S    
O61   H49   0.991723 S    
O96   H60   0.991199 S    
C73   H13   1.110085 S    
C35   C36   1.404717 A    
C69   C77   1.540093 S    
C65   C69   1.540026 S    
C123  C127  1.392832 A    
O38   C10   1.274957 A    
C70   C86   1.459454 S    
C115  C119  1.525205 S    
C72   C80   1.540115 S    
C61   C81   1.459251 S    
C25   C26   1.353335 A    
C136  O76   1.401753 S    
C38   N10   1.470547 S    
Zn2   O2    1.944720 S    
Zn14  O2    1.944958 S    
O37   C9    1.273815 A    
C27   C28   1.353933 A    
C104  H28   1.083613 S    
C98   O54   1.375220 S    
Zn8   O4    1.941117 S    
Zn4   O36   1.942774 S    
O21   C17   1.274753 A    
N6    O79   1.300952 A    
N3    O70   1.300958 A    
C53   C85   1.201660 T    
C46   H6    1.110079 S    
C101  H25   1.083628 S    
O49   C5    1.282377 A    
C124  C128  1.393626 A    
C45   H5    1.110085 S    
O10   C6    1.282182 A    
C116  C120  1.524930 S    
Zn10  O30   1.942434 S    
C2    C53   1.428565 S    
Zn12  O20   1.945029 S    
C133  O73   1.402710 S    
O63   H51   0.991406 S    
C95   C99   1.424703 A    
C112  C116  1.499496 S    
Zn14  O26   1.942604 S    
Zn15  O7    1.909372 S    
Zn16  O8    1.909438 S    
Zn1   O9    1.909243 S    
C15   C95   1.461271 S    
C59   C63   1.541360 S    
C119  O63   1.402496 S    
C13   C93   1.459230 S    
Zn4   O12   1.909177 S    
C7    C51   1.428799 S    
Zn5   O13   1.944894 S    
H10   C78   1.110085 S    
C33   H1    1.083004 S    
Zn6   O2    1.941117 S    
Zn7   O15   1.944894 S    
C97   O53   1.375228 S    
Zn8   O16   1.944733 S    
C41   C69   1.522826 S    
C124  C135  1.493850 S    
C89   C93   1.398893 A    
C56   C88   1.201666 T    
O73   H53   0.991923 S    
C114  C118  1.525111 S    
C107  C111  1.392087 A    
O27   C23   1.275240 A    
C92   C96   1.398280 A    
C21   C29   1.445334 S    
N11   O90   1.300847 A    
O14   C10   1.274454 A    
C73   C79   1.552830 S    
C89   C109  1.382199 A    
C120  O64   1.400767 S    
C74   C80   1.552822 S    
C109  C113  1.499383 S    
Zn6   O22   1.942430 S    
C121  C122  1.373519 A    
C66   C76   1.552769 S    
Zn10  O18   1.945029 S    
C42   C48   1.536123 S    
Zn9   O1    1.940789 S    
N10   O87   1.301857 A    
N3    O69   1.300563 A    
C65   H17   1.110077 S    
C6    C50   1.428719 S    
O41   C13   1.281207 A    
O60   H48   0.993703 S    
C58   H22   1.110085 S    
H11   C79   1.110095 S    
C44   C72   1.522832 S    
C24   C32   1.444829 S    
O45   C1    1.282446 A    
C59   C65   1.553812 S    
C105  C109  1.394629 A    
Zn6   O14   1.944733 S    
C42   O94   1.397772 S    
O33   C21   1.274168 A    
C46   C62   1.541277 S    
C119  H35   1.112900 S    
C89   C117  1.499803 S    
O54   H42   0.991334 S    
O15   C11   1.274162 A    
C100  O56   1.374841 S    
C134  H38   1.113535 S    
C114  H30   1.112026 S    
O44   C16   1.281510 A    
Zn1   O33   1.942641 S    
O20   C16   1.270866 A    
C19   C127  1.458185 S    
N5    O78   1.301999 A    
C34   H2    1.083004 S    
O48   C4    1.282744 A    
O95   H59   0.991198 S    
O36   C24   1.273858 A    
C98   C102  1.394171 A    
C65   C75   1.552751 S    
C75   H15   1.110080 S    
C57   H21   1.110084 S    
C106  C110  1.394586 A    
C90   C118  1.499809 S    
O17   C13   1.271232 A    
C22   C30   1.445319 S    
C29   C33   1.411732 A    
C48   H8    1.110088 S    
O30   C18   1.272965 A    
C43   O95   1.397759 S    
