data_mof_unit_24098.cif
_audit_creation_date              2012-12-10T17:03:01-0500
_audit_creation_method            fapswitch 2.2
_symmetry_space_group_name_H-M    P1
_symmetry_Int_Tables_number       1
_space_group_crystal_system       triclinic
_cell_length_a                    9.836324
_cell_length_b                    11.044843
_cell_length_c                    13.374778
_cell_angle_alpha                 94.355125
_cell_angle_beta                  81.465594
_cell_angle_gamma                 111.477956
_cell_volume                      1336.80223097

loop_
_atom_site_label
_atom_site_type_symbol
_atom_type_description
_atom_site_fract_x
_atom_site_fract_y
_atom_site_fract_z
_atom_type_partial_charge
C1    C     C_R   0.557229 0.745570 0.506014 0.885584
C2    C     C_R   0.438553 0.494297 0.971202 0.030552
C3    C     C_R   0.472820 0.544089 0.872082 0.040151
C4    C     C_R   0.549397 0.534180 0.036894 0.038581
C5    C     C_R   0.681112 0.641305 0.009685 0.076790
C6    C     C_R   0.704913 0.701112 0.917340 -0.291911
C7    C     C_R   0.601414 0.656036 0.849315 0.260957
C8    C     C_R   0.534146 0.471877 0.129196 0.212575
C9    C     C_R   0.755896 0.643912 0.174246 -0.233683
C10   C     C_R   0.373868 0.482882 0.800419 -0.103476
C11   C     C_2   0.590222 0.885080 0.507426 -0.377358
C12   C     C_R   0.422848 0.491943 0.690833 0.838531
C13   C     C_2   0.485767 0.930565 0.494911 -0.157860
C14   C     C_2   0.411813 0.115074 0.487711 -0.357221
C15   C     C_2   0.517039 0.069659 0.498370 -0.153416
C16   C     C_2   0.925691 0.490791 0.493441 -0.012077
C17   C     C_2   0.079738 0.509823 0.510590 -0.094989
C18   C     C_R   0.443435 0.254477 0.492440 0.853274
C19   C     C_R   0.577793 0.511526 0.309460 0.774551
C20   C     C_R   0.785341 0.692226 0.077343 -0.182838
C21   C     C_R   0.627615 0.537301 0.201937 -0.100658
C22   C     C_R   0.231033 0.397690 0.833575 -0.208154
C23   C     C_R   0.188750 0.367519 0.935050 -0.166361
C24   C     C_R   0.291434 0.413421 0.003133 -0.120813
Cu1   Cu    Cu3+1 0.362000 0.479240 0.482530 0.931726
Cu2   Cu    Cu3+1 0.638000 0.520760 0.517470 0.975117
H1    H     H_    0.830086 0.693593 0.228985 0.161700
H2    H     H_    0.375628 0.864913 0.482930 0.181280
H3    H     H_    0.301939 0.049155 0.475552 0.147763
H4    H     H_    0.699979 0.950965 0.519877 0.150357
H5    H     H_    0.131255 0.576348 0.569432 0.164339
H6    H     H_    0.877895 0.421057 0.434995 0.125036
H7    H     H_    0.105567 0.385719 0.399819 0.189368
H8    H     H_    0.802164 0.787183 0.899480 0.141918
H9    H     H_    0.885124 0.775295 0.057656 0.140965
H10   H     H_    0.152665 0.352159 0.780581 0.155974
H11   H     H_    0.251861 0.388817 0.081336 0.168096
H12   H     H_    0.077076 0.304548 0.960565 0.139922
H13   H     H_    0.627182 0.135311 0.510337 0.179571
N1    N     N_2   0.845330 0.551960 0.543750 -0.093407
N2    N     N_2   0.154690 0.448120 0.456210 -0.289726
O1    O     O_R   0.426290 0.668220 0.490680 -0.579450
O2    O     O_R   0.659360 0.703290 0.520190 -0.549411
O3    O     O_R   0.326580 0.473880 0.629020 -0.590959
O4    O     O_R   0.559660 0.508940 0.658530 -0.531320
O5    O     O_R   0.340640 0.296710 0.479810 -0.578328
O6    O     O_R   0.573710 0.331780 0.509320 -0.585362
O7    O     O_R   0.440340 0.491060 0.341470 -0.575920
O8    O     O_R   0.673420 0.526120 0.370980 -0.583829
N3    N     N_3   0.902934 0.643067 0.619044 -0.468041
H14   H     H_    0.997888 0.716715 0.587036 0.193616
H15   H     H_    0.927971 0.596514 0.675180 0.202400
N4    N     N_2   0.438119 0.339492 0.144338 -0.454548
H16   H     H_    0.407047 0.310204 0.218167 0.259492
C25   C     C_3   0.483687 0.245556 0.080647 -0.704967
H17   H     H_    0.399639 0.146625 0.093878 0.226861
H18   H     H_    0.590728 0.246622 0.098933 0.224285
H19   H     H_    0.494657 0.266926 0.999426 0.245529
N5    N     N_2   0.617529 0.735275 0.765901 -0.403134
H20   H     H_    0.725503 0.788478 0.738932 0.266893
C26   C     C_3   0.526992 0.814700 0.782387 -0.725507
H21   H     H_    0.545820 0.874328 0.715187 0.231567
H22   H     H_    0.555924 0.881392 0.848853 0.227439
H23   H     H_    0.408362 0.752575 0.794883 0.231966

loop_
_geom_bond_atom_site_label_1
_geom_bond_atom_site_label_2
_ccdc_geom_bond_type
C8    N4    S    
Cu1   O1    S    
C26   H23   S    
C2    C4    A    
C23   C24   A    
C13   H2    S    
C6    C7    A    
C12   O4    A    
C16   H6    S    
C23   H12   S    
C22   H10   S    
C14   C18   S    
C9    C20   A    
N3    H15   S    
C1    C11   S    
C13   C15   S    
C4    C8    A    
H7    N2    S    
C18   O6    A    
C25   H17   S    
N4    C25   S    
C24   H11   S    
N5    H20   S    
C12   O3    A    
C3    C10   A    
N4    H16   S    
C10   C22   A    
C11   C13   D    
Cu1   O7    S    
Cu2   N1    S    
C5    C6    A    
C10   C12   S    
Cu2   O6    S    
C16   N1    D    
N1    N3    S    
C18   O5    A    
Cu1   O3    S    
C7    N5    S    
C19   C21   S    
Cu2   O2    S    
N3    H14   S    
C3    C7    A    
C25   H18   S    
C2    C24   A    
C26   H21   S    
C17   H5    S    
C5    C20   A    
C17   N2    D    
N5    C26   S    
C14   H3    S    
C9    C21   A    
C6    H8    S    
C1    O1    A    
C9    H1    S    
C25   H19   S    
Cu2   O8    S    
Cu1   N2    S    
C26   H22   S    
C19   O8    A    
C14   C15   D    
C16   C17   S    
C2    C3    A    
Cu2   O4    S    
Cu1   Cu2   S    
C19   O7    A    
C20   H9    S    
Cu1   O5    S    
C1    O2    A    
C22   C23   A    
C15   H13   S    
C11   H4    S    
C4    C5    A    
C8    C21   A    
