data_mof_unit_44965.cif
_audit_creation_date              2012-12-10T18:21:16-0500
_audit_creation_method            fapswitch 2.2
_symmetry_space_group_name_H-M    P1
_symmetry_Int_Tables_number       1
_space_group_crystal_system       triclinic
_cell_length_a                    15.003425
_cell_length_b                    13.992224
_cell_length_c                    10.693144
_cell_angle_alpha                 89.865819
_cell_angle_beta                  89.823959
_cell_angle_gamma                 89.881243
_cell_volume                      2244.8039029

loop_
_atom_site_label
_atom_site_type_symbol
_atom_type_description
_atom_site_fract_x
_atom_site_fract_y
_atom_site_fract_z
_atom_type_partial_charge
C1    C     C_R   0.326477 0.500027 0.498518 0.936900
C2    C     C_3   0.573693 0.575635 0.925589 -0.359470
C3    C     C_R   0.814942 0.586317 0.482047 -0.205451
C4    C     C_R   0.769372 0.499800 0.495540 -0.048798
C5    C     C_R   0.815288 0.413154 0.506753 -0.185922
C6    C     C_R   0.907444 0.412485 0.506104 0.104302
C7    C     C_R   0.953636 0.499730 0.493573 0.064829
C8    C     C_R   0.907119 0.586944 0.481120 0.115749
C9    C     C_R   0.954001 0.326213 0.518496 -0.190125
C10   C     C_R   0.046587 0.326278 0.518985 -0.202788
C11   C     C_R   0.092837 0.412618 0.507069 0.121189
C12   C     C_R   0.504472 0.500286 0.257831 0.942180
C13   C     C_R   0.046351 0.499799 0.494087 0.068510
C14   C     C_R   0.092568 0.587081 0.482149 0.107612
C15   C     C_R   0.045992 0.673308 0.469218 -0.185796
C16   C     C_R   0.953383 0.673236 0.468654 -0.182321
C17   C     C_R   0.184980 0.413379 0.508299 -0.256053
C18   C     C_R   0.230618 0.500021 0.496836 -0.052672
C19   C     C_R   0.184753 0.586545 0.483638 -0.186855
C20   C     C_R   0.563170 0.798034 0.432543 0.002738
C21   C     C_R   0.562658 0.201944 0.431594 -0.029007
C22   C     C_R   0.436906 0.798143 0.567276 -0.027172
C23   C     C_R   0.437635 0.201952 0.568727 -0.034390
C24   C     C_R   0.435670 0.898805 0.569475 0.006384
C25   C     C_R   0.436016 0.101257 0.570172 0.019241
C26   C     C_R   0.673541 0.499949 0.498108 0.970961
C27   C     C_R   0.500184 0.949382 0.500156 0.087714
C28   C     C_R   0.500208 0.050643 0.500217 0.093784
C29   C     C_R   0.564576 0.898739 0.430614 0.008654
C30   C     C_R   0.564367 0.101236 0.430235 0.011488
C31   C     C_R   0.371742 0.949831 0.638855 -0.181404
C32   C     C_R   0.372013 0.050226 0.639379 -0.189532
C33   C     C_R   0.628292 0.050168 0.360869 -0.188130
C34   C     C_R   0.628458 0.949752 0.361171 -0.159502
C35   C     C_R   0.502348 0.499845 0.742578 0.985726
C36   C     C_3   0.411675 0.521481 0.075853 -0.481702
C37   C     C_3   0.534763 0.400616 0.073138 -0.481099
C38   C     C_3   0.409351 0.518913 0.932349 0.289362
C39   C     C_3   0.538355 0.399568 0.929728 0.274155
C40   C     C_3   0.572621 0.580280 0.069742 0.681854
C41   C     C_3   0.506967 0.501359 0.121704 -0.122975
C42   C     C_3   0.506184 0.499695 0.879011 -0.253876
H1    H     H_    0.388414 0.591318 0.113238 0.268966
H2    H     H_    0.598728 0.378628 0.116331 0.270286
H3    H     H_    0.081973 0.259092 0.528939 0.148714
H4    H     H_    0.220973 0.346532 0.518777 0.158204
H5    H     H_    0.220621 0.653442 0.474425 0.165352
H6    H     H_    0.081136 0.740559 0.459893 0.153200
H7    H     H_    0.917989 0.740438 0.458944 0.152164
H8    H     H_    0.612211 0.757668 0.380093 0.171124
H9    H     H_    0.611156 0.242305 0.378162 0.135294
H10   H     H_    0.387481 0.757925 0.618881 0.184449
H11   H     H_    0.389114 0.242312 0.622140 0.124686
H12   H     H_    0.321606 0.912128 0.692737 0.149383
H13   H     H_    0.322089 0.087931 0.693677 0.143930
H14   H     H_    0.678161 0.087857 0.306482 0.156518
H15   H     H_    0.678447 0.912017 0.307018 0.165425
H16   H     H_    0.364766 0.466859 0.113728 0.155104
H17   H     H_    0.485212 0.346156 0.104108 0.172006
H18   H     H_    0.367358 0.456805 0.905182 0.074075
H19   H     H_    0.489818 0.344676 0.897803 0.101622
H20   H     H_    0.559247 0.646574 0.884062 0.252777
H21   H     H_    0.641647 0.558421 0.890869 0.230579
H22   H     H_    0.778861 0.653189 0.472463 0.162734
H23   H     H_    0.779495 0.346299 0.517071 0.176703
H24   H     H_    0.918853 0.258987 0.528132 0.155687
N1    N     N_R   0.500070 0.750030 0.500050 -0.114820
N2    N     N_R   0.500070 0.249970 0.500050 -0.102701
O1    O     O_R   0.367860 0.580280 0.500020 -0.604207
O2    O     O_R   0.367860 0.419720 0.500020 -0.652873
O3    O     O_R   0.500000 0.580270 0.314790 -0.577300
O4    O     O_R   0.500000 0.419730 0.314790 -0.644925
O5    O     O_R   0.632160 0.580270 0.499960 -0.643588
O6    O     O_R   0.632160 0.419730 0.499960 -0.604598
O7    O     O_R   0.500030 0.580270 0.685200 -0.571634
O8    O     O_R   0.500030 0.419730 0.685200 -0.606828
Zn1   Zn    Zn3+2 0.500020 0.607200 0.499990 1.025077
Zn2   Zn    Zn3+2 0.500020 0.392800 0.499990 0.988969
S1    S     S_3+6 0.349580 0.622618 0.874444 0.016504
O9    O     O_2   0.317273 0.603949 0.744349 -0.331594
O10   O     O_2   0.269483 0.639767 0.956357 -0.288745
O11   O     O_3   0.413301 0.721233 0.874868 -0.527327
H25   H     H_    0.371418 0.774914 0.860489 0.373470
S2    S     S_3+6 0.647234 0.358337 0.875472 0.021658
O12   O     O_2   0.641697 0.252519 0.853030 -0.289064
O13   O     O_2   0.674501 0.406616 0.756011 -0.326114
O14   O     O_3   0.727193 0.378786 0.981980 -0.516135
H26   H     H_    0.781994 0.350318 0.945910 0.389147
Cl1   Cl    Cl    0.541277 0.700333 0.113240 -0.555371
Cl2   Cl    Cl    0.683150 0.562954 0.130034 -0.574280

loop_
_geom_bond_atom_site_label_1
_geom_bond_atom_site_label_2
_ccdc_geom_bond_type
O14   H26   S    
O2    Zn2   S    
C20   N1    A    
O1    Zn1   S    
N1    Zn1   S    
S2    O14   S    
C21   H9    S    
C6    C9    A    
C7    C8    A    
C3    H22   S    
C25   C28   A    
C35   O7    A    
C1    C18   S    
S2    O13   D    
C39   S2    S    
C38   C42   S    
C36   H16   S    
C5    C6    A    
C19   H5    S    
C27   C29   A    
C38   S1    S    
C15   C16   A    
C26   O5    A    
C18   C19   A    
C35   C42   S    
C9    H24   S    
C20   H8    S    
S2    O12   D    
C34   H15   S    
O4    Zn2   S    
C24   C27   A    
C40   Cl1   S    
C9    C10   A    
C32   H13   S    
C25   C32   A    
C12   O4    A    
C8    C16   A    
C13   C14   A    
C36   C41   S    
C15   H6    S    
C23   H11   S    
C39   C42   S    
C20   C29   A    
N2    Zn2   S    
C39   H19   S    
C35   O8    A    
C16   H7    S    
C5    H23   S    
C3    C8    A    
S1    O10   D    
C29   C34   A    
C1    O1    A    
C23   N2    A    
C12   C41   S    
C31   C32   A    
C10   H3    S    
C17   C18   A    
C17   H4    S    
O7    Zn1   S    
C37   H17   S    
C38   H18   S    
C40   C41   S    
C12   O3    A    
C21   N2    A    
C22   C24   A    
C3    C4    A    
O3    Zn1   S    
C2    H21   S    
C22   H10   S    
C11   C17   A    
C30   C33   A    
C14   C19   A    
O8    Zn2   S    
C4    C5    A    
S1    O11   S    
C4    C26   S    
C6    C7    A    
C21   C30   A    
C1    O2    A    
C37   H2    S    
C36   C38   S    
C24   C31   A    
C37   C39   S    
C11   C13   A    
C33   H14   S    
C2    C42   S    
C28   C30   A    
C26   O6    A    
C33   C34   A    
C23   C25   A    
C31   H12   S    
C37   C41   S    
C22   N1    A    
C10   C11   A    
S1    O9    D    
C2    C40   S    
C7    C13   A    
O11   H25   S    
O6    Zn2   S    
C27   C28   A    
O5    Zn1   S    
C14   C15   A    
C36   H1    S    
C40   Cl2   S    
C2    H20   S    
