data_mof_unit_22613.cif
_audit_creation_date              2013-03-05T16:01:05-0500
_audit_creation_method            fapswitch 2.2
_symmetry_space_group_name_H-M    P1
_symmetry_Int_Tables_number       1
_space_group_crystal_system       triclinic
_cell_length_a                    14.698779
_cell_length_b                    14.525545
_cell_length_c                    15.848459
_cell_angle_alpha                 76.500762
_cell_angle_beta                  102.848551
_cell_angle_gamma                 114.910497
_cell_volume                      2954.50999126

loop_
_atom_site_label
_atom_site_type_symbol
_atom_site_description
_atom_site_fract_x
_atom_site_fract_y
_atom_site_fract_z
_atom_type_partial_charge
O1    O     O_R   0.977900 0.338120 0.529810 -0.600762
O2    O     O_R   0.022100 0.661880 0.470190 -0.591120
O3    O     O_R   0.839850 0.379180 0.491620 -0.522540
O4    O     O_R   0.160150 0.620820 0.508380 -0.534556
C1    C     C_R   0.880020 0.310394 0.512674 0.827300
C2    C     C_R   0.119800 0.688992 0.484357 0.851829
O5    O     O_R   0.069010 0.479460 0.640020 -0.558292
O6    O     O_R   0.930990 0.520540 0.359980 -0.562588
O7    O     O_R   0.930960 0.520530 0.601820 -0.588104
O8    O     O_R   0.069040 0.479470 0.398180 -0.594197
C3    C     C_R   0.000222 0.500868 0.659971 0.841999
C4    C     C_R   0.999875 0.499278 0.339980 0.812837
Cu1   Cu    Cu3+1 0.081740 0.475690 0.522610 0.963023
Cu2   Cu    Cu3+1 0.918260 0.524310 0.477390 0.978222
C5    C     C_3   0.991770 0.411672 0.044671 -0.237746
C6    C     C_3   0.016126 0.601383 0.953831 -0.236475
C7    C     C_3   0.915481 0.437074 0.968143 0.114853
C8    C     C_3   0.092327 0.576051 0.030562 0.113910
H1    H     H_    0.982123 0.334625 0.083315 0.142017
H2    H     H_    0.026187 0.678497 0.915146 0.145610
C9    C     C_1   0.001370 0.503887 0.749151 -0.154048
C10   C     C_1   0.001545 0.500961 0.250306 -0.157915
C11   C     C_3   0.080020 0.482527 0.991872 0.105433
C12   C     C_3   0.927795 0.530636 0.006673 0.105538
C13   C     C_3   0.003598 0.507016 0.916153 0.066450
C14   C     C_3   0.004052 0.505957 0.082514 0.065514
C15   C     C_1   0.002551 0.506214 0.824388 -0.066748
C16   C     C_1   0.002976 0.503140 0.174614 -0.073738
C17   C     C_R   0.811753 0.198633 0.524605 -0.186428
C18   C     C_R   0.187823 0.799622 0.474045 -0.180702
C19   C     C_R   0.776977 0.020331 0.597268 0.102091
C20   C     C_R   0.228300 0.982463 0.411710 0.098815
C21   C     C_R   0.847568 0.119117 0.566087 0.014436
C22   C     C_R   0.164514 0.875931 0.408705 0.012463
C23   C     C_R   0.706678 0.172271 0.499904 0.289533
C24   C     C_R   0.282684 0.827873 0.526641 0.287317
C25   C     C_R   0.636903 0.074202 0.530751 -0.044015
C26   C     C_R   0.356350 0.926557 0.507952 -0.035763
C27   C     C_R   0.672329 0.994575 0.566900 -0.032384
C28   C     C_R   0.323401 0.006950 0.467879 -0.020893
C29   C     C_R   0.531403 0.051181 0.520823 0.022234
C30   C     C_R   0.461672 0.948024 0.527558 0.023182
C31   C     C_R   0.498980 0.870130 0.542820 -0.143111
C32   C     C_R   0.493489 0.127829 0.510739 -0.131854
C33   C     C_R   0.602232 0.891729 0.564118 0.346134
C34   C     C_R   0.390712 0.107180 0.484055 0.368980
H3    H     H_    0.448572 0.792123 0.534382 0.207301
H4    H     H_    0.543556 0.203951 0.525091 0.197496
N1    N     N_R   0.795440 0.560790 0.443380 -0.200131
N2    N     N_R   0.204560 0.439210 0.556620 -0.201835
C35   C     C_R   0.706869 0.654537 0.341370 0.270960
C36   C     C_R   0.294802 0.348846 0.660899 0.279398
C37   C     C_R   0.790735 0.628379 0.369225 0.035233
C38   C     C_R   0.209469 0.372390 0.631378 0.015281
C39   C     C_R   0.718313 0.515359 0.492626 0.051705
C40   C     C_R   0.282506 0.486040 0.508363 0.024520
C41   C     C_R   0.629672 0.537543 0.468200 -0.051361
C42   C     C_R   0.372792 0.467000 0.534829 -0.051041
C43   C     C_R   0.625305 0.608991 0.390632 0.088076
C44   C     C_R   0.377630 0.396589 0.613036 0.103401
C45   C     C_R   0.545632 0.490931 0.517197 0.141195
C46   C     C_R   0.457746 0.515305 0.486914 0.139242
C47   C     C_R   0.457877 0.587439 0.409908 -0.212463
C48   C     C_R   0.546660 0.421012 0.595555 -0.205227
C49   C     C_R   0.539615 0.633110 0.363299 -0.098451
C50   C     C_R   0.464931 0.375451 0.642225 -0.071505
H5    H     H_    0.534351 0.687639 0.304748 0.191419
H6    H     H_    0.471029 0.322542 0.701763 0.190610
H7    H     H_    0.272237 0.538590 0.450521 0.131141
H8    H     H_    0.727717 0.461254 0.549518 0.130806
H9    H     H_    0.146595 0.337717 0.668688 0.149891
H10   H     H_    0.852363 0.661245 0.330952 0.145915
H11   H     H_    0.395655 0.611099 0.383369 0.122037
H12   H     H_    0.610098 0.399622 0.623426 0.119171
C51   C     C_3   0.819198 0.355787 0.928034 -0.419921
C52   C     C_3   0.745058 0.293652 0.994368 -0.345991
C53   C     C_3   0.652404 0.209544 0.954216 -0.787182
H13   H     H_    0.612002 0.243887 0.896428 0.258191
H14   H     H_    0.675451 0.155320 0.933700 0.251126
H15   H     H_    0.599759 0.165994 0.003432 0.252969
H16   H     H_    0.783108 0.257530 0.052789 0.227865
H17   H     H_    0.719156 0.344870 0.015854 0.228585
H18   H     H_    0.782201 0.393848 0.870410 0.192894
H19   H     H_    0.841611 0.303009 0.904528 0.199905
C54   C     C_3   0.188406 0.657674 0.070594 -0.427433
C55   C     C_3   0.263397 0.718753 0.004779 -0.336932
C56   C     C_3   0.355013 0.804192 0.044417 -0.787366
H20   H     H_    0.330857 0.858834 0.062915 0.250256
H21   H     H_    0.395074 0.771200 0.103429 0.257391
H22   H     H_    0.408332 0.846944 0.995630 0.255541
H23   H     H_    0.290443 0.667167 0.985274 0.231008
H24   H     H_    0.225665 0.753535 0.945170 0.232736
H25   H     H_    0.165963 0.711262 0.092688 0.200616
H26   H     H_    0.224762 0.620254 0.129192 0.192575
Cl1   Cl    Cl    0.707542 0.743277 0.243952 -0.662711
Cl2   Cl    Cl    0.294120 0.260084 0.758274 -0.650184
C57   C     C_3   0.846760 0.563941 0.020111 -0.400064
C58   C     C_3   0.785579 0.590286 0.933132 -0.364604
C59   C     C_3   0.710188 0.630045 0.947587 -0.778273
H27   H     H_    0.655848 0.570590 0.990579 0.263946
H28   H     H_    0.750668 0.700751 0.978234 0.259541
H29   H     H_    0.667144 0.648777 0.883611 0.251135
H30   H     H_    0.837443 0.650317 0.888412 0.224515
H31   H     H_    0.743015 0.520926 0.901153 0.227920
H32   H     H_    0.795673 0.502104 0.064210 0.204725
H33   H     H_    0.885346 0.632917 0.053119 0.208016
C60   C     C_3   0.161462 0.451367 0.976082 -0.388517
C61   C     C_3   0.227069 0.428605 0.061271 -0.376757
C62   C     C_3   0.309543 0.401343 0.042792 -0.783372
H34   H     H_    0.275146 0.332063 0.010166 0.265562
H35   H     H_    0.359728 0.466441 0.999970 0.264175
H36   H     H_    0.356275 0.385313 0.105330 0.247717
H37   H     H_    0.264094 0.496745 0.095109 0.228530
H38   H     H_    0.178902 0.363477 0.105523 0.221965
H39   H     H_    0.123203 0.381456 0.944162 0.205689
H40   H     H_    0.209454 0.513662 0.930019 0.209519
Cl3   Cl    Cl    0.639167 0.790280 0.564788 -0.661706
Cl4   Cl    Cl    0.350359 0.200618 0.497439 -0.689955
Cl5   Cl    Cl    0.302861 0.748869 0.627161 -0.606775
Cl6   Cl    Cl    0.664855 0.248017 0.406660 -0.617799
C63   C     C_3   0.076976 0.842866 0.334217 -0.370760
C64   C     C_3   0.098624 0.786276 0.275037 -0.369427
C65   C     C_3   0.020198 0.768165 0.192846 -0.823509
H41   H     H_    0.943277 0.720061 0.210575 0.268564
H42   H     H_    0.020894 0.842533 0.153600 0.258128
H43   H     H_    0.038413 0.727628 0.151889 0.229291
H44   H     H_    0.174847 0.831992 0.254706 0.211737
H45   H     H_    0.098558 0.711166 0.310934 0.205236
H46   H     H_    0.005116 0.795334 0.360791 0.217178
H47   H     H_    0.061177 0.907447 0.291335 0.210987
C66   C     C_3   0.957082 0.133642 0.567467 -0.356789
C67   C     C_3   0.981069 0.151191 0.473916 -0.347256
C68   C     C_3   0.091078 0.169058 0.474175 -0.738104
H48   H     H_    0.143141 0.237072 0.505423 0.276105
H49   H     H_    0.106487 0.100469 0.509980 0.272312
H50   H     H_    0.105894 0.183517 0.405632 0.231194
H51   H     H_    0.930911 0.082435 0.442541 0.228687
H52   H     H_    0.966722 0.218244 0.432994 0.234735
H53   H     H_    0.010663 0.195691 0.604593 0.208272
H54   H     H_    0.972210 0.065062 0.602370 0.201239
C69   C     C_3   0.810911 0.949274 0.673000 -0.352338
C70   C     C_3   0.866436 0.002332 0.753894 -0.400062
C71   C     C_3   0.894643 0.928222 0.830020 -0.803796
H55   H     H_    0.825530 0.861556 0.849280 0.256506
H56   H     H_    0.945717 0.900086 0.811186 0.257666
H57   H     H_    0.934443 0.968443 0.887376 0.248514
H58   H     H_    0.936823 0.069515 0.739018 0.229025
H59   H     H_    0.816422 0.030256 0.774817 0.226213
H60   H     H_    0.744594 0.882383 0.696437 0.247233
H61   H     H_    0.857867 0.918323 0.651462 0.219001
C72   C     C_3   0.204827 0.066116 0.343565 -0.388256
C73   C     C_3   0.244894 0.081115 0.257708 -0.348530
C74   C     C_3   0.217282 0.161395 0.188764 -0.838555
H62   H     H_    0.133667 0.136599 0.173630 0.251952
H63   H     H_    0.250435 0.236481 0.212662 0.263990
H64   H     H_    0.247674 0.170920 0.127724 0.255207
H65   H     H_    0.328761 0.106798 0.270454 0.242950
H66   H     H_    0.213338 0.008210 0.230921 0.226726
H67   H     H_    0.122810 0.050218 0.332869 0.183094
H68   H     H_    0.237900 0.141107 0.364998 0.258044

loop_
_geom_bond_atom_site_label_1
_geom_bond_atom_site_label_2
_geom_bond_distance
_ccdc_geom_bond_type
C42   C46   1.436379 A    
C71   H57   1.110573 S    
C50   H6    1.082080 S    
C56   H20   1.110988 S    
C47   C49   1.386976 A    
C17   C21   1.430787 A    
C29   C30   1.409743 A    
C8    C14   1.539160 S    
C63   H47   1.100659 S    
C51   C52   1.531467 S    
C57   C58   1.532222 S    
C69   H60   1.107653 S    
C65   H41   1.108901 S    
C53   H13   1.111165 S    
O5    C3    1.293036 A    
N2    C38   1.354669 A    
O1    C1    1.301935 A    
C23   C25   1.409686 A    
C12   C14   1.538745 S    
C26   C30   1.419527 A    
C55   H23   1.108515 S    
C62   H35   1.110997 S    
N1    C37   1.353592 A    
C51   H19   1.111620 S    
C65   H42   1.110738 S    
Cu2   N1    2.017468 S    
C42   C44   1.420425 A    
C71   H55   1.110907 S    
C4    C10   1.421185 S    
O4    Cu1   1.915763 S    
C61   C62   1.525979 S    
C34   Cl4   1.762789 S    
C5    C7    1.548968 S    
C61   H38   1.111272 S    
C64   H44   1.110835 S    
C24   Cl5   1.779286 S    
C66   H54   1.105625 S    
C36   C44   1.411551 A    
C54   H25   1.110062 S    
C38   H9    1.081340 S    
C40   C42   1.421639 A    
C67   C68   1.525144 S    
C49   H5    1.082119 S    
C58   H30   1.111586 S    
C68   H50   1.109848 S    
C72   C73   1.534834 S    
C19   C21   1.422176 A    
C74   H63   1.110639 S    
C6    H2    1.110225 S    
C27   C33   1.417449 A    
C57   H32   1.109621 S    
C21   C66   1.528591 S    
C5    C11   1.548598 S    
C9    C15   1.196828 T    
C44   C50   1.398754 A    
C6    C12   1.549514 S    
C10   C16   1.197266 T    
Cu1   Cu2   2.685882 S    
C25   C29   1.421449 A    
C23   Cl6   1.782955 S    
O2    C2    1.299717 A    
C36   C38   1.390945 A    
C69   H61   1.110337 S    
C1    C17   1.498955 S    
C53   H14   1.110936 S    
C73   H66   1.106957 S    
C8    C54   1.531293 S    
C18   C22   1.429892 A    
C8    C11   1.544910 S    
C7    C12   1.543919 S    
C70   H59   1.112348 S    
C66   H53   1.105596 S    
C52   C53   1.525829 S    
O4    C2    1.302144 A    
C62   H36   1.110210 S    
C52   H17   1.108586 S    
C55   C56   1.525827 S    
C65   H43   1.108258 S    
C47   H11   1.075967 S    
O3    C1    1.308428 A    
C67   H51   1.112100 S    
C54   C55   1.531538 S    
C3    C9    1.420379 S    
N2    C40   1.360364 A    
C12   C57   1.531162 S    
C35   C37   1.390355 A    
C72   H67   1.108274 S    
C61   H37   1.108008 S    
C19   C69   1.530927 S    
C45   C48   1.410550 A    
C5    H1    1.110244 S    
O7    Cu2   1.929015 S    
C46   C47   1.410548 A    
O7    C3    1.293125 A    
C54   H26   1.109854 S    
C59   H27   1.110990 S    
O6    C4    1.293415 A    
C11   C60   1.530711 S    
C59   H29   1.110523 S    
C74   H64   1.110041 S    
C31   C33   1.391471 A    
C60   H39   1.111583 S    
C63   C64   1.539366 S    
O3    Cu2   1.915762 S    
O8    C4    1.293287 A    
C57   H33   1.110500 S    
C2    C18   1.485028 S    
C40   H7    1.074532 S    
C22   C63   1.532469 S    
C39   C41   1.422103 A    
C68   H48   1.108998 S    
C29   C32   1.405579 A    
O1    Cu1   1.933250 S    
C30   C31   1.405464 A    
C28   C34   1.418541 A    
C60   C61   1.530752 S    
C66   C67   1.538784 S    
C7    C51   1.530931 S    
C53   H15   1.110438 S    
C33   Cl3   1.769304 S    
C6    C13   1.545945 S    
C71   H56   1.111209 S    
C73   H65   1.112059 S    
O6    Cu2   1.926530 S    
C59   H28   1.111009 S    
C70   H58   1.108535 S    
C63   H46   1.103395 S    
C5    C14   1.547568 S    
O8    Cu1   1.929015 S    
C52   H16   1.111514 S    
C41   C45   1.436640 A    
C13   C15   1.453705 S    
C17   C23   1.410030 A    
C14   C16   1.454068 S    
C18   C24   1.402923 A    
C7    C13   1.537519 S    
C72   H68   1.091556 S    
C56   H21   1.111134 S    
C74   H62   1.110905 S    
C25   C27   1.415094 A    
C48   C50   1.387479 A    
C55   H24   1.111529 S    
C69   C70   1.539408 S    
C43   C49   1.398235 A    
C26   C28   1.412424 A    
C51   H18   1.109991 S    
C20   C72   1.528618 S    
C31   H3    1.081764 S    
C58   H31   1.108913 S    
C24   C26   1.397083 A    
C19   C27   1.416923 A    
C36   Cl2   1.763831 S    
C20   C28   1.431272 A    
N1    C39   1.361134 A    
C64   H45   1.106138 S    
C45   C46   1.433413 A    
O2    Cu2   1.933249 S    
C60   H40   1.110074 S    
C39   H8    1.074709 S    
C41   C43   1.420511 A    
Cu1   N2    2.017468 S    
O5    Cu1   1.926531 S    
C11   C13   1.538254 S    
C35   C43   1.411221 A    
C73   C74   1.524808 S    
C6    C8    1.549593 S    
C58   C59   1.525711 S    
C56   H22   1.110432 S    
C35   Cl1   1.764158 S    
C68   H49   1.111262 S    
C48   H12   1.076080 S    
C70   C71   1.527567 S    
C64   C65   1.526940 S    
C62   H34   1.110743 S    
C37   H10   1.077635 S    
C67   H52   1.109521 S    
C32   C34   1.394416 A    
C32   H4    1.083242 S    
C20   C22   1.438130 A    
