data_mof_unit_28371.cif
_audit_creation_date              2012-12-11T15:51:22-0500
_audit_creation_method            fapswitch 2.2
_symmetry_space_group_name_H-M    P1
_symmetry_Int_Tables_number       1
_space_group_crystal_system       triclinic
_cell_length_a                    27.825263
_cell_length_b                    22.200429
_cell_length_c                    20.787121
_cell_angle_alpha                 89.747985
_cell_angle_beta                  52.746812
_cell_angle_gamma                 90.120539
_cell_volume                      10220.6563217

loop_
_atom_site_label
_atom_site_type_symbol
_atom_type_description
_atom_site_fract_x
_atom_site_fract_y
_atom_site_fract_z
_atom_type_partial_charge
C1    C     C_R   0.897421 0.566688 0.736180 0.515505
C2    C     C_R   0.110908 0.639341 0.547992 -0.074979
C3    C     C_R   0.401318 0.142499 0.662380 0.027068
C4    C     C_R   0.868141 0.619074 0.740250 -0.164903
C5    C     C_R   0.916881 0.354793 0.725086 -0.130297
C6    C     C_R   0.372989 0.123098 0.739984 -0.143966
C7    C     C_R   0.413841 0.856210 0.728059 -0.105014
C8    C     C_R   0.849292 0.388965 0.515967 0.084049
C9    C     C_R   0.888614 0.639236 0.449920 0.079332
C10   C     C_R   0.349357 0.889014 0.515684 0.085254
C11   C     C_R   0.388973 0.139498 0.449626 0.078331
C12   C     C_R   0.115494 0.434514 0.542490 -0.269031
C13   C     C_R   0.648285 0.889449 0.487758 -0.034041
C14   C     C_R   0.094735 0.580848 0.575385 -0.211969
C15   C     C_R   0.616880 0.936587 0.539531 -0.294635
C16   C     C_R   0.594379 0.081077 0.575816 -0.211186
C17   C     C_R   0.102922 0.558485 0.265657 -0.131106
C18   C     C_R   0.066872 0.421214 0.273752 -0.128372
C19   C     C_R   0.602665 0.059434 0.265316 -0.130877
C20   C     C_R   0.567537 0.921404 0.273208 -0.143607
C21   C     C_R   0.088996 0.651367 0.504184 0.511629
C22   C     C_R   0.109915 0.362676 0.472990 0.539194
C23   C     C_R   0.588568 0.151548 0.504686 0.510262
C24   C     C_R   0.610326 0.139623 0.548666 -0.074347
C25   C     C_R   0.612598 0.865712 0.468532 0.531127
C26   C     C_3   0.820540 0.516639 0.851688 0.305498
C27   C     C_3   0.807686 0.463437 0.906594 -0.892181
C28   C     C_3   0.000650 0.454519 0.739027 0.307328
C29   C     C_3   0.009735 0.474165 0.800985 -0.908736
C30   C     C_3   0.327587 0.013695 0.846557 0.330987
C31   C     C_3   0.310262 0.985605 0.924802 -0.903642
C32   C     C_3   0.502038 0.951364 0.736791 0.324288
C33   C     C_3   0.514166 0.966136 0.797107 -0.936871
C34   C     C_3   0.389246 0.851125 0.964405 0.281514
C35   C     C_R   0.138369 0.604197 0.261258 0.074951
C36   C     C_3   0.379437 0.904685 0.016515 -0.917929
C37   C     C_3   0.330773 0.148536 0.983371 0.278962
C38   C     C_3   0.385717 0.182479 0.963784 -0.921577
C39   C     C_3   0.946082 0.297967 0.914925 0.318898
C40   C     C_3   0.992487 0.298391 0.931187 -0.987322
C41   C     C_3   0.794079 0.613397 0.033391 0.284906
C42   C     C_3   0.849650 0.627657 0.028543 -0.919065
C43   C     C_3   0.156584 0.798333 0.139105 0.299620
C44   C     C_3   0.113715 0.819151 0.121239 -0.929438
C45   C     C_3   0.071896 0.155453 0.204394 0.400291
C46   C     C_R   0.076756 0.361021 0.274372 0.047596
C47   C     C_3   0.066179 0.096853 0.246887 -1.023238
C48   C     C_3   0.718173 0.326382 0.166273 0.293084
C49   C     C_3   0.675621 0.374764 0.176069 -0.925702
C50   C     C_3   0.593040 0.675693 0.238566 0.375453
C51   C     C_3   0.576053 0.621123 0.293017 -0.978308
C52   C     C_3   0.929443 0.138128 0.777740 0.305289
C53   C     C_3   0.925784 0.109004 0.714777 -0.919990
C54   C     C_3   0.836111 0.813094 0.824747 0.277181
C55   C     C_3   0.851631 0.851104 0.753384 -0.918256
C56   C     C_3   0.473355 0.667107 0.809885 0.304888
C57   C     C_R   0.637554 0.105891 0.261217 0.061197
C58   C     C_3   0.499927 0.622868 0.740638 -0.916974
C59   C     C_3   0.325417 0.325744 0.821382 0.307269
C60   C     C_3   0.325499 0.359923 0.757818 -0.898647
C61   C     C_3   0.395089 0.594291 0.019971 0.360528
C62   C     C_3   0.415327 0.529254 0.997639 -0.882021
C63   C     C_3   0.251063 0.399673 0.010987 0.342585
C64   C     C_3   0.226656 0.433300 0.088772 -0.955307
C65   C     C_3   0.859700 0.047798 0.973896 0.391916
C66   C     C_3   0.848072 0.985450 0.955840 -0.935117
C67   C     C_3   0.713941 0.901765 0.978707 0.452952
C68   C     C_R   0.578110 0.861224 0.273157 0.070052
C69   C     C_3   0.681099 0.945657 0.049026 -1.073057
C70   C     C_3   0.700376 0.135573 0.949336 0.263147
C71   C     C_3   0.735829 0.097409 0.873290 -0.877545
C72   C     C_3   0.532192 0.797688 0.104905 0.300873
C73   C     C_3   0.531610 0.866048 0.110220 -0.863043
C74   C     C_3   0.276035 0.570572 0.905521 0.268443
C75   C     C_3   0.334483 0.540441 0.837704 -0.893290
C76   C     C_3   0.080739 0.346348 0.048344 0.329303
C77   C     C_3   0.098785 0.411439 0.047333 -0.837187
C78   C     C_3   0.124655 0.747233 0.452892 0.245334
C79   C     C_3   0.781698 0.234163 0.931418 -0.336574
C80   C     C_3   0.117366 0.796485 0.408247 -0.928070
C81   C     C_3   0.123282 0.260821 0.460659 0.248147
C82   C     C_3   0.118151 0.206658 0.420537 -0.919927
C83   C     C_3   0.622755 0.247648 0.453701 0.242850
C84   C     C_3   0.612472 0.297870 0.413248 -0.930994
C85   C     C_3   0.593402 0.766597 0.469452 0.228667
C86   C     C_3   0.620585 0.709217 0.420502 -0.898117
C87   C     C_3   0.159557 0.616216 0.067581 0.288948
C88   C     C_3   0.118477 0.595857 0.046339 -0.987697
C89   C     C_3   0.043801 0.222885 0.040983 0.226175
C90   C     C_3   0.672336 0.709189 0.955990 -0.377652
C91   C     C_3   0.008077 0.164318 0.062779 -0.945108
C92   C     C_3   0.629642 0.190997 0.121528 0.298005
C93   C     C_3   0.574475 0.207367 0.126352 -0.980361
C94   C     C_3   0.532928 0.665990 0.086597 0.249887
C95   C     C_3   0.518945 0.598756 0.102648 -0.932267
C96   C     C_3   0.301230 0.701757 0.909144 -0.338764
C97   C     C_R   0.931310 0.413630 0.725370 0.557401
C98   C     C_3   0.182311 0.212005 0.952083 -0.340947
C99   C     C_3   0.307412 0.786885 0.993609 0.367580
C100  C     C_3   0.232253 0.171623 0.019695 0.337088
C101  C     C_3   0.839514 0.278297 0.985970 0.353625
C102  C     C_3   0.724816 0.664351 0.017560 0.351269
C103  C     C_3   0.253957 0.749157 0.068740 0.338200
C104  C     C_3   0.171231 0.195479 0.099820 0.342236
C105  C     C_3   0.784072 0.249688 0.070028 0.333699
C106  C     C_3   0.678690 0.699975 0.100201 0.309038
C107  C     C_1   0.191784 0.624721 0.188213 -0.108794
C108  C     C_R   0.399873 0.069436 0.736370 0.491291
C109  C     C_1   0.093513 0.321960 0.211631 -0.080061
C110  C     C_1   0.689979 0.128572 0.188794 -0.096981
C111  C     C_1   0.592697 0.821312 0.211675 -0.123642
C112  C     C_3   0.844355 0.243573 0.915176 -0.111374
C113  C     C_3   0.732869 0.701292 0.946071 -0.082271
C114  C     C_3   0.343376 0.743215 0.917226 -0.114686
C115  C     C_3   0.241896 0.206560 0.945280 -0.079973
C116  C     C_3   0.736965 0.193926 0.008774 0.993327
C117  C     C_3   0.618297 0.730502 0.044548 0.961428
C118  C     C_3   0.261489 0.657391 0.983841 0.997193
C119  C     C_R   0.429678 0.914774 0.726719 0.511788
C120  C     C_3   0.133117 0.252294 0.027353 0.977220
C121  C     C_3   0.270549 0.679356 0.049168 -0.219266
C122  C     C_3   0.157626 0.259891 0.079002 -0.217217
C123  C     C_3   0.768869 0.185518 0.051434 -0.217328
C124  C     C_3   0.650994 0.754805 0.081807 -0.198068
C125  C     C_R   0.880946 0.435434 0.461597 -0.131856
C126  C     C_R   0.904356 0.581272 0.423200 -0.141583
C127  C     C_R   0.381010 0.935501 0.461440 -0.130792
C128  C     C_R   0.404645 0.081501 0.422874 -0.144396
C129  C     C_3   0.338725 0.668807 0.013680 0.349564
C130  C     C_R   0.069631 0.345989 0.343877 -0.031180
C131  C     C_3   0.217983 0.298898 0.028701 0.355598
C132  C     C_3   0.828877 0.148285 0.993315 0.349837
C133  C     C_3   0.703651 0.800238 0.020491 0.291787
C134  C     C_3   0.870058 0.179203 0.908062 0.321685
C135  C     C_3   0.755743 0.765986 0.944532 0.238542
C136  C     C_3   0.382161 0.699953 0.928568 0.337521
C137  C     C_3   0.263464 0.271827 0.943399 0.311630
C138  C     C_1   0.231147 0.645944 0.124373 0.073694
C139  C     C_1   0.116787 0.292006 0.153132 0.061711
C140  C     C_1   0.728636 0.152057 0.126392 0.080683
C141  C     C_R   0.108384 0.632399 0.335500 -0.134901
C142  C     C_1   0.613161 0.789557 0.154909 0.058992
C143  C     C_1   0.881152 0.277619 0.840027 0.010770
C144  C     C_1   0.779265 0.672608 0.869967 0.188428
C145  C     C_1   0.379492 0.778916 0.843145 0.004840
C146  C     C_1   0.288427 0.178222 0.870151 0.042521
C147  C     C_1   0.901692 0.310957 0.784077 -0.012388
C148  C     C_1   0.819548 0.648649 0.809801 -0.079077
C149  C     C_1   0.399117 0.812550 0.787440 -0.016912
C150  C     C_1   0.327431 0.154105 0.809668 -0.062648
C151  C     C_1   0.133479 0.681109 0.575894 -0.037339
C152  C     C_R   0.570154 0.846136 0.343288 -0.036103
C153  C     C_1   0.202922 0.364656 0.467557 -0.020465
C154  C     C_1   0.632660 0.181499 0.576800 -0.035614
C155  C     C_1   0.705073 0.867325 0.462702 0.017544
C156  C     C_2   0.187359 0.756680 0.610530 -0.224734
C157  C     C_2   0.302769 0.314289 0.426961 -0.212014
C158  C     C_2   0.686532 0.257073 0.611492 -0.226623
C159  C     C_2   0.803111 0.814103 0.424387 -0.220990
C160  C     C_2   0.688209 0.316584 0.598293 0.048716
C161  C     C_2   0.819550 0.762480 0.383134 0.054027
C162  C     C_2   0.188456 0.816256 0.598157 0.047678
C163  C     C_R   0.607588 0.133409 0.335718 -0.140671
C164  C     C_2   0.321724 0.264315 0.382112 0.042376
C165  C     C_1   0.741869 0.347735 0.573813 0.013677
C166  C     C_1   0.848386 0.718949 0.400168 -0.009780
C167  C     C_1   0.241996 0.847687 0.573560 0.012236
C168  C     C_1   0.350168 0.220116 0.398944 -0.005638
C169  C     C_1   0.155492 0.715856 0.595375 0.016741
C170  C     C_1   0.249976 0.344338 0.447207 0.039740
C171  C     C_1   0.654623 0.216281 0.596336 0.016516
C172  C     C_1   0.751355 0.845639 0.443385 0.047910
C173  C     C_R   0.910507 0.651230 0.492809 -0.110974
C174  C     C_R   0.145401 0.385431 0.493725 -0.069950
C175  C     C_R   0.885004 0.366126 0.535495 -0.128735
C176  C     C_R   0.410448 0.151251 0.493067 -0.111764
C177  C     C_R   0.385020 0.866110 0.535240 -0.133112
C178  C     C_1   0.790127 0.368635 0.548257 -0.067281
C179  C     C_1   0.868109 0.682562 0.421112 -0.056167
C180  C     C_1   0.290216 0.868697 0.547933 -0.069278
C181  C     C_1   0.369274 0.183203 0.420164 -0.059828
C182  C     C_R   0.925184 0.345981 0.654049 -0.035960
C183  C     C_R   0.898497 0.640229 0.662767 0.030794
C184  C     C_R   0.423389 0.846623 0.656099 -0.040434
H1    H     H_    0.916067 0.182600 0.892375 0.000933
H2    H     H_    0.903693 0.560649 0.376686 0.097701
H3    H     H_    0.104963 0.091709 0.248776 0.257656
H4    H     H_    0.023796 0.096990 0.309766 0.226971
H5    H     H_    0.065090 0.058008 0.214288 0.269593
H6    H     H_    0.759228 0.348844 0.152354 0.082808
H7    H     H_    0.694796 0.301741 0.224672 0.104862
H8    H     H_    0.633710 0.353641 0.191017 0.270940
H9    H     H_    0.663562 0.405638 0.225652 0.215660
H10   H     H_    0.697685 0.401250 0.119220 0.243007
H11   H     H_    0.551121 0.693266 0.250117 0.120169
H12   H     H_    0.611601 0.710354 0.256400 0.064343
H13   H     H_    0.366195 0.963889 0.434264 0.102955
H14   H     H_    0.617007 0.602485 0.283260 0.256346
H15   H     H_    0.543362 0.634409 0.357318 0.217263
H16   H     H_    0.555082 0.585891 0.279344 0.271730
H17   H     H_    0.208867 0.746787 0.194936 0.070510
H18   H     H_    0.283212 0.754378 0.142157 0.127753
H19   H     H_    0.192702 0.157670 0.171532 0.125708
H20   H     H_    0.208365 0.232017 0.155368 0.121999
H21   H     H_    0.763580 0.226875 0.182710 0.071064
H22   H     H_    0.835476 0.213712 0.105754 0.131108
H23   H     H_    0.716562 0.690583 0.161578 0.126446
H24   H     H_    0.404232 0.061034 0.376075 0.098314
H25   H     H_    0.751979 0.743329 0.087724 0.106736
H26   H     H_    0.956960 0.108928 0.787511 0.076382
H27   H     H_    0.952271 0.182635 0.753729 0.068254
H28   H     H_    0.899287 0.137942 0.703047 0.245196
H29   H     H_    0.971917 0.103339 0.657483 0.210203
H30   H     H_    0.903600 0.064123 0.736627 0.263370
H31   H     H_    0.864463 0.771928 0.801567 0.102232
H32   H     H_    0.846854 0.840005 0.859685 0.072037
H33   H     H_    0.825600 0.893706 0.775322 0.248964
H34   H     H_    0.900616 0.862056 0.713661 0.214456
H35   H     H_    0.346025 0.690794 0.055167 -0.033843
H36   H     H_    0.840366 0.826076 0.717920 0.257891
H37   H     H_    0.496416 0.660989 0.838305 0.076033
H38   H     H_    0.482051 0.713566 0.784611 0.073758
H39   H     H_    0.478531 0.629011 0.710083 0.245203
H40   H     H_    0.549293 0.630775 0.696014 0.211291
H41   H     H_    0.491945 0.575945 0.763980 0.263508
H42   H     H_    0.355504 0.286084 0.792229 0.075708
H43   H     H_    0.343436 0.356052 0.844771 0.062046
H44   H     H_    0.296212 0.400212 0.785187 0.258513
H45   H     H_    0.372177 0.374685 0.708054 0.206526
H46   H     H_    0.238282 0.296330 0.061159 0.026134
H47   H     H_    0.308402 0.330366 0.732642 0.251107
H48   H     H_    0.375815 0.600942 0.084467 0.060048
H49   H     H_    0.435397 0.623990 0.981175 0.050718
H50   H     H_    0.435254 0.521713 0.933167 0.261101
H51   H     H_    0.449817 0.519220 0.006945 0.199413
H52   H     H_    0.376166 0.498369 0.036108 0.250288
H53   H     H_    0.262120 0.433069 0.963917 0.126708
H54   H     H_    0.294303 0.377261 0.989023 0.037190
H55   H     H_    0.261230 0.465585 0.078602 0.249316
H56   H     H_    0.185663 0.458763 0.108186 0.246900
H57   H     H_    0.853767 0.149006 0.019601 -0.040932
H58   H     H_    0.215097 0.400983 0.137218 0.257592
H59   H     H_    0.857780 0.044675 0.028870 0.059109
H60   H     H_    0.905700 0.062647 0.921677 0.055570
H61   H     H_    0.846632 0.987656 0.903620 0.264851
H62   H     H_    0.884685 0.954436 0.941111 0.203833
H63   H     H_    0.804442 0.967518 0.009531 0.252818
H64   H     H_    0.718119 0.922730 0.926921 0.115086
H65   H     H_    0.760740 0.895379 0.958895 0.054122
H66   H     H_    0.707599 0.988098 0.031522 0.273547
H67   H     H_    0.636247 0.956860 0.065052 0.263693
H68   H     H_    0.722194 0.819904 0.050847 0.008224
H69   H     H_    0.675599 0.925799 0.102212 0.265903
H70   H     H_    0.693283 0.181055 0.933899 0.081885
H71   H     H_    0.655357 0.114099 0.991994 0.110734
H72   H     H_    0.741649 0.051173 0.888196 0.265293
H73   H     H_    0.711111 0.094648 0.846946 0.199492
H74   H     H_    0.780988 0.117668 0.827796 0.270717
H75   H     H_    0.519684 0.777488 0.162182 0.079195
H76   H     H_    0.496371 0.785492 0.098876 0.075754
H77   H     H_    0.543945 0.886638 0.053203 0.263109
H78   H     H_    0.485800 0.881399 0.161159 0.190538
H79   H     H_    0.719794 0.237041 0.616505 0.134795
H80   H     H_    0.563936 0.881415 0.121021 0.270701
H81   H     H_    0.261741 0.602491 0.878718 0.083038
H82   H     H_    0.240905 0.534925 0.937906 0.108923
H83   H     H_    0.349033 0.507645 0.863245 0.264902
H84   H     H_    0.327418 0.516188 0.797411 0.200224
H85   H     H_    0.370637 0.574661 0.801536 0.273291
H86   H     H_    0.050557 0.330172 0.111968 0.082276
H87   H     H_    0.054410 0.347554 0.024264 0.072519
H88   H     H_    0.136627 0.425765 0.984924 0.276595
H89   H     H_    0.059695 0.441456 0.070110 0.179775
H90   H     H_    0.820242 0.826075 0.457813 0.131204
H91   H     H_    0.111955 0.416760 0.087704 0.260807
H92   H     H_    0.164728 0.845459 0.528836 0.096096
H93   H     H_    0.105227 0.822971 0.623011 0.118742
H94   H     H_    0.323752 0.210798 0.301328 0.102677
H95   H     H_    0.307026 0.282607 0.299933 0.123763
H96   H     H_    0.665307 0.344970 0.527753 0.096142
H97   H     H_    0.605303 0.323899 0.622343 0.119290
H98   H     H_    0.817063 0.705736 0.308537 0.097815
H99   H     H_    0.803392 0.777651 0.301795 0.125408
H100  H     H_    0.970604 0.267727 0.612843 0.105417
H101  H     H_    0.221040 0.736744 0.614769 0.134464
H102  H     H_    0.896556 0.262433 0.655338 0.106706
H103  H     H_    0.901501 0.730330 0.667338 0.126135
H104  H     H_    0.846680 0.703406 0.663201 0.112158
H105  H     H_    0.460657 0.764130 0.626146 0.090679
H106  H     H_    0.388997 0.766425 0.658408 0.109329
H107  H     H_    0.408536 0.232575 0.662810 0.122571
H108  H     H_    0.350920 0.207758 0.663442 0.105688
H109  H     H_    0.168595 0.724270 0.408675 0.068887
H110  H     H_    0.125305 0.769346 0.499843 0.116405
H111  H     H_    0.074589 0.821163 0.451093 0.264989
H112  H     H_    0.793348 0.762158 0.949670 0.049980
H113  H     H_    0.318289 0.325036 0.462653 0.131620
H114  H     H_    0.155717 0.828791 0.380333 0.213450
H115  H     H_    0.116597 0.776785 0.359886 0.243896
H116  H     H_    0.085089 0.258534 0.526576 0.066473
H117  H     H_    0.166716 0.257448 0.451858 0.123628
H118  H     H_    0.155360 0.207470 0.354543 0.261381
H119  H     H_    0.121022 0.164445 0.446877 0.215106
H120  H     H_    0.074169 0.207373 0.430528 0.246070
H121  H     H_    0.666307 0.225177 0.406696 0.065582
H122  H     H_    0.625816 0.268759 0.499103 0.116322
H123  H     H_    0.571017 0.323173 0.459357 0.265193
H124  H     H_    0.917790 0.695905 0.505668 0.121471
H125  H     H_    0.651579 0.329415 0.381699 0.207093
H126  H     H_    0.607179 0.278892 0.368538 0.251879
H127  H     H_    0.546094 0.770007 0.490631 0.095022
H128  H     H_    0.593871 0.762792 0.522674 0.085666
H129  H     H_    0.667586 0.703972 0.400110 0.263267
H130  H     H_    0.593383 0.669641 0.458285 0.212104
H131  H     H_    0.621051 0.710983 0.366787 0.249511
H132  H     H_    0.130102 0.636784 0.128393 0.139702
H133  H     H_    0.181704 0.575984 0.070792 0.104150
H134  H     H_    0.145309 0.576330 0.984846 0.248965
H135  H     H_    0.873204 0.329782 0.577211 0.118862
H136  H     H_    0.086254 0.561177 0.090498 0.222427
H137  H     H_    0.092567 0.634794 0.048441 0.273667
H138  H     H_    0.073887 0.229570 0.974324 0.101629
H139  H     H_    0.009323 0.258820 0.068548 0.108668
H140  H     H_    0.979894 0.156302 0.129046 0.263845
H141  H     H_    0.977873 0.167565 0.044728 0.223517
H142  H     H_    0.038194 0.125312 0.031224 0.240435
H143  H     H_    0.619931 0.204564 0.179655 0.139801
H144  H     H_    0.635473 0.141404 0.115327 0.103910
H145  H     H_    0.581849 0.195857 0.069095 0.244748
H146  H     H_    0.417454 0.195826 0.506489 0.122231
H147  H     H_    0.534406 0.182143 0.176841 0.226067
H148  H     H_    0.565571 0.256415 0.137311 0.274089
H149  H     H_    0.543869 0.678340 0.027307 0.089206
H150  H     H_    0.490338 0.688480 0.134795 0.087435
H151  H     H_    0.504185 0.587254 0.164265 0.269809
H152  H     H_    0.481977 0.587059 0.098681 0.208304
H153  H     H_    0.558860 0.571150 0.058438 0.242738
H154  H     H_    0.373129 0.829649 0.576715 0.118119
H155  H     H_    0.129960 0.462612 0.570210 0.142906
H156  H     H_    0.096433 0.560146 0.621151 0.125242
H157  H     H_    0.631056 0.964543 0.567695 0.144953
H158  H     H_    0.595924 0.060504 0.621771 0.125466
H159  H     H_    0.113587 0.529981 0.216782 0.094344
H160  H     H_    0.415750 0.726630 0.929615 -0.007312
H161  H     H_    0.060708 0.443794 0.233020 0.094035
H162  H     H_    0.613466 0.031307 0.215987 0.120342
H163  H     H_    0.561022 0.943882 0.232752 0.106649
H164  H     H_    0.066064 0.300842 0.366084 0.138758
H165  H     H_    0.125188 0.669461 0.349771 0.134533
H166  H     H_    0.565918 0.800918 0.365448 0.110603
H167  H     H_    0.623579 0.171096 0.350239 0.135011
H168  H     H_    0.802801 0.505492 0.817283 0.062050
H169  H     H_    0.795376 0.554839 0.892124 0.110339
H170  H     H_    0.832367 0.468864 0.932736 0.273500
H171  H     H_    0.308258 0.270146 0.931965 0.028258
H172  H     H_    0.758533 0.460735 0.956758 0.187566
H173  H     H_    0.821063 0.420679 0.872653 0.260590
H174  H     H_    0.010472 0.494002 0.700095 0.113992
H175  H     H_    0.032356 0.416998 0.703498 0.069118
H176  H     H_    0.001685 0.435639 0.840677 0.244546
H177  H     H_    0.056728 0.490713 0.769578 0.203948
H178  H     H_    0.977958 0.511018 0.838621 0.276555
H179  H     H_    0.324215 0.978691 0.811306 0.069779
H180  H     H_    0.293457 0.048590 0.863569 0.073073
H181  H     H_    0.317278 0.018243 0.958645 0.239858
H182  H     H_    0.792190 0.209226 0.878043 0.198935
H183  H     H_    0.262090 0.971468 0.962962 0.195222
H184  H     H_    0.338339 0.945740 0.911504 0.287670
H185  H     H_    0.513248 0.991951 0.698924 0.118362
H186  H     H_    0.531288 0.912762 0.699782 0.072174
H187  H     H_    0.505663 0.925751 0.834430 0.242859
H188  H     H_    0.561983 0.980370 0.764335 0.209728
H189  H     H_    0.484344 0.003303 0.837108 0.277391
H190  H     H_    0.728352 0.311661 0.986672 0.206173
H191  H     H_    0.727584 0.283060 0.913213 0.112631
H192  H     H_    0.638338 0.622856 0.960714 0.135474
H193  H     H_    0.681234 0.747841 0.915591 0.244367
H194  H     H_    0.633443 0.674143 0.905011 0.112605
H195  H     H_    0.225514 0.751678 0.941069 0.210601
H196  H     H_    0.255647 0.708589 0.859618 0.111207
H197  H     H_    0.128405 0.134497 0.005159 0.206822
H198  H     H_    0.143871 0.154547 0.915792 0.097959
H199  H     H_    0.389004 0.867165 0.914282 0.138091
H200  H     H_    0.434995 0.832907 0.936703 0.098701
H201  H     H_    0.383382 0.890256 0.064363 0.257122
H202  H     H_    0.413797 0.940103 0.978748 0.228741
H203  H     H_    0.333907 0.923933 0.045351 0.250931
H204  H     H_    0.332468 0.674034 0.854546 0.198189
H205  H     H_    0.342047 0.130932 0.925964 0.139339
H206  H     H_    0.321485 0.110090 0.023922 0.104174
H207  H     H_    0.376641 0.199968 0.020150 0.259060
H208  H     H_    0.425105 0.151807 0.933945 0.222726
H209  H     H_    0.396602 0.220800 0.922365 0.246257
H210  H     H_    0.938667 0.345413 0.906165 0.123831
H211  H     H_    0.966117 0.273142 0.857830 0.083864
H212  H     H_    0.003544 0.251438 0.936282 0.255566
H213  H     H_    0.034393 0.321466 0.880786 0.223463
H214  H     H_    0.974328 0.322538 0.988327 0.256780
H215  H     H_    0.194872 0.236375 0.896741 0.210687
H216  H     H_    0.803129 0.571373 0.999146 0.120550
H217  H     H_    0.755576 0.605706 0.097857 0.090605
H218  H     H_    0.842249 0.669431 0.062592 0.247805
H219  H     H_    0.858672 0.589915 0.055059 0.211914
H220  H     H_    0.889521 0.634054 0.964455 0.269128
H221  H     H_    0.790297 0.355693 0.997608 0.135701
H222  H     H_    0.836948 0.365944 0.022496 0.108328
H223  H     H_    0.658000 0.604541 0.040112 0.174013
H224  H     H_    0.699089 0.575264 0.062866 0.106131
H225  H     H_    0.252553 0.831201 0.969274 0.124123
H226  H     H_    0.866065 0.463744 0.434445 0.103302
H227  H     H_    0.264595 0.869807 0.028040 0.115867
H228  H     H_    0.197591 0.090948 0.007166 0.133919
H229  H     H_    0.219287 0.085117 0.066504 0.115026
H230  H     H_    0.178032 0.838854 0.143261 0.083820
H231  H     H_    0.129335 0.774355 0.198300 0.105247
H232  H     H_    0.090819 0.779648 0.117756 0.270523
H233  H     H_    0.079052 0.849362 0.170029 0.215423
H234  H     H_    0.139091 0.844089 0.062854 0.243423
H235  H     H_    0.031694 0.159228 0.205373 0.142158
H236  H     H_    0.069910 0.193972 0.239734 0.069810
N1    N     N_R   0.945170 0.558260 0.657960 -0.111202
N2    N     N_R   0.935930 0.399220 0.495700 -0.040860
N3    N     N_R   0.435930 0.100780 0.495700 -0.039705
N4    N     N_R   0.435930 0.899220 0.495700 -0.041284
N5    N     N_R   0.942620 0.398370 0.613240 -0.080943
N6    N     N_R   0.942620 0.601630 0.613240 -0.074295
N7    N     N_R   0.442620 0.898370 0.613240 -0.080371
N8    N     N_R   0.442620 0.101630 0.613240 -0.073839
N9    N     N_R   0.064810 0.441760 0.549020 -0.086318
N10   N     N_R   0.064810 0.558240 0.549020 -0.070111
N11   N     N_R   0.564810 0.941760 0.549020 -0.082469
N12   N     N_R   0.945170 0.441740 0.657960 -0.123728
N13   N     N_R   0.564810 0.058240 0.549020 -0.067740
N14   N     N_R   0.053030 0.555470 0.342040 -0.044108
N15   N     N_R   0.053030 0.444530 0.342040 -0.046589
N16   N     N_R   0.553030 0.055470 0.342040 -0.045558
N17   N     N_R   0.553030 0.944530 0.342040 -0.045251
N18   N     N_R   0.062260 0.600860 0.504300 -0.078858
N19   N     N_R   0.062260 0.399140 0.504300 -0.090360
N20   N     N_R   0.562260 0.100860 0.504300 -0.078072
N21   N     N_R   0.562260 0.899140 0.504300 -0.104421
N22   N     N_R   0.055570 0.396370 0.386760 -0.039862
N23   N     N_R   0.445170 0.058260 0.657960 -0.109512
N24   N     N_R   0.055570 0.603630 0.386760 -0.034904
N25   N     N_R   0.555570 0.896370 0.386760 -0.043218
N26   N     N_R   0.555570 0.103630 0.386760 -0.033892
N27   N     N_3   0.755530 0.291545 0.930091 -0.211200
N28   N     N_3   0.660107 0.659039 0.921655 -0.216020
N29   N     N_3   0.266439 0.736593 0.889583 -0.211150
N30   N     N_3   0.161465 0.152194 0.948132 -0.224681
N31   N     N_3   0.831991 0.343910 0.982497 -0.206215
N32   N     N_3   0.702429 0.602914 0.019614 -0.228655
N33   N     N_3   0.284350 0.840918 0.978707 -0.214612
N34   N     N_R   0.445170 0.941740 0.657960 -0.123551
N35   N     N_3   0.229926 0.105274 0.013707 -0.221841
N36   N     N_3   0.246679 0.767220 0.143351 -0.206594
N37   N     N_3   0.177677 0.198998 0.165693 -0.217083
N38   N     N_3   0.800079 0.243518 0.126483 -0.211523
N39   N     N_3   0.709982 0.724249 0.132467 -0.228271
N40   N     N_3   0.146583 0.845941 0.589920 -0.207383
N41   N     N_3   0.298604 0.247097 0.338815 -0.204444
N42   N     N_3   0.646966 0.346314 0.588881 -0.205995
N43   N     N_3   0.794127 0.743875 0.343185 -0.195281
N44   N     N_3   0.935332 0.288681 0.616714 -0.211227
N45   N     N_R   0.933380 0.440900 0.450980 -0.045927
N46   N     N_3   0.891935 0.698418 0.639706 -0.205549
N47   N     N_3   0.430679 0.788612 0.621770 -0.221343
N48   N     N_3   0.396350 0.200860 0.637968 -0.202517
N49   N     N_R   0.933380 0.559100 0.450980 -0.046145
N50   N     N_R   0.433380 0.940900 0.450980 -0.044195
N51   N     N_R   0.433380 0.059100 0.450980 -0.045640
N52   N     N_R   0.935930 0.600780 0.495700 -0.039811
Ni1   Ni    Ni4+2 0.004930 0.500000 0.602560 0.195947
Ni2   Ni    Ni4+2 0.504930 0.000000 0.602560 0.196491
Ni3   Ni    Ni4+2 0.993260 0.500000 0.397440 0.200467
Ni4   Ni    Ni4+2 0.493260 0.000000 0.397440 0.200981
Ni5   Ni    Ni4+2 0.999100 0.599910 0.500000 0.255498
Ni6   Ni    Ni4+2 0.999100 0.400090 0.500000 0.215471
Ni7   Ni    Ni4+2 0.499100 0.099910 0.500000 0.256361
Ni8   Ni    Ni4+2 0.499100 0.900090 0.500000 0.197439
O1    O     O_3   0.883144 0.530262 0.799934 -0.604200
O2    O     O_3   0.124155 0.153481 0.122467 -0.639391
O3    O     O_3   0.731221 0.286093 0.104943 -0.620403
O4    O     O_3   0.633242 0.657326 0.156866 -0.608451
O5    O     O_3   0.870480 0.144081 0.850539 -0.579790
O6    O     O_3   0.774197 0.797383 0.872794 -0.600180
O7    O     O_3   0.410869 0.655512 0.866930 -0.578540
O8    O     O_3   0.265744 0.307606 0.884459 -0.573842
O9    O     O_3   0.350728 0.606066 0.008738 -0.538157
O10   O     O_3   0.206208 0.360119 0.022857 -0.566780
O11   O     O_3   0.815048 0.087767 0.987201 -0.540643
O12   O     O_3   0.940675 0.435155 0.779504 -0.601491
O13   O     O_3   0.680610 0.847251 0.999308 -0.554039
O14   O     O_3   0.730562 0.135687 0.985114 -0.616752
O15   O     O_3   0.588387 0.778201 0.034388 -0.647548
O16   O     O_3   0.284193 0.597278 0.960256 -0.611497
O17   O     O_3   0.132546 0.310055 0.995842 -0.627400
O18   O     O_3   0.074890 0.707348 0.489941 -0.641372
O19   O     O_3   0.121947 0.314008 0.424297 -0.652210
O20   O     O_3   0.573158 0.207476 0.492357 -0.639734
O21   O     O_3   0.627065 0.816566 0.419810 -0.639602
O22   O     O_3   0.199989 0.661030 0.011761 -0.653989
O23   O     O_3   0.387305 0.036892 0.801688 -0.608668
O24   O     O_3   0.074644 0.223782 0.076020 -0.679565
O25   O     O_3   0.680026 0.224636 0.058399 -0.655583
O26   O     O_3   0.578931 0.681378 0.094021 -0.659043
O27   O     O_3   0.440761 0.936322 0.779022 -0.620180
O28   O     O_3   0.346087 0.805648 0.014036 -0.677735
O29   O     O_3   0.280525 0.187716 0.023630 -0.687337
O30   O     O_3   0.892951 0.268476 0.980437 -0.669264
O31   O     O_3   0.784037 0.661466 0.997898 -0.656476
O32   O     O_3   0.199126 0.758271 0.077654 -0.625302

loop_
_geom_bond_atom_site_label_1
_geom_bond_atom_site_label_2
_ccdc_geom_bond_type
C99   C103  S    
C53   H30   S    
C62   H50   S    
H98   N43   S    
C11   C181  S    
N13   Ni2   S    
C13   C25   A    
N2    Ni6   S    
N7    Ni8   S    
N25   Ni8   S    
C141  N24   A    
C75   H83   S    
C71   H74   S    
C54   H32   S    
C94   H149  S    
C124  C133  S    
C122  C139  S    
C163  H167  S    
C44   H232  S    
C90   H193  S    
H225  N33   S    
C83   H121  S    
N8    N23   A    
C100  O29   S    
C4    C148  S    
C100  C104  S    
C105  C123  S    
C184  N47   S    
C1    O1    S    
N8    Ni7   S    
N52   Ni5   S    
C156  H101  S    
C111  C142  T    
C146  C150  T    
N17   N25   A    
C82   H120  S    
N21   Ni8   S    
H196  N29   S    
C159  C161  D    
C41   O31   S    
H227  N33   S    
C73   H80   S    
C104  N37   S    
C101  O30   S    
C59   C60   S    
C36   H201  S    
C63   O10   S    
C52   H26   S    
C28   H175  S    
C96   C114  S    
C100  C115  S    
N4    Ni8   S    
C24   C154  S    
C55   H34   S    
H23   N39   S    
C45   O2    S    
C105  O3    S    
C65   H60   S    
C72   O15   S    
C159  C172  S    
C60   H45   S    
C89   H139  S    
C90   C117  S    
C7    C119  A    
C164  C168  S    
N15   N22   A    
C31   H183  S    
C37   H206  S    
C19   N16   A    
C54   O6    S    
C101  N31   S    
H94   N41   S    
C20   N17   A    
C25   O21   S    
C17   N14   A    
C43   C44   S    
C27   H170  S    
C33   H189  S    
C37   C38   S    
N6    Ni5   S    
C50   H11   S    
H198  N30   S    
C14   H156  S    
C77   H88   S    
C92   O25   S    
C91   H140  S    
C32   O27   S    
C78   O18   S    
C176  N3    A    
C67   H65   S    
C131  H46   S    
C45   H236  S    
C164  N41   S    
C103  C121  S    
C176  H146  S    
C5    C182  A    
C95   H152  S    
C98   N30   S    
C12   C174  A    
C66   H62   S    
N49   N52   A    
N1    N6    A    
C173  H124  S    
C20   C68   A    
C112  C134  S    
C72   C73   S    
C81   H117  S    
C177  H154  S    
C63   H53   S    
C84   H123  S    
C58   H39   S    
C98   C120  S    
C32   H185  S    
C120  O24   S    
C113  C144  S    
C107  C138  T    
N16   N26   A    
N26   Ni7   S    
H197  N30   S    
C59   O8    S    
C131  O10   S    
C2    C14   A    
C20   H163  S    
C39   H211  S    
C64   H56   S    
C35   C107  S    
C30   O23   S    
C69   H67   S    
H17   N36   S    
C173  N52   A    
N9    N19   A    
C41   H216  S    
C132  C134  S    
C168  C181  T    
C44   H233  S    
C36   H203  S    
C106  C124  S    
C133  C135  S    
C114  C136  S    
C12   N9    A    
N50   Ni4   S    
C128  H24   S    
C157  H113  S    
C97   O12   S    
C88   H137  S    
C27   H173  S    
C12   H155  S    
C42   H218  S    
C43   O32   S    
C85   O21   S    
C152  N25   A    
C116  C123  S    
C123  C132  S    
C60   H47   S    
C61   H49   S    
C77   H91   S    
C1    N1    A    
C135  H112  S    
C3    C6    A    
C70   H70   S    
C99   C114  S    
C31   H181  S    
C86   H131  S    
C38   H207  S    
C101  C112  S    
C182  N5    A    
C11   C176  A    
C177  N4    A    
H191  N27   S    
C18   N15   A    
C37   O29   S    
H192  N28   S    
N2    N45   A    
C56   H37   S    
C120  C122  S    
C106  O4    S    
C104  C122  S    
C76   H87   S    
C61   H48   S    
C16   N13   A    
C3    N48   S    
C175  N2    A    
C92   C93   S    
C48   H7    S    
C79   H182  S    
C30   H180  S    
C65   O11   S    
C115  C137  S    
C99   O28   S    
C102  N32   S    
C153  C170  T    
C23   C24   A    
C130  N22   A    
C127  N50   A    
C9    C173  A    
C89   C91   S    
N9    Ni1   S    
C9    C179  S    
N14   N24   A    
C152  H166  S    
C81   O19   S    
C42   H220  S    
C14   N10   A    
C92   H144  S    
C88   H134  S    
C84   H125  S    
C38   H209  S    
C73   H77   S    
C85   H128  S    
C101  C105  S    
C128  N51   A    
C100  N35   S    
C28   H174  S    
N14   Ni3   S    
C41   H217  S    
H106  N47   S    
C39   C40   S    
N10   Ni1   S    
C93   H148  S    
C78   H109  S    
C34   O28   S    
C23   O20   S    
H22   N38   S    
C21   O18   S    
H229  N35   S    
H223  N32   S    
C40   H214  S    
C98   H215  S    
C132  H57   S    
C108  N23   A    
C50   O4    S    
C83   C84   S    
C57   C163  A    
C43   H230  S    
C39   O30   S    
C157  C164  D    
C130  H164  S    
C5    C97   A    
N12   Ni1   S    
C113  C135  S    
N16   Ni4   S    
C47   H3    S    
C91   H141  S    
C116  O14   S    
C122  C131  S    
C52   C53   S    
C86   H129  S    
C102  O31   S    
C54   C55   S    
C53   H29   S    
C62   H51   S    
N15   Ni3   S    
C10   C177  A    
C114  C145  S    
C141  H165  S    
C34   H199  S    
C136  H160  S    
C46   C130  A    
C71   H73   S    
N13   N20   A    
C151  C169  T    
C96   H204  S    
H21   N38   S    
C97   N12   A    
C103  O32   S    
H105  N47   S    
C98   C115  S    
C53   H28   S    
C42   H219  S    
N5    N12   A    
C56   C58   S    
C154  C171  T    
C167  C180  T    
H99   N43   S    
C4    C183  A    
C61   C62   S    
C51   H16   S    
C63   C64   S    
C72   H75   S    
C88   H136  S    
C48   O3    S    
C66   H61   S    
C82   H118  S    
C129  O9    S    
C87   C88   S    
C22   N19   A    
C5    C147  S    
C126  N49   A    
C36   H202  S    
C41   C42   S    
C183  N6    A    
H93   N40   S    
N3    N51   A    
C99   N33   S    
N49   Ni3   S    
C55   H33   S    
C49   H8    S    
C19   C57   A    
C65   H59   S    
C26   C27   S    
C25   N21   A    
C79   C112  S    
C89   H138  S    
C112  C143  S    
C28   C29   S    
C117  C124  S    
C30   C31   S    
C74   H81   S    
C37   H205  S    
C29   H178  S    
C64   H58   S    
C49   H10   S    
C127  H13   S    
C87   O22   S    
N4    N50   A    
C33   H188  S    
C80   H115  S    
C17   H159  S    
C18   H161  S    
C50   H12   S    
C155  C172  T    
C76   H86   S    
C117  O26   S    
C118  O22   S    
C104  O2    S    
C70   C71   S    
C59   H43   S    
C48   H6    S    
C89   O24   S    
C15   N11   A    
C75   H84   S    
C45   C47   S    
C76   O17   S    
C45   H235  S    
C23   N20   A    
H95   N41   S    
C158  C160  D    
C105  N38   S    
N34   Ni2   S    
C18   C46   A    
C132  O11   S    
C163  N26   A    
C182  N44   S    
C120  O17   S    
C175  H135  S    
C54   H31   S    
H224  N32   S    
C126  H2    S    
C117  O15   S    
C81   H116  S    
C58   H40   S    
C83   H122  S    
C32   H186  S    
C85   C86   S    
C153  C174  S    
C8    C175  A    
C68   C152  A    
C51   H14   S    
C77   H89   S    
C157  C170  S    
C92   H143  S    
C93   H145  S    
H190  N27   S    
C80   H111  S    
N5    Ni6   S    
C115  C146  S    
C87   H133  S    
N17   Ni4   S    
C50   C51   S    
C160  C165  S    
C58   H41   S    
C69   H66   S    
H108  N48   S    
C48   C49   S    
C43   H231  S    
H100  N44   S    
C52   O5    S    
C26   O1    S    
H97   N42   S    
C108  O23   S    
C134  O5    S    
C2    C151  S    
N18   Ni5   S    
C159  H90   S    
C121  C129  S    
C94   H150  S    
C70   H71   S    
C60   H44   S    
C31   H184  S    
H194  N28   S    
C38   H208  S    
C15   H157  S    
C10   C180  S    
C32   C33   S    
C129  H35   S    
C102  C113  S    
C79   N27   S    
N51   Ni4   S    
C56   H38   S    
C133  O13   S    
N19   Ni6   S    
C94   O26   S    
C22   O19   S    
C78   C80   S    
C26   H168  S    
C94   C95   S    
H222  N31   S    
C6    C150  S    
C8    C125  A    
C158  H79   S    
C46   C109  S    
C125  N45   A    
C17   C35   A    
C83   O20   S    
C145  C149  T    
C162  N40   S    
N23   Ni2   S    
C95   H153  S    
N20   Ni7   S    
C87   H132  S    
C119  O27   S    
C144  C148  T    
N10   N18   A    
C63   H54   S    
C84   H126  S    
C81   C82   S    
C69   H69   S    
C85   H127  S    
C143  C147  T    
C44   H234  S    
C7    C184  A    
C28   O12   S    
C131  C137  S    
C96   C118  S    
C96   N29   S    
N7    N34   A    
C95   H151  S    
C93   H147  S    
C158  C171  S    
C78   H110  S    
C119  N34   A    
C156  C169  S    
C61   O9    S    
C125  H226  S    
C90   C113  S    
C118  O16   S    
C59   H42   S    
H20   N37   S    
C13   C155  S    
C64   H55   S    
C7    C149  S    
C57   C110  S    
C68   C111  S    
C52   H27   S    
C34   C36   S    
C161  C166  S    
N1    Ni1   S    
N24   Ni5   S    
N22   Ni6   S    
C156  C162  D    
C16   C24   A    
C19   H162  S    
C79   C116  S    
C165  C178  T    
C134  H1    S    
C124  C142  S    
C2    C21   A    
C40   H212  S    
C22   C174  A    
H18   N36   S    
C86   H130  S    
C75   H85   S    
C103  N36   S    
C184  N7    A    
C74   O16   S    
C73   H78   S    
C71   H72   S    
C62   H52   S    
C74   C75   S    
C26   H169  S    
C160  N42   S    
N45   Ni3   S    
C76   C77   S    
H92   N40   S    
C34   H200  S    
C66   H63   S    
C161  N43   S    
C70   O14   S    
C123  C140  S    
C67   C69   S    
C118  C121  S    
C121  C138  S    
C47   H5    S    
H107  N48   S    
C30   H179  S    
N11   N21   A    
C129  C136  S    
H104  N46   S    
C67   H64   S    
C133  H68   S    
H102  N44   S    
C137  H171  S    
C90   N28   S    
C183  N46   S    
N3    Ni7   S    
C51   H15   S    
C35   C141  A    
C72   H76   S    
C13   C15   A    
N11   Ni2   S    
C3    N8    A    
H228  N35   S    
C116  O25   S    
C10   C127  A    
C82   H119  S    
C106  N39   S    
C135  O6    S    
C55   H36   S    
C80   H114  S    
C9    C126  A    
C109  C139  T    
C1    C4    A    
C110  C140  T    
C11   C128  A    
H19   N37   S    
C39   H210  S    
H25   N39   S    
C40   H213  S    
H221  N31   S    
C16   H158  S    
C74   H82   S    
C29   H177  S    
H103  N46   S    
C49   H9    S    
C137  O8    S    
H96   N42   S    
C102  C106  S    
C21   N18   A    
C136  O7    S    
C27   H172  S    
C33   H187  S    
C162  C167  S    
C8    C178  S    
C29   H176  S    
C65   C66   S    
C6    C108  A    
H195  N29   S    
C166  C179  T    
C47   H4    S    
C91   H142  S    
C67   O13   S    
C56   O7    S    
