data_mof_unit_7190.cif
_audit_creation_date              2012-12-10T17:39:18-0500
_audit_creation_method            fapswitch 2.2
_symmetry_space_group_name_H-M    P1
_symmetry_Int_Tables_number       1
_space_group_crystal_system       triclinic
_cell_length_a                    12.326391
_cell_length_b                    13.246403
_cell_length_c                    27.786082
_cell_angle_alpha                 77.401374
_cell_angle_beta                  101.530504
_cell_angle_gamma                 116.514695
_cell_volume                      3934.5827956

loop_
_atom_site_label
_atom_site_type_symbol
_atom_type_description
_atom_site_fract_x
_atom_site_fract_y
_atom_site_fract_z
_atom_type_partial_charge
C1    C     C_R   0.854696 0.286812 0.506688 0.779958
C2    C     C_R   0.914361 0.528854 0.710130 -0.186688
C3    C     C_R   0.999748 0.504027 0.746109 0.279878
C4    C     C_R   0.995511 0.503063 0.897811 -0.051388
C5    C     C_R   0.893117 0.425079 0.871123 -0.097169
C6    C     C_R   0.789724 0.349926 0.895873 -0.006479
C7    C     C_R   0.094772 0.584828 0.872641 -0.022719
C8    C     C_R   0.000179 0.501585 0.645350 -0.086500
C9    C     C_R   0.996361 0.488646 0.355841 -0.144066
C10   C     C_R   0.910141 0.403967 0.027592 0.034443
C11   C     C_R   0.102574 0.577990 0.027183 0.044360
C12   C     C_R   0.999893 0.500094 0.592449 0.826537
C13   C     C_R   0.007831 0.488143 0.053130 0.078102
C14   C     C_R   0.825872 0.309301 0.055572 -0.236188
C15   C     C_R   0.830035 0.301304 0.106841 -0.011624
C16   C     C_R   0.918408 0.392417 0.131622 -0.082355
C17   C     C_R   0.010389 0.482980 0.104999 -0.047680
C18   C     C_R   0.104876 0.569248 0.130226 -0.022630
C19   C     C_R   0.105209 0.565584 0.181009 0.598459
C20   C     C_R   0.917468 0.398448 0.181769 0.601583
C21   C     C_R   0.026340 0.397999 0.294656 -0.097264
C22   C     C_R   0.012817 0.398042 0.344042 0.394134
C23   C     C_R   0.145433 0.713020 0.496795 0.849270
C24   C     C_R   0.984995 0.573574 0.318218 -0.232093
C25   C     C_R   0.989449 0.569615 0.269183 -0.096871
C26   C     C_R   0.010549 0.483355 0.256962 0.215915
C27   C     C_R   0.901841 0.414136 0.975158 0.034668
C28   C     C_R   0.999410 0.499286 0.949665 0.079054
C29   C     C_R   0.101343 0.580234 0.975641 0.044725
C30   C     C_R   0.796344 0.344173 0.947136 -0.239043
C31   C     C_R   0.195295 0.662972 0.898562 -0.133845
C32   C     C_R   0.195398 0.662888 0.053874 -0.188180
C33   C     C_R   0.196492 0.658175 0.104312 -0.124623
C34   C     C_R   0.999160 0.497948 0.407836 0.833404
C35   C     C_R   0.198964 0.660687 0.948981 -0.189012
C36   C     C_R   0.268794 0.028587 0.458188 0.525376
C37   C     C_R   0.229237 0.834853 0.497142 -0.212550
C38   C     C_R   0.809411 0.106993 0.563270 -0.276597
C39   C     C_R   0.723623 0.020865 0.592132 -0.204245
C40   C     C_R   0.599425 0.990589 0.577475 0.521753
C41   C     C_R   0.559591 0.031852 0.528676 0.008767
C42   C     C_R   0.646246 0.126725 0.501692 -0.036140
C43   C     C_R   0.435599 0.987194 0.507230 -0.117336
C44   C     C_R   0.395063 0.059589 0.470256 -0.072692
C45   C     C_R   0.900086 0.423936 0.820996 0.582668
C46   C     C_R   0.481382 0.157891 0.445045 0.496195
C47   C     C_R   0.605225 0.182297 0.457705 -0.272613
C48   C     C_R   0.353863 0.870638 0.517607 -0.027118
C49   C     C_R   0.186950 0.916928 0.472672 -0.281044
C50   C     C_R   0.771480 0.167483 0.520630 -0.091752
C51   C     C_R   0.345527 0.324950 0.577853 -0.419152
C52   C     C_R   0.754505 0.646132 0.432893 0.038617
C53   C     C_R   0.666265 0.689268 0.425056 0.389477
C54   C     C_R   0.567317 0.635678 0.452101 -0.270008
C55   C     C_R   0.556398 0.540933 0.488358 -0.069960
C56   C     C_R   0.092242 0.586077 0.821914 0.594747
C57   C     C_R   0.655876 0.507847 0.499489 0.222632
C58   C     C_R   0.450148 0.478503 0.514010 -0.008885
C59   C     C_R   0.447579 0.387671 0.552059 0.104116
C60   C     C_R   0.546724 0.359304 0.564126 -0.265051
C61   C     C_R   0.648457 0.418117 0.538589 -0.155362
C62   C     C_R   0.344265 0.500247 0.502612 -0.059929
C63   C     C_R   0.245069 0.353266 0.566602 0.712185
C64   C     C_R   0.087651 0.479146 0.732021 0.535149
C65   C     C_R   0.085904 0.476657 0.681394 -0.308483
C66   C     C_R   0.914506 0.527784 0.660187 -0.226691
Cu1   Cu    Cu3+1 0.098270 0.475420 0.511360 1.015928
Cu2   Cu    Cu3+1 0.901730 0.524580 0.488640 0.946245
H1    H     H_    0.847204 0.547216 0.633249 0.179433
H2    H     H_    0.272976 0.725948 0.880039 0.193693
H3    H     H_    0.267689 0.736201 0.036778 0.151205
H4    H     H_    0.976555 0.645143 0.326843 0.196707
H5    H     H_    0.269411 0.725840 0.122869 0.198194
H6    H     H_    0.978514 0.635270 0.240378 0.170489
H7    H     H_    0.281554 0.721943 0.966092 0.150892
H8    H     H_    0.090844 0.893304 0.461127 0.225445
H9    H     H_    0.847517 0.548962 0.721043 0.172369
H10   H     H_    0.904796 0.136303 0.578098 0.215033
H11   H     H_    0.753826 0.984557 0.628152 0.170623
H12   H     H_    0.669014 0.247761 0.433552 0.165463
H13   H     H_    0.545468 0.289980 0.593545 0.149141
H14   H     H_    0.344268 0.253828 0.606066 0.151034
H15   H     H_    0.336446 0.565007 0.472977 0.159107
H16   H     H_    0.500033 0.669946 0.443297 0.186659
H17   H     H_    0.718872 0.389554 0.550920 0.204977
H18   H     H_    0.759750 0.236135 0.038638 0.168212
H19   H     H_    0.714007 0.288553 0.964037 0.167684
H20   H     H_    0.150140 0.454010 0.670148 0.174180
N1    N     N_R   0.997246 0.504902 0.797505 -0.448514
N2    N     N_R   0.011848 0.481775 0.205503 -0.442537
N3    N     N_R   0.246290 0.438210 0.528570 -0.215032
N4    N     N_R   0.754320 0.561170 0.471730 -0.277610
O1    O     O_R   0.972510 0.318140 0.514280 -0.532787
O2    O     O_2   0.821576 0.324773 0.206353 -0.510800
O3    O     O_2   0.184507 0.667331 0.797141 -0.544822
O4    O     O_2   0.197642 0.645667 0.205763 -0.516688
O5    O     O_R   0.806530 0.359640 0.495100 -0.615527
O6    O     O_R   0.082990 0.479270 0.579320 -0.528828
O7    O     O_R   0.917010 0.520770 0.560140 -0.614820
O8    O     O_R   0.193470 0.640360 0.504900 -0.583441
O9    O     O_R   0.027490 0.681860 0.485720 -0.560733
O10   O     O_R   0.082990 0.479230 0.439860 -0.554615
O11   O     O_R   0.917010 0.520730 0.420680 -0.583178
O12   O     O_2   0.813676 0.340298 0.796315 -0.508540
O13   O     O_3   0.165969 0.448225 0.769130 -0.575658
C67   C     C_3   0.286976 0.501460 0.756989 -0.228377
H21   H     H_    0.313472 0.591905 0.739233 0.185041
H22   H     H_    0.300480 0.451946 0.733036 0.144514
H23   H     H_    0.349560 0.502046 0.791800 0.202478
O14   O     O_3   0.444046 0.217196 0.402625 -0.527991
C68   C     C_3   0.481607 0.330605 0.410006 -0.177969
H24   H     H_    0.582080 0.379754 0.410549 0.156932
H25   H     H_    0.451266 0.333864 0.444517 0.139831
H26   H     H_    0.438293 0.372851 0.378520 0.208818
O15   O     O_3   0.224725 0.104456 0.429344 -0.518957
C69   C     C_3   0.192358 0.153439 0.461243 -0.248470
H27   H     H_    0.169530 0.223085 0.438919 0.244530
H28   H     H_    0.269271 0.191983 0.490017 0.128525
H29   H     H_    0.110365 0.089519 0.479100 0.144920
C70   C     C_2   0.402529 0.785443 0.543071 0.953989
O16   O     O_2   0.358920 0.719479 0.579676 -0.558563
O17   O     O_R   0.499376 0.782300 0.525397 -0.798898
H30   H     H_    0.525475 0.721941 0.546043 0.328285
O18   O     O_3   0.519656 0.926351 0.612496 -0.571133
C71   C     C_3   0.486006 0.999062 0.630284 -0.303169
H31   H     H_    0.432102 0.034925 0.600653 0.147981
H32   H     H_    0.567388 0.069133 0.646482 0.160389
H33   H     H_    0.427236 0.948476 0.660225 0.213294
O19   O     O_3   0.139838 0.292214 0.590065 -0.568547
C72   C     C_3   0.165139 0.258906 0.641346 -0.380041
H34   H     H_    0.085342 0.241314 0.659833 0.201519
H35   H     H_    0.245878 0.327033 0.658994 0.161165
H36   H     H_    0.176891 0.178447 0.647800 0.172969
C73   C     C_2   0.835610 0.685896 0.394137 0.964581
O20   O     O_2   0.797976 0.642265 0.356166 -0.592738
O21   O     O_R   0.947967 0.780039 0.397988 -0.779262
H37   H     H_    0.992641 0.801685 0.367814 0.325215
C74   C     C_2   0.669393 0.282505 0.869550 0.929831
O22   O     O_2   0.611144 0.182441 0.885855 -0.583972
O23   O     O_R   0.620059 0.334960 0.827510 -0.734375
H38   H     H_    0.536928 0.280637 0.813281 0.337120
O24   O     O_3   0.670475 0.777787 0.387184 -0.550203
C75   C     C_3   0.722163 0.879862 0.407908 -0.248763
H39   H     H_    0.816188 0.897469 0.426742 0.162603
H40   H     H_    0.663699 0.878032 0.434176 0.176988
H41   H     H_    0.728980 0.951591 0.377502 0.199214
O25   O     O_3   0.024606 0.314162 0.381427 -0.560589
C76   C     C_3   0.906762 0.231229 0.391200 -0.212468
H42   H     H_    0.853456 0.191106 0.357726 0.189425
H43   H     H_    0.855468 0.267781 0.405015 0.110521
H44   H     H_    0.916054 0.162984 0.420611 0.169976
C77   C     C_2   0.061019 0.312059 0.283003 0.944595
O26   O     O_2   0.115576 0.334105 0.247147 -0.570267
O27   O     O_R   0.033786 0.206620 0.313354 -0.706434
H45   H     H_    0.063077 0.156703 0.301625 0.358257
C78   C     C_2   0.746849 0.191746 0.133187 0.937130
O28   O     O_2   0.639083 0.147099 0.116791 -0.577511
O29   O     O_R   0.793011 0.136923 0.175382 -0.705864
H46   H     H_    0.727783 0.062297 0.189660 0.351197

loop_
_geom_bond_atom_site_label_1
_geom_bond_atom_site_label_2
_ccdc_geom_bond_type
C10   C27   A    
C58   C62   A    
C56   O3    S    
C21   C26   A    
C8    C66   A    
C57   N4    A    
C75   H41   S    
C52   C73   S    
C41   C42   A    
C54   C55   A    
C68   H24   S    
C76   H44   S    
C62   H15   S    
C54   H16   S    
C64   O13   S    
C48   C70   S    
C23   O9    A    
C53   C54   A    
C70   O16   D    
C35   H7    S    
C34   O10   A    
C7    C56   A    
C28   C29   A    
C76   H43   S    
C18   C19   A    
C5    C6    A    
C9    C22   A    
C66   H1    S    
C67   H21   S    
C75   H39   S    
C69   H27   S    
C53   O24   S    
C21   C77   S    
Cu2   O5    S    
C12   O7    A    
Cu1   O6    S    
O14   C68   S    
C31   H2    S    
O25   C76   S    
C44   C46   A    
C16   C17   A    
C71   H33   S    
Cu2   O11   S    
C45   N1    A    
C43   C48   A    
C12   O6    A    
C16   C20   A    
C23   O8    A    
C59   C60   A    
C5    C45   A    
C21   C22   A    
C27   C30   A    
C41   C43   A    
C47   H12   S    
C4    C7    A    
C4    C28   A    
C70   O17   S    
C32   H3    S    
O17   H30   S    
C38   C39   A    
C40   O18   S    
C7    C31   A    
C15   C16   A    
Cu1   Cu2   S    
C51   C63   A    
C24   C25   A    
C14   H18   S    
C10   C14   A    
C1    O5    A    
C39   C40   A    
O21   H37   S    
C73   O21   S    
C38   H10   S    
C58   C59   A    
C23   C37   S    
C20   N2    A    
C60   C61   A    
C39   H11   S    
C6    C74   S    
C72   H35   S    
C43   C44   A    
C45   O12   S    
C37   C49   A    
C60   H13   S    
Cu2   O9    S    
C8    C12   S    
C62   N3    A    
Cu1   N3    S    
C17   C18   A    
C15   C78   S    
C49   H8    S    
C68   H25   S    
O23   H38   S    
C37   C48   A    
C51   H14   S    
O27   H45   S    
C61   H17   S    
Cu1   O8    S    
C42   C50   A    
C38   C50   A    
C33   H5    S    
C40   C41   A    
C6    C30   A    
C77   O27   S    
C11   C32   A    
C55   C57   A    
C71   H31   S    
C31   C35   A    
C36   C44   A    
C72   H36   S    
C51   C59   A    
C52   C53   A    
C24   H4    S    
C65   H20   S    
Cu1   O1    S    
O19   C72   S    
C1    C50   S    
C75   H40   S    
C20   O2    S    
C46   C47   A    
C56   N1    A    
C14   C15   A    
C4    C5    A    
C2    C66   A    
C10   C13   A    
C9    C24   A    
C57   C61   A    
C73   O20   D    
C74   O23   S    
C26   N2    S    
O13   C67   S    
C29   C35   A    
C34   O11   A    
C69   H29   S    
C13   C17   A    
C3    N1    S    
C25   H6    S    
C32   C33   A    
C46   O14   S    
C2    C3    A    
C25   C26   A    
Cu2   O7    S    
C19   N2    A    
C64   C65   A    
C11   C13   A    
O29   H46   S    
C67   H22   S    
C78   O29   S    
Cu2   N4    S    
C69   H28   S    
C9    C34   S    
C72   H34   S    
C68   H26   S    
C42   C47   A    
C63   O19   S    
C3    C64   A    
C18   C33   A    
C52   N4    A    
C74   O22   D    
C36   C49   A    
C8    C65   A    
C78   O28   D    
C22   O25   S    
C11   C29   A    
C1    O1    A    
C55   C58   A    
C63   N3    A    
C27   C28   A    
C71   H32   S    
C2    H9    S    
O24   C75   S    
C77   O26   D    
C30   H19   S    
C36   O15   S    
C76   H42   S    
C19   O4    S    
O15   C69   S    
Cu1   O10   S    
O18   C71   S    
C67   H23   S    
