data_mof_unit_39383.cif
_audit_creation_date              2012-12-10T17:32:14-0500
_audit_creation_method            fapswitch 2.2
_symmetry_space_group_name_H-M    P1
_symmetry_Int_Tables_number       1
_space_group_crystal_system       triclinic
_cell_length_a                    12.306066
_cell_length_b                    13.189365
_cell_length_c                    15.098395
_cell_angle_alpha                 77.053533
_cell_angle_beta                  101.735723
_cell_angle_gamma                 116.628504
_cell_volume                      2120.02011511

loop_
_atom_site_label
_atom_site_type_symbol
_atom_type_description
_atom_site_fract_x
_atom_site_fract_y
_atom_site_fract_z
_atom_type_partial_charge
C1    C     C_R   0.854841 0.286547 0.507629 0.781486
C2    C     C_R   0.092975 0.482192 0.112974 0.012773
C3    C     C_R   0.829723 0.554148 0.008841 -0.255211
C4    C     C_R   0.828508 0.555953 0.915609 0.175488
C5    C     C_R   0.916946 0.531901 0.887465 0.096698
C6    C     C_R   0.006564 0.509345 0.953492 -0.045820
C7    C     C_R   0.097170 0.488093 0.926749 -0.052881
C8    C     C_R   0.182885 0.462362 0.993334 -0.277389
C9    C     C_R   0.182620 0.460963 0.085872 0.463919
C10   C     C_R   0.917615 0.528339 0.795555 -0.336446
C11   C     C_R   0.006941 0.507229 0.768413 -0.181651
C12   C     C_R   0.001747 0.501996 0.671321 0.827264
C13   C     C_R   0.100719 0.492214 0.833827 0.472510
C14   C     C_R   0.272389 0.023438 0.377809 0.497289
C15   C     C_R   0.227709 0.834926 0.467034 -0.118403
C16   C     C_R   0.816236 0.084130 0.564163 -0.181348
C17   C     C_R   0.737834 0.968672 0.580034 -0.151023
C18   C     C_R   0.614155 0.931446 0.547764 -0.186445
C19   C     C_R   0.566596 0.009487 0.495503 0.110015
C20   C     C_R   0.649799 0.124623 0.469994 0.087580
C21   C     C_R   0.439425 0.976803 0.467037 0.013417
C22   C     C_R   0.398511 0.055452 0.406360 0.053334
C23   C     C_R   0.145122 0.713580 0.486472 0.817348
C24   C     C_R   0.484304 0.163650 0.373183 -0.201036
C25   C     C_R   0.607805 0.196921 0.403164 -0.218617
C26   C     C_R   0.351485 0.868516 0.498577 -0.266854
C27   C     C_R   0.187551 0.913257 0.409127 -0.278952
C28   C     C_R   0.773136 0.163587 0.511268 -0.103229
C29   C     C_R   0.347260 0.327398 0.645744 -0.306629
C30   C     C_R   0.758541 0.645258 0.375416 0.074803
C31   C     C_R   0.661113 0.676314 0.347957 -0.271292
C32   C     C_R   0.557868 0.621311 0.394529 -0.198583
C33   C     C_R   0.550658 0.533816 0.469621 0.003923
C34   C     C_R   0.000211 0.500382 0.328828 0.806057
C35   C     C_R   0.652850 0.504629 0.495073 0.288930
C36   C     C_R   0.446532 0.474369 0.520404 -0.030621
C37   C     C_R   0.446566 0.386570 0.594341 0.173791
C38   C     C_R   0.545952 0.358532 0.617129 -0.285906
C39   C     C_R   0.647119 0.417008 0.569461 -0.184257
C40   C     C_R   0.341586 0.497740 0.501599 0.020362
C41   C     C_R   0.247518 0.354836 0.623969 0.105931
C42   C     C_R   0.089540 0.479344 0.205279 -0.210293
C43   C     C_R   0.001163 0.501784 0.232136 -0.093514
C44   C     C_R   0.914733 0.526637 0.166476 -0.237838
C45   C     C_R   0.916229 0.529332 0.073980 0.101389
C46   C     C_R   0.005390 0.507162 0.046711 0.019319
Cu1   Cu    Cu3+1 0.098270 0.475420 0.521130 0.951354
Cu2   Cu    Cu3+1 0.901730 0.524580 0.478870 0.917627
H1    H     H_    0.156233 0.460267 0.256466 0.204268
H2    H     H_    0.456445 0.223420 0.323531 0.194037
H3    H     H_    0.376630 0.807594 0.548016 0.155464
H4    H     H_    0.910500 0.111524 0.595069 0.154201
H5    H     H_    0.559137 0.840594 0.563153 0.126314
H6    H     H_    0.772416 0.907905 0.620052 0.140188
H7    H     H_    0.669687 0.279125 0.370989 0.178182
H8    H     H_    0.170514 0.309421 0.663310 0.139561
H9    H     H_    0.546303 0.291159 0.673455 0.151855
H10   H     H_    0.346977 0.260474 0.702589 0.142403
H11   H     H_    0.846193 0.544111 0.187192 0.151022
H12   H     H_    0.333491 0.562729 0.446521 0.122783
H13   H     H_    0.838262 0.688521 0.338863 0.121667
H14   H     H_    0.485184 0.648711 0.370202 0.133891
H15   H     H_    0.665599 0.743262 0.290303 0.142751
H16   H     H_    0.719043 0.390315 0.593901 0.208166
H17   H     H_    0.761855 0.571332 0.030927 0.136096
H18   H     H_    0.848042 0.541022 0.744013 0.195252
H19   H     H_    0.250527 0.442376 0.974275 0.199899
H20   H     H_    0.091070 0.888072 0.385656 0.164378
N1    N     N_R   0.246280 0.438190 0.553160 -0.184584
N2    N     N_R   0.754320 0.561190 0.447410 -0.206868
O1    O     O_R   0.972510 0.318130 0.526570 -0.578613
O2    O     O_R   0.806530 0.359650 0.490890 -0.605606
O3    O     O_R   0.082980 0.479210 0.647590 -0.533003
O4    O     O_R   0.917000 0.520730 0.611900 -0.611644
O5    O     O_R   0.193470 0.640350 0.509110 -0.595365
O6    O     O_R   0.027490 0.681870 0.473430 -0.586532
O7    O     O_R   0.083000 0.479270 0.388100 -0.586571
O8    O     O_R   0.917020 0.520790 0.352410 -0.600057
O9    O     O_3   0.231716 0.101594 0.322643 -0.569692
C47   C     C_3   0.200869 0.076358 0.232466 -0.314703
H21   H     H_    0.279903 0.077681 0.206268 0.149387
H22   H     H_    0.175705 0.143406 0.187406 0.220634
H23   H     H_    0.120347 0.992342 0.227685 0.148715
C48   C     C_3   0.731789 0.584079 0.849284 -0.423231
C49   C     C_3   0.622086 0.475044 0.824334 -0.819654
H24   H     H_    0.651137 0.421970 0.795607 0.252936
H25   H     H_    0.576298 0.423626 0.886061 0.252740
H26   H     H_    0.555318 0.498128 0.772693 0.245673
H27   H     H_    0.698429 0.632278 0.880281 0.193935
H28   H     H_    0.770563 0.641929 0.786883 0.194593
O10   O     O_3   0.192173 0.474937 0.807903 -0.576075
C50   C     C_3   0.293039 0.582195 0.792081 -0.311712
H29   H     H_    0.267511 0.642658 0.737424 0.160290
H30   H     H_    0.364723 0.568740 0.768597 0.187424
H31   H     H_    0.333496 0.621298 0.855833 0.142310
O11   O     O_3   0.264741 0.430549 0.150187 -0.572408
C51   C     C_3   0.377622 0.527891 0.156046 -0.348349
H32   H     H_    0.442180 0.504435 0.209801 0.206963
H33   H     H_    0.367679 0.599186 0.176336 0.153629
H34   H     H_    0.418642 0.557094 0.090572 0.154693

loop_
_geom_bond_atom_site_label_1
_geom_bond_atom_site_label_2
_ccdc_geom_bond_type
C16   C28   A    
C21   C26   A    
C40   H12   S    
C12   O4    A    
Cu2   O6    S    
C19   C20   A    
C23   O6    A    
C51   H32   S    
C7    C8    A    
C45   C46   A    
C2    C46   A    
C39   H16   S    
C1    O1    A    
C10   H18   S    
C36   C37   A    
C19   C21   A    
C34   O7    A    
C30   C31   A    
C20   C25   A    
C44   H11   S    
C33   C36   A    
C18   C19   A    
Cu2   O8    S    
Cu1   N1    S    
C27   H20   S    
C18   H5    S    
C30   N2    A    
Cu1   Cu2   S    
C35   N2    A    
C8    C9    A    
C1    C28   S    
C14   C27   A    
C15   C23   S    
C21   C22   A    
C13   O10   S    
C3    H17   S    
C48   H28   S    
Cu2   O2    S    
C47   H23   S    
C51   H33   S    
C49   H25   S    
C24   H2    S    
C38   C39   A    
C1    O2    A    
C40   N1    A    
Cu2   O4    S    
C36   C40   A    
C24   C25   A    
Cu1   O3    S    
C16   H4    S    
C23   O5    A    
O10   C50   S    
C16   C17   A    
C15   C26   A    
C20   C28   A    
C49   H24   S    
C3    C45   A    
C50   H31   S    
C35   C39   A    
C43   C44   A    
C41   H8    S    
C37   C38   A    
C31   H15   S    
C38   H9    S    
C15   C27   A    
C31   C32   A    
C4    C48   S    
C7    C13   A    
O11   C51   S    
C50   H30   S    
C17   C18   A    
C14   O9    S    
C48   C49   S    
C9    O11   S    
Cu1   O1    S    
C47   H22   S    
C22   C24   A    
C42   C43   A    
Cu1   O7    S    
C3    C4    A    
C51   H34   S    
C44   C45   A    
C41   N1    A    
C49   H26   S    
C6    C46   A    
C29   C41   A    
C34   C43   S    
C25   H7    S    
Cu2   N2    S    
C47   H21   S    
C11   C12   S    
C6    C7    A    
C32   C33   A    
C14   C22   A    
Cu1   O5    S    
C5    C10   A    
C26   H3    S    
C34   O8    A    
C11   C13   A    
C5    C6    A    
C2    C42   A    
C50   H29   S    
C33   C35   A    
C10   C11   A    
C42   H1    S    
C32   H14   S    
O9    C47   S    
C4    C5    A    
C29   H10   S    
C8    H19   S    
C48   H27   S    
C30   H13   S    
C29   C37   A    
C12   O3    A    
C2    C9    A    
C17   H6    S    
