data_mof_unit_18615.cif
_audit_creation_date              2012-12-10T17:48:50-0500
_audit_creation_method            fapswitch 2.2
_symmetry_space_group_name_H-M    P1
_symmetry_Int_Tables_number       1
_space_group_crystal_system       triclinic
_cell_length_a                    10.733443
_cell_length_b                    14.712519
_cell_length_c                    14.6598
_cell_angle_alpha                 64.319749
_cell_angle_beta                  103.97548
_cell_angle_gamma                 103.295163
_cell_volume                      2003.70520669

loop_
_atom_site_label
_atom_site_type_symbol
_atom_type_description
_atom_site_fract_x
_atom_site_fract_y
_atom_site_fract_z
_atom_type_partial_charge
C1    C     C_R   0.478503 0.120037 0.311414 0.794865
C2    C     C_3   0.877577 0.002395 0.495901 0.164508
C3    C     C_3   0.928519 0.909171 0.588666 -0.390102
C4    C     C_3   0.961805 0.100668 0.503031 -0.376045
C5    C     C_R   0.460281 0.186810 0.201359 -0.065003
C6    C     C_R   0.508875 0.811502 0.798111 -0.148624
C7    C     C_R   0.428691 0.212822 0.022383 -0.204798
C8    C     C_R   0.443632 0.147820 0.126331 -0.201479
C9    C     C_R   0.456379 0.290305 0.170727 -0.248293
C10   C     C_R   0.426331 0.353833 0.066925 0.091221
C11   C     C_R   0.423612 0.316465 0.992294 0.158350
C12   C     C_R   0.259649 0.001303 0.497927 0.746099
C13   C     C_R   0.409183 0.456246 0.035445 0.034850
C14   C     C_R   0.436046 0.526646 0.936766 0.036701
C15   C     C_R   0.426808 0.488101 0.862067 -0.197463
C16   C     C_R   0.417234 0.383705 0.889240 -0.240328
C17   C     C_R   0.356767 0.490192 0.093880 0.144322
C18   C     C_R   0.365882 0.594947 0.065346 -0.245956
C19   C     C_R   0.418947 0.665451 0.978692 0.051835
C20   C     C_R   0.458510 0.632787 0.913847 0.069684
C21   C     C_R   0.428797 0.768848 0.955638 -0.221161
C22   C     C_R   0.469158 0.842803 0.864954 0.130132
C23   C     C_R   0.517253 0.879959 0.688828 0.784479
C24   C     C_R   0.522910 0.707711 0.831816 0.080610
C25   C     C_R   0.725422 0.300706 0.653294 -0.285500
C26   C     C_R   0.689341 0.211281 0.636236 0.355200
C27   C     C_R   0.513993 0.284136 0.507601 -0.023187
C28   C     C_R   0.549824 0.377123 0.523004 -0.029697
C29   C     C_R   0.663158 0.384818 0.592806 0.083853
C30   C     C_R   0.479783 0.462897 0.472902 0.059413
C31   C     C_R   0.533619 0.555912 0.487198 0.053870
C32   C     C_R   0.665467 0.566411 0.534275 0.119503
C33   C     C_R   0.720825 0.478342 0.596984 -0.235787
C34   C     C_R   0.739751 0.001427 0.497617 0.747503
C35   C     C_R   0.358083 0.459092 0.410220 -0.231061
C36   C     C_R   0.291238 0.543041 0.362856 -0.213924
C37   C     C_R   0.337995 0.630446 0.383019 0.165326
C38   C     C_R   0.455536 0.635331 0.450478 -0.021306
C39   C     C_R   0.265975 0.711844 0.339502 -0.330125
C40   C     C_R   0.308209 0.795141 0.366662 0.070326
C41   C     C_R   0.484769 0.716293 0.483890 0.013042
C42   C     C_3   0.037633 0.001040 0.394196 -0.382667
C43   C     C_3   0.893122 0.998637 0.395151 -0.373219
C44   C     C_3   0.070361 0.906598 0.586357 -0.373567
C45   C     C_3   0.104930 0.099378 0.506290 -0.382188
C46   C     C_3   0.121370 0.002162 0.496279 0.164230
Cu1   Cu    Cu3+1 0.465900 0.918260 0.475680 0.919541
Cu2   Cu    Cu3+1 0.534100 0.081740 0.524320 0.913067
H1    H     H_    0.048331 0.933121 0.383208 0.166041
H2    H     H_    0.952118 0.105533 0.573875 0.189706
H3    H     H_    0.130423 0.902560 0.660756 0.150407
H4    H     H_    0.410124 0.356208 0.830244 0.145915
H5    H     H_    0.328515 0.622193 0.109977 0.141431
H6    H     H_    0.422413 0.182382 0.965791 0.133049
H7    H     H_    0.482691 0.322119 0.227820 0.151805
H8    H     H_    0.070844 0.069857 0.328231 0.152056
H9    H     H_    0.398524 0.792275 0.006737 0.139466
H10   H     H_    0.816770 0.484336 0.641523 0.134917
H11   H     H_    0.253621 0.858615 0.331917 0.123589
H12   H     H_    0.198849 0.537715 0.313877 0.132507
H13   H     H_    0.806556 0.306693 0.711903 0.154701
H14   H     H_    0.432190 0.275204 0.451244 0.126908
H15   H     H_    0.855193 0.064544 0.327773 0.149119
H16   H     H_    0.311864 0.391474 0.397351 0.124140
H17   H     H_    0.835780 0.928094 0.388100 0.181272
H18   H     H_    0.076355 0.836266 0.577690 0.172445
H19   H     H_    0.868031 0.837311 0.587844 0.155773
H20   H     H_    0.161443 0.101836 0.579842 0.177312
H21   H     H_    0.142353 0.168894 0.442770 0.161244
H22   H     H_    0.928560 0.169350 0.436755 0.169140
N1    N     N_R   0.585360 0.204570 0.560800 -0.192055
N2    N     N_R   0.414550 0.795430 0.439160 -0.175023
O1    O     O_R   0.455060 0.022100 0.338110 -0.583760
O2    O     O_R   0.512640 0.160150 0.379180 -0.581415
O3    O     O_R   0.288900 0.930980 0.479450 -0.586611
O4    O     O_R   0.346480 0.069030 0.520520 -0.594470
O5    O     O_R   0.487360 0.839850 0.620820 -0.575472
O6    O     O_R   0.544940 0.977900 0.661890 -0.595205
O7    O     O_R   0.653520 0.930970 0.479480 -0.586835
O8    O     O_R   0.711100 0.069020 0.520550 -0.591618
H23   H     H_    0.922206 0.913302 0.661461 0.149845
C47   C     C_3   0.627923 0.683971 0.793801 -0.374084
C48   C     C_3   0.730940 0.630205 0.881730 -0.838564
H24   H     H_    0.770468 0.673957 0.930578 0.249623
H25   H     H_    0.690793 0.551680 0.929704 0.263651
H26   H     H_    0.811775 0.625084 0.849828 0.233433
H27   H     H_    0.588013 0.640502 0.745372 0.191961
H28   H     H_    0.681708 0.755491 0.743791 0.186247
C49   C     C_3   0.468856 0.952601 0.845966 -0.374103
C50   C     C_3   0.341250 0.989814 0.783851 -0.827592
H29   H     H_    0.325585 0.986243 0.708237 0.265365
H30   H     H_    0.259192 0.942069 0.824740 0.236478
H31   H     H_    0.344238 0.070070 0.772021 0.233483
H32   H     H_    0.483442 0.960334 0.920174 0.181179
H33   H     H_    0.551295 0.003363 0.809156 0.211570
H34   H     H_    0.446386 0.067876 0.147988 0.153298
H35   H     H_    0.417881 0.537291 0.781590 0.148309
C51   C     C_3   0.268492 0.420605 0.172529 -0.394862
C52   C     C_3   0.151476 0.362851 0.127164 -0.830774
H36   H     H_    0.084279 0.320892 0.183938 0.229362
H37   H     H_    0.098721 0.416995 0.056684 0.254533
H38   H     H_    0.181481 0.306535 0.108398 0.257709
H39   H     H_    0.319910 0.366875 0.243062 0.184399
H40   H     H_    0.228753 0.466354 0.199332 0.196091
H41   H     H_    0.557750 0.714410 0.549130 0.111138
C53   C     C_3   0.768963 0.125703 0.706237 -0.376105
C54   C     C_3   0.916018 0.160654 0.714401 -0.927663
H42   H     H_    0.942113 0.216942 0.639099 0.261462
H43   H     H_    0.950648 0.195986 0.770984 0.250501
H44   H     H_    0.967789 0.093897 0.742147 0.241277
H45   H     H_    0.745376 0.095659 0.784641 0.166736
H46   H     H_    0.748798 0.061593 0.683684 0.254243
C55   C     C_3   0.759089 0.665905 0.501075 -0.407776
C56   C     C_3   0.760069 0.711040 0.385660 -0.814332
H47   H     H_    0.840107 0.775642 0.365692 0.224857
H48   H     H_    0.775821 0.652666 0.362233 0.255456
H49   H     H_    0.667083 0.739608 0.342281 0.252691
H50   H     H_    0.740949 0.723506 0.523131 0.185940
H51   H     H_    0.859974 0.652330 0.539573 0.197236
H52   H     H_    0.177261 0.710801 0.285445 0.136255

loop_
_geom_bond_atom_site_label_1
_geom_bond_atom_site_label_2
_ccdc_geom_bond_type
C33   H10   S    
Cu2   O4    S    
C44   H18   S    
C19   C20   A    
C8    H34   S    
Cu1   O7    S    
C26   C53   S    
C4    H22   S    
C56   H47   S    
C43   H15   S    
C7    C8    A    
C53   H46   S    
C45   C46   S    
C7    C11   A    
C5    C9    A    
C41   H41   S    
C30   C35   A    
C48   H24   S    
C1    C5    S    
C1    O2    A    
C36   C37   A    
C19   C21   A    
C30   C31   A    
C51   H40   S    
C53   C54   S    
C15   C16   A    
C6    C22   A    
C29   C33   A    
C18   C19   A    
C42   C46   S    
Cu2   O6    S    
C49   H32   S    
C24   C47   S    
C18   H5    S    
C42   H8    S    
C55   H51   S    
C31   C32   A    
C51   H39   S    
C3    H23   S    
C54   H42   S    
C35   H16   S    
C9    H7    S    
C32   C55   S    
C17   C51   S    
C4    C45   S    
C34   O8    A    
C2    C34   S    
C40   H11   S    
C21   C22   A    
C26   N1    A    
C54   H43   S    
C15   H35   S    
C44   C46   S    
C53   H45   S    
C25   C29   A    
C3    C44   S    
C45   H21   S    
Cu2   O2    S    
Cu1   O1    S    
C38   C41   A    
C12   C46   S    
C39   C40   A    
C25   C26   A    
C4    H2    S    
C35   C36   A    
C49   H33   S    
C2    C4    S    
C21   H9    S    
C37   C38   A    
C27   H14   S    
C14   C20   A    
C34   O7    A    
C11   C16   A    
C50   H30   S    
Cu1   Cu2   S    
C2    C43   S    
C43   H17   S    
C6    C24   A    
C48   H26   S    
C45   H20   S    
C17   C18   A    
C25   H13   S    
C23   O5    A    
C41   N2    A    
C44   H3    S    
C48   H25   S    
C47   C48   S    
C12   O4    A    
C54   H44   S    
C47   H27   S    
C42   C43   S    
Cu1   O5    S    
Cu2   N1    S    
C27   N1    A    
C50   H31   S    
C55   C56   S    
C9    C10   A    
C28   C29   A    
C40   N2    A    
C52   H37   S    
C3    H19   S    
C16   H4    S    
C36   H12   S    
C10   C13   A    
C5    C8    A    
C56   H48   S    
C31   C38   A    
C13   C17   A    
C1    O1    A    
C32   C33   A    
Cu2   O8    S    
C28   C30   A    
C2    C3    S    
Cu1   O3    S    
C37   C39   A    
C52   H36   S    
C50   H29   S    
C47   H28   S    
C6    C23   S    
C22   C49   S    
C23   O6    A    
Cu1   N2    S    
C56   H49   S    
C10   C11   A    
C42   H1    S    
C55   H50   S    
C52   H38   S    
C51   C52   S    
C12   O3    A    
C27   C28   A    
C14   C15   A    
C7    H6    S    
C49   C50   S    
C13   C14   A    
C20   C24   A    
C39   H52   S    
