data_mof_unit_8059.cif
_audit_creation_date              2012-12-10T19:42:58-0500
_audit_creation_method            fapswitch 2.2
_symmetry_space_group_name_H-M    P1
_symmetry_Int_Tables_number       1
_space_group_crystal_system       triclinic
_cell_length_a                    10.824191
_cell_length_b                    12.992093
_cell_length_c                    11.738243
_cell_angle_alpha                 99.273475
_cell_angle_beta                  93.274259
_cell_angle_gamma                 92.249313
_cell_volume                      1624.53457848

loop_
_atom_site_label
_atom_site_type_symbol
_atom_type_description
_atom_site_fract_x
_atom_site_fract_y
_atom_site_fract_z
_atom_type_partial_charge
C1    C     C_R   0.498332 0.299323 0.478966 0.801194
C2    C     C_R   0.501669 0.700677 0.521034 0.801192
C3    C     C_R   0.871340 0.493952 0.499635 -0.077823
C4    C     C_R   0.128660 0.506047 0.500364 -0.077824
C5    C     C_R   0.943150 0.465234 0.593224 0.003464
C6    C     C_R   0.056849 0.534765 0.406775 0.003465
C7    C     C_R   0.501524 0.813971 0.533142 -0.053303
C8    C     C_R   0.498479 0.186028 0.466858 -0.053304
C9    C     C_R   0.502455 0.016766 0.345942 -0.216441
C10   C     C_R   0.497550 0.983234 0.654057 -0.216441
C11   C     C_R   0.500987 0.124758 0.356978 -0.197408
C12   C     C_R   0.499016 0.875242 0.643022 -0.197408
C13   C     C_R   0.496740 0.138599 0.565638 -0.274664
C14   C     C_R   0.503265 0.861401 0.434361 -0.274663
C15   C     C_R   0.498541 0.030692 0.555354 0.172621
C16   C     C_R   0.501465 0.969308 0.444645 0.172622
C17   C     C_R   0.403611 0.385525 0.023955 -0.306072
C18   C     C_R   0.596389 0.614475 0.976045 -0.306074
C19   C     C_R   0.409820 0.398742 0.145167 -0.004649
C20   C     C_R   0.590179 0.601258 0.854833 -0.004651
C21   C     C_R   0.538569 0.552922 0.155333 0.551749
C22   C     C_R   0.461431 0.447078 0.844667 0.551751
C23   C     C_R   0.262598 0.503273 0.500511 0.788762
C24   C     C_R   0.737402 0.496727 0.499489 0.788763
C25   C     C_R   0.533515 0.542582 0.033212 -0.018595
C26   C     C_R   0.466485 0.457418 0.966788 -0.018595
C27   C     C_R   0.238530 0.704442 0.234236 -0.099901
C28   C     C_R   0.761475 0.295547 0.765760 -0.099901
C29   C     C_R   0.184583 0.668677 0.326983 -0.097659
C30   C     C_R   0.815422 0.331316 0.673014 -0.097669
C31   C     C_R   0.111428 0.574962 0.308418 0.129895
C32   C     C_R   0.888572 0.425033 0.691580 0.129893
C33   C     C_R   0.091317 0.518777 0.195655 -0.151317
C34   C     C_R   0.908675 0.481218 0.804343 -0.151311
C35   C     C_R   0.145750 0.554731 0.103282 -0.145948
C36   C     C_R   0.854241 0.445261 0.896716 -0.145946
C37   C     C_R   0.219630 0.647283 0.122620 -0.111295
C38   C     C_R   0.780368 0.352706 0.877377 -0.111296
C39   C     C_R   0.928758 0.527172 0.407303 -0.244284
C40   C     C_R   0.071242 0.472827 0.592696 -0.244283
Cu1   Cu    Cu3+1 0.509250 0.507730 0.615930 0.944005
Cu2   Cu    Cu3+1 0.490750 0.492270 0.384070 0.944004
H1    H     H_    0.262216 0.674696 0.051112 0.125925
H2    H     H_    0.737781 0.325291 0.948884 0.125924
H3    H     H_    0.638790 0.657238 0.812465 0.146138
H4    H     H_    0.361210 0.342762 0.187535 0.146139
H5    H     H_    0.349552 0.319133 0.975714 0.195695
H6    H     H_    0.650448 0.680867 0.024286 0.195696
H7    H     H_    0.295111 0.776414 0.248847 0.123353
H8    H     H_    0.704899 0.223573 0.751149 0.123352
H9    H     H_    0.200654 0.713255 0.413216 0.105374
H10   H     H_    0.799357 0.286737 0.586781 0.105377
H11   H     H_    0.035113 0.446463 0.179692 0.123516
H12   H     H_    0.964873 0.553534 0.820307 0.123515
H13   H     H_    0.131254 0.510540 0.016799 0.135928
H14   H     H_    0.868732 0.489451 0.983199 0.135928
H15   H     H_    0.873732 0.550877 0.336688 0.155606
H16   H     H_    0.126268 0.449122 0.663311 0.155606
H17   H     H_    0.506239 0.814631 0.349398 0.186841
H18   H     H_    0.493768 0.185369 0.650600 0.186842
H19   H     H_    0.497680 0.839828 0.720424 0.156234
H20   H     H_    0.502322 0.160172 0.279575 0.156234
H21   H     H_    0.504533 0.970525 0.260591 0.138423
H22   H     H_    0.495472 0.029475 0.739408 0.138423
N1    N     N_R   0.523180 0.519350 0.790130 -0.212869
N2    N     N_R   0.476820 0.480650 0.209870 -0.212869
O1    O     O_R   0.506570 0.354460 0.582000 -0.572096
O2    O     O_R   0.493430 0.645540 0.418000 -0.572098
O3    O     O_R   0.490940 0.341410 0.386200 -0.598098
O4    O     O_R   0.509060 0.658590 0.613800 -0.598098
O5    O     O_R   0.327460 0.506540 0.597900 -0.616582
O6    O     O_R   0.672540 0.493460 0.402100 -0.616583
O7    O     O_R   0.311830 0.493480 0.402100 -0.566560
O8    O     O_R   0.688170 0.506520 0.597900 -0.566559
O9    O     O_3   0.393903 0.362247 0.783150 -0.776091
H23   H     H_    0.352536 0.384326 0.715265 0.356936
O10   O     O_3   0.606097 0.637753 0.216850 -0.776093
H24   H     H_    0.647464 0.615674 0.284735 0.356937

loop_
_geom_bond_atom_site_label_1
_geom_bond_atom_site_label_2
_ccdc_geom_bond_type
C8    C13   A    
C21   N2    A    
C27   C29   A    
C1    C8    S    
Cu1   Cu2   S    
C2    C7    S    
C11   H20   S    
C19   H4    S    
Cu1   O1    S    
C13   H18   S    
O10   H24   S    
C14   H17   S    
C17   C26   A    
C35   C37   A    
C9    C16   A    
C2    O2    A    
C10   C15   A    
C15   C16   A    
C39   H15   S    
C19   N2    A    
C30   H10   S    
C17   C19   A    
Cu1   O8    S    
C28   H8    S    
C7    C14   A    
C4    C40   A    
C31   C33   A    
C34   C36   A    
C20   H3    S    
Cu1   O5    S    
C5    C32   S    
C6    C31   S    
C3    C39   A    
Cu2   O2    S    
C3    C24   S    
C18   C25   A    
C22   O9    S    
C23   O7    A    
C33   H11   S    
C7    C12   A    
C40   H16   S    
C35   H13   S    
C23   O5    A    
C20   N1    A    
C4    C6    A    
C4    C23   S    
Cu1   N1    S    
C25   C26   A    
Cu2   O3    S    
C1    O3    A    
C32   C34   A    
C37   H1    S    
O9    H23   S    
C22   N1    A    
C38   H2    S    
C36   H14   S    
C28   C38   A    
Cu2   O6    S    
C9    C11   A    
C10   C12   A    
C34   H12   S    
C13   C15   A    
C14   C16   A    
C24   O6    A    
C29   H9    S    
C21   C25   A    
Cu2   O7    S    
C9    H21   S    
C10   H22   S    
C17   H5    S    
C3    C5    A    
C18   H6    S    
C1    O1    A    
C28   C30   A    
C29   C31   A    
C30   C32   A    
C12   H19   S    
C24   O8    A    
C27   C37   A    
C8    C11   A    
C36   C38   A    
C33   C35   A    
C18   C20   A    
C22   C26   A    
C5    C40   A    
C21   O10   S    
Cu2   N2    S    
C6    C39   A    
C2    O4    A    
C27   H7    S    
Cu1   O4    S    
