data_mof_unit_47806.cif
_audit_creation_date              2012-12-10T19:10:32-0500
_audit_creation_method            fapswitch 2.2
_symmetry_space_group_name_H-M    P1
_symmetry_Int_Tables_number       1
_space_group_crystal_system       triclinic
_cell_length_a                    10.618046
_cell_length_b                    9.696024
_cell_length_c                    15.717006
_cell_angle_alpha                 90.184798
_cell_angle_beta                  89.581233
_cell_angle_gamma                 90.005926
_cell_volume                      1618.05858828

loop_
_atom_site_label
_atom_site_type_symbol
_atom_type_description
_atom_site_fract_x
_atom_site_fract_y
_atom_site_fract_z
_atom_type_partial_charge
C1    C     C_R   0.257644 0.500271 0.499099 0.835532
C2    C     C_3   0.614120 0.536965 0.951708 -0.410679
C3    C     C_3   0.611033 0.541429 0.049567 -0.460289
C4    C     C_1   0.486339 0.500248 0.826116 -0.111192
C5    C     C_1   0.489392 0.495300 0.174679 -0.139193
C6    C     C_1   0.496345 0.498414 0.249721 -0.217803
C7    C     C_3   0.071711 0.651903 0.494675 -0.399508
C8    C     C_3   0.071467 0.431787 0.580594 -0.407656
C9    C     C_3   0.928779 0.651946 0.495092 -0.402747
C10   C     C_3   0.927073 0.431295 0.580413 -0.405989
C11   C     C_3   0.073406 0.421225 0.419491 -0.409443
C12   C     C_3   0.121409 0.501247 0.498413 0.198593
C13   C     C_3   0.878954 0.501283 0.498393 0.199700
C14   C     C_R   0.500946 0.499722 0.338252 0.918850
C15   C     C_3   0.928779 0.421856 0.419255 -0.407200
C16   C     C_3   0.414500 0.081019 0.432240 -0.231046
C17   C     C_3   0.414593 0.918335 0.432187 -0.232505
C18   C     C_3   0.627268 0.081163 0.480846 -0.234397
C19   C     C_3   0.627298 0.918708 0.480963 -0.233955
C20   C     C_3   0.457130 0.081578 0.581252 -0.231709
C21   C     C_3   0.456977 0.919211 0.581217 -0.232260
C22   C     C_R   0.742638 0.500283 0.499045 0.833938
C23   C     C_R   0.498866 0.500217 0.661880 0.919726
C24   C     C_3   0.380386 0.598887 0.050390 -0.120146
C25   C     C_3   0.459800 0.341988 0.047314 -0.127156
C26   C     C_3   0.445844 0.352427 0.949068 -0.440776
C27   C     C_3   0.384689 0.603876 0.951426 -0.443627
C28   C     C_1   0.492155 0.500641 0.750785 -0.222586
C29   C     C_3   0.480246 0.492161 0.083533 0.280069
C30   C     C_3   0.482490 0.498462 0.917639 0.340045
H1    H     H_    0.291547 0.584674 0.922107 0.160430
H2    H     H_    0.347656 0.329131 0.929439 0.167796
H3    H     H_    0.894509 0.704801 0.436823 0.163326
H4    H     H_    0.892672 0.322969 0.584153 0.167639
H5    H     H_    0.109878 0.469545 0.360059 0.162444
H6    H     H_    0.107614 0.312692 0.420437 0.166201
H7    H     H_    0.894538 0.471490 0.359975 0.150942
H8    H     H_    0.893761 0.313609 0.419500 0.167964
H9    H     H_    0.443526 0.118775 0.368295 0.157704
H10   H     H_    0.443841 0.880148 0.368241 0.152166
H11   H     H_    0.316953 0.119351 0.443133 0.140253
H12   H     H_    0.317061 0.879960 0.442943 0.139799
H13   H     H_    0.662677 0.119452 0.418442 0.141665
H14   H     H_    0.662973 0.879534 0.418683 0.141370
H15   H     H_    0.519739 0.119191 0.632780 0.149464
H16   H     H_    0.519327 0.881859 0.632812 0.149183
H17   H     H_    0.361059 0.120555 0.596686 0.140799
H18   H     H_    0.360774 0.880573 0.596474 0.140297
H19   H     H_    0.694369 0.119240 0.529614 0.142693
H20   H     H_    0.694202 0.881437 0.529923 0.141814
H21   H     H_    0.550312 0.286704 0.058343 0.132717
H22   H     H_    0.413925 0.702522 0.071381 0.121931
H23   H     H_    0.507500 0.273795 0.918007 0.149215
H24   H     H_    0.412379 0.709449 0.930639 0.154094
H25   H     H_    0.631065 0.648545 0.071517 0.176615
H26   H     H_    0.688219 0.475440 0.074600 0.169428
H27   H     H_    0.644073 0.639325 0.926786 0.169727
H28   H     H_    0.684952 0.459640 0.929863 0.169136
H29   H     H_    0.106592 0.703848 0.435913 0.161810
H30   H     H_    0.106344 0.323744 0.584907 0.168780
H31   H     H_    0.105699 0.712399 0.550365 0.168732
H32   H     H_    0.105807 0.488432 0.637639 0.152157
H33   H     H_    0.894313 0.711594 0.551320 0.167080
H34   H     H_    0.890892 0.487040 0.637619 0.151888
N1    N     N_3   0.499750 0.138610 0.498180 -0.031130
N2    N     N_3   0.499750 0.861390 0.498180 -0.029851
O1    O     O_R   0.314910 0.616040 0.499980 -0.635815
O2    O     O_R   0.314910 0.383960 0.499980 -0.634371
O3    O     O_R   0.500120 0.616090 0.377110 -0.623672
O4    O     O_R   0.500120 0.383910 0.377110 -0.620220
O5    O     O_R   0.685320 0.616040 0.499960 -0.637163
O6    O     O_R   0.685320 0.383960 0.499960 -0.635993
O7    O     O_R   0.500110 0.615990 0.622830 -0.622728
O8    O     O_R   0.500110 0.384010 0.622830 -0.622830
Zn1   Zn    Zn3+2 0.500150 0.654960 0.499960 0.896852
Zn2   Zn    Zn3+2 0.500150 0.345040 0.499960 0.898786
C31   C     C_R   0.247862 0.584000 0.088024 0.123885
C32   C     C_R   0.155496 0.497512 0.051824 -0.125082
C33   C     C_R   0.035940 0.486264 0.089140 -0.142142
C34   C     C_R   0.006731 0.560333 0.162974 -0.121114
C35   C     C_R   0.096947 0.646111 0.199674 -0.160435
C36   C     C_R   0.216422 0.658228 0.162516 -0.197495
H35   H     H_    0.175692 0.435607 0.996189 0.121494
H36   H     H_    0.966152 0.418944 0.061130 0.121159
H37   H     H_    0.914315 0.550860 0.191907 0.114909
H38   H     H_    0.074456 0.703068 0.257161 0.118649
H39   H     H_    0.285070 0.724777 0.192537 0.129280
C37   C     C_R   0.361634 0.243098 0.086270 0.120495
C38   C     C_R   0.284647 0.273265 0.157779 -0.103593
C39   C     C_R   0.201344 0.174956 0.190702 -0.166010
C40   C     C_R   0.193650 0.044359 0.153832 -0.123513
C41   C     C_R   0.269929 0.011372 0.084182 -0.141973
C42   C     C_R   0.353813 0.108960 0.051306 -0.184853
H40   H     H_    0.285317 0.371714 0.189076 0.151507
H41   H     H_    0.142473 0.200420 0.245066 0.123777
H42   H     H_    0.128858 0.968665 0.179403 0.127154
H43   H     H_    0.264439 0.909907 0.055602 0.132476
H44   H     H_    0.413304 0.079250 0.998091 0.117709

loop_
_geom_bond_atom_site_label_1
_geom_bond_atom_site_label_2
_ccdc_geom_bond_type
C24   H22   S    
C26   H2    S    
C21   N2    S    
C14   O4    A    
C24   C27   S    
O6    Zn2   S    
C35   C36   A    
C27   H24   S    
C39   H41   S    
C31   C32   A    
C18   N1    S    
C17   N2    S    
N1    Zn2   S    
O8    Zn2   S    
C11   H6    S    
C5    C6    T    
C36   H39   S    
C1    O2    A    
C19   N2    S    
C18   C19   S    
C7    H29   S    
C38   H40   S    
C3    C29   S    
C9    C13   S    
C24   C29   S    
C15   H7    S    
C40   H42   S    
C17   H12   S    
C3    H25   S    
C32   H35   S    
C7    H31   S    
C16   C17   S    
C20   H15   S    
C21   H18   S    
C27   C30   S    
C9    H3    S    
O7    Zn1   S    
C1    C12   S    
C11   C15   S    
C23   O7    A    
C22   O6    A    
C4    C28   T    
C41   H43   S    
C5    C29   S    
C25   C29   S    
C7    C12   S    
C2    H27   S    
C27   H1    S    
C20   N1    S    
C40   C41   A    
C32   C33   A    
C25   C26   S    
C25   C37   S    
C17   H10   S    
C25   H21   S    
C15   H8    S    
C34   H37   S    
C6    C14   S    
C3    H26   S    
C8    C12   S    
C10   H4    S    
C23   C28   S    
C20   C21   S    
C26   C30   S    
C13   C15   S    
O4    Zn2   S    
C14   O3    A    
O1    Zn1   S    
C23   O8    A    
C26   H23   S    
C22   O5    A    
C19   H14   S    
C21   H16   S    
C7    C9    S    
C37   C42   A    
C9    H33   S    
C10   H34   S    
C35   H38   S    
C34   C35   A    
C10   C13   S    
C11   C12   S    
C2    H28   S    
O2    Zn2   S    
C2    C30   S    
C11   H5    S    
C2    C3    S    
C18   H13   S    
C8    H30   S    
O5    Zn1   S    
C19   H20   S    
C39   C40   A    
C33   H36   S    
C31   C36   A    
N2    Zn1   S    
C16   H11   S    
C41   C42   A    
C1    O1    A    
C13   C22   S    
O3    Zn1   S    
C20   H17   S    
C16   H9    S    
C33   C34   A    
C24   C31   S    
C37   C38   A    
C8    C10   S    
C16   N1    S    
C38   C39   A    
C42   H44   S    
C4    C30   S    
C18   H19   S    
C8    H32   S    
