data_mof_unit_37001.cif
_audit_creation_date              2012-12-11T15:20:42-0500
_audit_creation_method            fapswitch 2.2
_symmetry_space_group_name_H-M    P1
_symmetry_Int_Tables_number       1
_space_group_crystal_system       triclinic
_cell_length_a                    12.945591
_cell_length_b                    13.024494
_cell_length_c                    15.319272
_cell_angle_alpha                 116.930532
_cell_angle_beta                  63.941172
_cell_angle_gamma                 97.069557
_cell_volume                      2059.46243421

loop_
_atom_site_label
_atom_site_type_symbol
_atom_type_description
_atom_site_fract_x
_atom_site_fract_y
_atom_site_fract_z
_atom_type_partial_charge
C1    C     C_R   0.000313 0.833387 0.055032 -0.113502
C2    C     C_R   0.297427 0.596924 0.792071 0.304657
C3    C     C_R   0.259510 0.414372 0.045812 -0.151055
C4    C     C_R   0.678410 0.472891 0.218417 -0.218186
C5    C     C_R   0.059534 0.280038 0.685480 -0.194378
C6    C     C_R   0.362256 0.430094 0.971268 0.149277
C7    C     C_R   0.045474 0.168753 0.674741 -0.006867
C8    C     C_R   0.293792 0.566111 0.695243 0.009621
C9    C     C_R   0.003966 0.154821 0.050132 0.047786
C10   C     C_R   0.152906 0.980757 0.378299 -0.167018
C11   C     C_R   0.138810 0.075919 0.473870 -0.171336
C12   C     C_R   0.669441 0.545085 0.321144 -0.140775
C13   C     C_R   0.094741 0.065122 0.570654 0.157449
C14   C     C_R   0.089764 0.954552 0.565468 -0.166569
C15   C     C_R   0.100509 0.859013 0.469941 -0.193006
C16   C     C_R   0.755520 0.518363 0.892162 -0.163733
C17   C     C_R   0.120498 0.874753 0.379330 0.151693
C18   C     C_R   0.586293 0.513445 0.480618 -0.138348
C19   C     C_R   0.494797 0.521982 0.573959 -0.198175
C20   C     C_R   0.387247 0.569040 0.602434 0.170384
C21   C     C_R   0.369641 0.606751 0.537487 -0.194292
C22   C     C_R   0.463098 0.600264 0.443803 -0.188296
C23   C     C_R   0.663053 0.456799 0.923441 0.156307
C24   C     C_R   0.571070 0.555020 0.417198 0.165302
C25   C     C_2   0.476769 0.387564 0.941769 -0.197581
C26   C     C_2   0.569312 0.432693 0.891646 -0.201147
C27   C     C_2   0.831950 0.958510 0.092965 -0.214485
C28   C     C_R   0.023978 0.698271 0.299324 -0.069744
C29   C     C_2   0.820255 0.043138 0.189204 -0.147585
C30   C     C_R   0.677055 0.420338 0.988894 -0.113752
C31   C     C_R   0.099853 0.798178 0.205117 -0.147210
C32   C     C_R   0.780254 0.562677 0.314194 0.600535
C33   C     C_R   0.900051 0.748297 0.957543 -0.145306
C34   C     C_R   0.083546 0.793198 0.297896 0.004166
C35   C     C_R   0.912006 0.853222 0.034206 0.134453
C36   C     C_3   0.884735 0.090484 0.796897 -1.091567
C37   C     C_3   0.357956 0.696133 0.841961 -1.072537
C38   C     C_3   0.758564 0.729443 0.466767 -0.289613
C39   C     C_R   0.338223 0.511899 0.947596 -0.131993
C40   C     C_R   0.966731 0.177917 0.777221 0.340306
C41   C     C_R   0.198543 0.507994 0.694812 -0.214065
C42   C     C_R   0.050649 0.257254 0.090506 -0.131722
C43   C     C_R   0.947541 0.173722 0.999106 -0.103221
H1    H     H_    0.029592 0.895475 0.113412 0.094732
H2    H     H_    0.609019 0.436467 0.196065 0.136409
H3    H     H_    0.083342 0.775896 0.470536 0.111272
H4    H     H_    0.668813 0.473521 0.457481 0.149380
H5    H     H_    0.507025 0.488357 0.622203 0.122205
H6    H     H_    0.284858 0.640625 0.559365 0.120729
H7    H     H_    0.451855 0.629946 0.392632 0.129230
H8    H     H_    0.480662 0.341120 0.983851 0.124442
H9    H     H_    0.567065 0.474813 0.845547 0.124641
H10   H     H_    0.776022 0.965248 0.059492 0.137226
H11   H     H_    0.870937 0.040780 0.229009 0.128590
H12   H     H_    0.164629 0.483242 0.635614 0.114081
H13   H     H_    0.778155 0.546511 0.830048 0.097012
H14   H     H_    0.013292 0.658389 0.350694 0.141129
H15   H     H_    0.631455 0.356851 0.015100 0.082174
H16   H     H_    0.157580 0.849969 0.169197 0.092722
H17   H     H_    0.835807 0.731798 0.926884 0.103848
H18   H     H_    0.397652 0.546101 0.894327 0.118524
H19   H     H_    0.857439 0.047235 0.730204 0.262964
H20   H     H_    0.925814 0.024084 0.800961 0.243004
H21   H     H_    0.805664 0.133988 0.873643 0.252379
H22   H     H_    0.451402 0.669241 0.805357 0.246638
H23   H     H_    0.087741 0.278432 0.146805 0.093378
H24   H     H_    0.347584 0.769406 0.827223 0.261991
H25   H     H_    0.320244 0.726733 0.931154 0.253444
H26   H     H_    0.666872 0.731569 0.521947 0.166138
H27   H     H_    0.765819 0.776536 0.419320 0.140538
H28   H     H_    0.803623 0.777186 0.518734 0.175334
H29   H     H_    0.885738 0.118901 0.976147 0.115264
H30   H     H_    0.249281 0.359946 0.084597 0.094921
H31   H     H_    0.111209 0.307148 0.623801 0.117089
H32   H     H_    0.175036 0.994995 0.308177 0.106862
H33   H     H_    0.151897 0.158272 0.471683 0.109175
H34   H     H_    0.069635 0.942041 0.635948 0.131270
N1    N     N_R   0.037310 0.720000 0.995790 -0.042586
N2    N     N_R   0.824890 0.517960 0.936420 -0.039963
N3    N     N_R   0.003210 0.648190 0.211380 -0.046081
N4    N     N_R   0.774330 0.457010 0.995840 -0.042094
N5    N     N_R   0.053760 0.709140 0.151960 -0.044710
N6    N     N_R   0.853860 0.498840 0.211410 -0.093490
N7    N     N_R   0.974240 0.667310 0.936390 -0.040418
N8    N     N_R   0.225670 0.542990 0.004160 -0.044752
N9    N     N_R   0.946240 0.290860 0.848040 -0.054983
N10   N     N_R   0.146140 0.501160 0.788590 -0.047348
N11   N     N_R   0.025760 0.332690 0.063610 -0.043107
N12   N     N_R   0.962690 0.280000 0.004210 -0.043617
N13   N     N_R   0.209210 0.553840 0.847990 -0.054195
N14   N     N_R   0.175110 0.482040 0.063580 -0.042978
N15   N     N_R   0.996790 0.351810 0.788620 -0.049421
N16   N     N_R   0.790790 0.446160 0.152010 -0.067011
Ni1   Ni    Ni4+2 0.130310 0.630310 0.999970 0.203809
Ni2   Ni    Ni4+2 0.869690 0.369690 0.000030 0.201853
Ni3   Ni    Ni4+2 0.985640 0.509470 0.863740 0.206490
Ni4   Ni    Ni4+2 0.014360 0.490530 0.136260 0.221896
O1    O     O_3   0.811561 0.614895 0.399104 -0.650897

loop_
_geom_bond_atom_site_label_1
_geom_bond_atom_site_label_2
_ccdc_geom_bond_type
C38   H27   S    
C43   H29   S    
N5    Ni1   S    
N3    Ni4   S    
C27   C29   D    
C36   H21   S    
C19   C20   A    
C38   O1    S    
C3    C6    A    
C18   H4    S    
C16   H13   S    
N8    N14   A    
C28   H14   S    
C9    C42   A    
C43   N12   A    
C31   N5    A    
C18   C24   A    
C11   H33   S    
N4    Ni2   S    
C14   H34   S    
C6    C25   S    
C29   H11   S    
C10   C17   A    
C31   H16   S    
N6    N16   A    
C37   H25   S    
C30   H15   S    
N15   Ni3   S    
C41   N10   A    
C3    N14   A    
C18   C19   A    
N7    Ni3   S    
C23   C26   S    
C40   N9    A    
C5    H31   S    
C2    N13   A    
C41   H12   S    
C3    H30   S    
C37   H22   S    
C7    C40   A    
C4    C12   A    
C36   H20   S    
N11   Ni4   S    
C22   H7    S    
N11   N12   A    
C38   H26   S    
C28   C34   A    
N16   Ni2   S    
C13   C14   A    
C12   C32   A    
C1    N1    A    
C36   H19   S    
C21   H6    S    
N13   Ni1   S    
C4    H2    S    
C39   H18   S    
C9    C43   A    
C23   C30   A    
C36   C40   S    
C8    C41   A    
N3    N5    A    
N9    Ni2   S    
N2    N4    A    
C19   H5    S    
C27   C35   S    
C25   C26   D    
N12   Ni2   S    
C25   H8    S    
C26   H9    S    
N8    Ni1   S    
C1    H1    S    
N10   Ni3   S    
C31   C34   A    
C8    C20   S    
N14   Ni4   S    
C16   C23   A    
C22   C24   A    
C42   N11   A    
C17   C34   S    
C39   N8    A    
C1    C35   A    
C5    C7    A    
C15   C17   A    
C32   N6    A    
C38   H28   S    
C14   C15   A    
C2    C8    A    
C27   H10   S    
C33   H17   S    
C12   C24   S    
C16   N2    A    
C30   N4    A    
N2    Ni3   S    
N9    N15   A    
C11   C13   A    
C2    C37   S    
N1    Ni1   S    
C37   H24   S    
C33   C35   A    
C32   O1    S    
C28   N3    A    
C33   N7    A    
C5    N15   A    
C10   C11   A    
C4    N16   A    
N1    N7    A    
C7    C13   S    
C20   C21   A    
N6    Ni4   S    
N10   N13   A    
C42   H23   S    
C6    C39   A    
C15   H3    S    
C21   C22   A    
C10   H32   S    
