data_mof_unit_26846.cif
_audit_creation_date              2012-12-10T19:07:35-0500
_audit_creation_method            fapswitch 2.2
_symmetry_space_group_name_H-M    P1
_symmetry_Int_Tables_number       1
_space_group_crystal_system       triclinic
_cell_length_a                    10.8884
_cell_length_b                    10.861243
_cell_length_c                    9.551539
_cell_angle_alpha                 89.234765
_cell_angle_beta                  90.82388
_cell_angle_gamma                 91.214014
_cell_volume                      1129.11334567

loop_
_atom_site_label
_atom_site_type_symbol
_atom_type_description
_atom_site_fract_x
_atom_site_fract_y
_atom_site_fract_z
_atom_type_partial_charge
C1    C     C_R   0.495798 0.262180 0.500340 0.792888
C2    C     C_R   0.941174 0.555419 0.610719 0.094062
C3    C     C_3   0.934069 0.540492 0.766055 -0.549623
C4    C     C_3   0.073147 0.520740 0.767332 0.101056
C5    C     C_R   0.431218 0.058078 0.603994 0.049589
C6    C     C_R   0.485458 0.128529 0.496646 -0.109411
C7    C     C_R   0.522828 0.066805 0.375737 -0.199808
C8    C     C_R   0.524750 0.938229 0.374097 -0.208422
C9    C     C_R   0.492121 0.870147 0.494412 -0.085912
C10   C     C_R   0.440659 0.932092 0.604498 0.102170
C11   C     C_3   0.458540 0.922241 0.758558 -0.442109
C12   C     C_R   0.262547 0.499389 0.499079 0.796289
C13   C     C_3   0.438476 0.060850 0.760947 -0.061708
C14   C     C_R   0.537182 0.602700 0.073260 0.298354
C15   C     C_R   0.452814 0.403285 0.075081 -0.044672
C16   C     C_R   0.454543 0.402789 0.926663 -0.075061
C17   C     C_R   0.537358 0.602598 0.925399 0.303204
C18   C     C_3   0.663597 0.657127 0.924086 -0.541927
C19   C     C_3   0.661493 0.661432 0.081968 -0.518859
C20   C     C_R   0.500521 0.737503 0.498861 0.807229
C21   C     C_R   0.737772 0.503078 0.500281 0.802138
C22   C     C_R   0.066415 0.544835 0.612318 0.128781
C23   C     C_R   0.130013 0.506948 0.495726 -0.120181
C24   C     C_R   0.062314 0.484822 0.371703 -0.194407
C25   C     C_R   0.933731 0.486077 0.372841 -0.212955
C26   C     C_R   0.871206 0.513057 0.497004 -0.090969
Cu1   Cu    Cu3+1 0.499990 0.499980 0.640670 0.947212
Cu2   Cu    Cu3+1 0.500010 0.500020 0.359330 0.953857
H1    H     H_    0.107729 0.460047 0.276238 0.176549
H2    H     H_    0.554188 0.899085 0.787564 0.167962
H3    H     H_    0.518454 0.115687 0.801590 0.165683
H4    H     H_    0.415469 0.324447 0.131175 0.135205
H5    H     H_    0.421542 0.323055 0.872115 0.138778
H6    H     H_    0.727293 0.588452 0.886089 0.216274
H7    H     H_    0.670045 0.748930 0.872831 0.197853
H8    H     H_    0.730940 0.601516 0.133007 0.220212
H9    H     H_    0.659033 0.756630 0.122617 0.191835
H10   H     H_    0.883872 0.460411 0.278371 0.159575
H11   H     H_    0.909721 0.629044 0.814202 0.199915
H12   H     H_    0.876733 0.460000 0.799838 0.202588
H13   H     H_    0.556701 0.117372 0.285183 0.157901
H14   H     H_    0.558348 0.893181 0.282283 0.152530
H15   H     H_    0.386486 0.863637 0.808878 0.210297
N1    N     N_R   0.500790 0.500930 0.147930 -0.189585
N2    N     N_R   0.500790 0.500890 0.852020 -0.187546
O1    O     O_R   0.500000 0.319640 0.618810 -0.597128
O2    O     O_R   0.500010 0.319680 0.381230 -0.593882
O3    O     O_R   0.319650 0.499970 0.618810 -0.585743
O4    O     O_R   0.319660 0.500010 0.381230 -0.569381
O5    O     O_R   0.499990 0.680320 0.618770 -0.577907
O6    O     O_R   0.500000 0.680360 0.381190 -0.582407
O7    O     O_R   0.680340 0.499990 0.618770 -0.581787
O8    O     O_R   0.680350 0.500030 0.381190 -0.591868
C27   C     C_3   0.314071 0.091877 0.824257 -0.372965
C28   C     C_3   0.317510 0.080140 0.983736 -0.852878
H16   H     H_    0.322216 0.981783 0.016205 0.260987
H17   H     H_    0.398796 0.130030 0.027777 0.237426
H18   H     H_    0.232987 0.119295 0.027248 0.244686
H19   H     H_    0.290351 0.186548 0.792484 0.202921
H20   H     H_    0.239496 0.030426 0.782493 0.223735
C29   C     C_2   0.143980 0.621645 0.844303 0.837220
O9    O     O_2   0.213066 0.596083 0.942063 -0.623970
O10   O     O_R   0.128663 0.744877 0.804479 -0.781721
H21   H     H_    0.177143 0.803875 0.866487 0.321984
C30   C     C_3   0.107588 0.387820 0.814104 -0.370202
C31   C     C_3   0.054989 0.283399 0.722562 -0.858241
H22   H     H_    0.955447 0.293023 0.700714 0.259883
H23   H     H_    0.104405 0.280118 0.621979 0.248226
H24   H     H_    0.067196 0.193930 0.777859 0.240591
H25   H     H_    0.208816 0.380653 0.816944 0.219675
H26   H     H_    0.075566 0.372214 0.923052 0.205911

loop_
_geom_bond_atom_site_label_1
_geom_bond_atom_site_label_2
_ccdc_geom_bond_type
Cu1   O3    S    
C2    C22   A    
C31   H23   S    
C23   C24   A    
Cu2   O2    S    
C11   H15   S    
C6    C7    A    
C25   H10   S    
C4    C22   S    
C18   H7    S    
C1    C6    S    
C9    C20   S    
C5    C13   S    
C27   H19   S    
C14   C17   A    
Cu1   O5    S    
C12   O3    A    
Cu1   N2    S    
C28   H16   S    
C28   H17   S    
C12   O4    A    
C4    C30   S    
C3    H11   S    
C5    C10   A    
C2    C26   A    
C30   H26   S    
C27   H20   S    
C24   C25   A    
Cu2   O8    S    
C21   O8    A    
C11   C13   S    
C12   C23   S    
C5    C6    A    
C18   H6    S    
C15   C16   A    
C14   C19   S    
Cu1   O1    S    
C21   C26   S    
C17   N2    A    
C3    H12   S    
C18   C19   S    
C20   O6    A    
C2    C3    S    
C19   H8    S    
C7    H13   S    
C17   C18   S    
C29   O9    D    
C16   H5    S    
Cu2   O6    S    
C1    O1    A    
C31   H24   S    
C7    C8    A    
C10   C11   S    
C16   N2    A    
O10   H21   S    
C21   O7    A    
C15   H4    S    
C31   H22   S    
Cu1   O7    S    
Cu2   N1    S    
C14   N1    A    
C13   C27   S    
C9    C10   A    
C28   H18   S    
Cu1   Cu2   S    
C29   O10   S    
C15   N1    A    
C27   C28   S    
C1    O2    A    
C20   O5    A    
C19   H9    S    
C25   C26   A    
C24   H1    S    
C4    C29   S    
C13   H3    S    
C22   C23   A    
C3    C4    S    
C30   H25   S    
C11   H2    S    
C8    H14   S    
C8    C9    A    
Cu2   O4    S    
C30   C31   S    
