data_mof_unit_63395.cif
_audit_creation_date              2012-12-10T18:34:40-0500
_audit_creation_method            fapswitch 2.2
_symmetry_space_group_name_H-M    P1
_symmetry_Int_Tables_number       1
_space_group_crystal_system       triclinic
_cell_length_a                    12.944695
_cell_length_b                    15.135159
_cell_length_c                    13.940136
_cell_angle_alpha                 90.045798
_cell_angle_beta                  96.945647
_cell_angle_gamma                 91.261834
_cell_volume                      2710.43468186

loop_
_atom_site_label
_atom_site_type_symbol
_atom_type_description
_atom_site_fract_x
_atom_site_fract_y
_atom_site_fract_z
_atom_type_partial_charge
C1    C     C_R   0.500312 0.330377 0.500206 0.852172
C2    C     C_R   0.499605 0.669626 0.499781 0.852230
C3    C     C_R   0.501618 0.234314 0.502381 -0.108838
C4    C     C_R   0.498234 0.765694 0.497642 -0.108640
C5    C     C_R   0.581236 0.189645 0.464394 0.125365
C6    C     C_R   0.418936 0.810312 0.536184 0.126056
C7    C     C_R   0.583450 0.098185 0.469525 -0.150834
C8    C     C_R   0.416727 0.901774 0.531263 -0.150554
C9    C     C_R   0.505180 0.049116 0.508482 0.022783
C10   C     C_R   0.494718 0.950921 0.491993 0.022379
C11   C     C_R   0.575965 0.548872 0.117550 -0.245630
C12   C     C_R   0.441252 0.436261 0.884362 -0.245498
C13   C     C_R   0.572565 0.549364 0.218218 0.088356
C14   C     C_R   0.440777 0.439126 0.783250 0.081024
C15   C     C_R   0.428903 0.449267 0.199763 0.378283
C16   C     C_R   0.561299 0.559247 0.799132 0.378594
C17   C     C_R   0.427341 0.450498 0.099127 -0.256123
C18   C     C_R   0.559851 0.560628 0.899421 -0.256233
C19   C     C_R   0.501609 0.499496 0.054861 0.110192
C20   C     C_R   0.500649 0.498573 0.945376 0.109063
C21   C     C_R   0.300609 0.502787 0.481346 0.832896
C22   C     C_R   0.699398 0.497298 0.518663 0.832217
C23   C     C_R   0.812264 0.491387 0.529860 -0.080693
C24   C     C_R   0.187745 0.508725 0.470152 -0.080443
C25   C     C_R   0.025954 0.568753 0.394885 -0.190030
C26   C     C_R   0.974061 0.431383 0.605140 -0.189475
C27   C     C_R   0.133350 0.561005 0.397734 0.170525
C28   C     C_R   0.866689 0.439238 0.602386 0.169432
C29   C     C_R   0.134124 0.465433 0.538486 -0.252094
C30   C     C_R   0.865861 0.534579 0.461438 -0.253608
C31   C     C_R   0.027216 0.474028 0.536147 0.132382
C32   C     C_R   0.972776 0.526011 0.463798 0.133176
C33   C     C_R   0.442546 0.095890 0.567472 0.120989
C34   C     C_R   0.557015 0.904249 0.432591 0.119845
C35   C     C_R   0.431673 0.187577 0.554873 0.117004
C36   C     C_R   0.567850 0.812513 0.444861 0.118830
Cu1   Cu    Cu3+1 0.500000 0.499990 0.596430 1.016844
Cu2   Cu    Cu3+1 0.500000 0.500010 0.403570 1.017925
H1    H     H_    0.823911 0.574575 0.405702 0.151362
H2    H     H_    0.176063 0.425382 0.594178 0.154304
H3    H     H_    0.366987 0.412146 0.056913 0.155328
H4    H     H_    0.606252 0.611094 0.940045 0.157058
H5    H     H_    0.984328 0.609447 0.339797 0.162376
H6    H     H_    0.015704 0.390757 0.660284 0.163003
H7    H     H_    0.649228 0.066288 0.445376 0.189596
H8    H     H_    0.351078 0.933577 0.555733 0.189764
H9    H     H_    0.637991 0.586715 0.090919 0.147724
H10   H     H_    0.395632 0.384254 0.912856 0.151340
H11   H     H_    0.629497 0.588533 0.264140 0.144011
H12   H     H_    0.393831 0.391395 0.738391 0.153602
N1    N     N_R   0.500000 0.500020 0.258690 -0.194224
N2    N     N_R   0.500000 0.499980 0.741310 -0.194858
O1    O     O_R   0.500010 0.371450 0.581430 -0.561073
O2    O     O_R   0.499990 0.628550 0.418570 -0.555219
O3    O     O_R   0.500010 0.371460 0.418560 -0.554611
O4    O     O_R   0.499990 0.628540 0.581440 -0.555986
O5    O     O_R   0.349000 0.499980 0.568210 -0.586184
O6    O     O_R   0.651000 0.500020 0.431790 -0.591018
O7    O     O_R   0.349000 0.499990 0.405340 -0.550931
O8    O     O_R   0.651000 0.500010 0.594660 -0.549486
I1    I     I_    0.318400 0.360194 0.250039 -0.275768
I2    I     I_    0.668892 0.650892 0.748552 -0.274653
I3    I     I_    0.793572 0.363436 0.704675 -0.263069
I4    I     I_    0.206570 0.637308 0.295924 -0.263433
I5    I     I_    0.411529 0.045805 0.705808 -0.280136
I6    I     I_    0.587964 0.954895 0.294460 -0.277217
N3    N     N_3   0.353465 0.234559 0.598476 -0.559025
H13   H     H_    0.310367 0.270293 0.543885 0.201548
H14   H     H_    0.299180 0.190384 0.622494 0.247982
N4    N     N_3   0.645715 0.765579 0.400714 -0.551689
H15   H     H_    0.689047 0.729700 0.455028 0.200212
H16   H     H_    0.699902 0.809767 0.376567 0.247433
I7    I     I_    0.704172 0.255482 0.402795 -0.269460
I8    I     I_    0.296378 0.744419 0.598294 -0.268470

loop_
_geom_bond_atom_site_label_1
_geom_bond_atom_site_label_2
_ccdc_geom_bond_type
C4    C36   A    
C11   H9    S    
C19   C20   S    
C24   C27   A    
C12   H10   S    
C34   I6    S    
C33   I5    S    
C11   C19   A    
C7    H7    S    
C21   O7    A    
C18   H4    S    
C22   O8    A    
C15   C17   A    
C1    O1    A    
C24   C29   A    
C17   C19   A    
Cu2   O6    S    
Cu1   O4    S    
C27   I4    S    
C14   N2    A    
Cu2   O3    S    
N4    H15   S    
C15   N1    A    
C9    C10   S    
C18   C20   A    
Cu1   O1    S    
C25   C32   A    
C26   C31   A    
C13   N1    A    
C9    C33   A    
C25   H5    S    
C16   I2    S    
C36   N4    S    
C6    I8    S    
C8    H8    S    
C26   H6    S    
N3    H13   S    
C23   C30   A    
C4    C6    A    
C2    O2    A    
C5    C7    A    
Cu1   N2    S    
C6    C8    A    
Cu2   N1    S    
N3    H14   S    
C2    C4    S    
C21   O5    A    
Cu1   Cu2   S    
C31   C32   A    
Cu2   O2    S    
C3    C35   A    
C12   C20   A    
C15   I1    S    
C10   C34   A    
C23   C28   A    
C13   H11   S    
C8    C10   A    
C12   C14   A    
C7    C9    A    
C16   N2    A    
C3    C5    A    
C22   O6    A    
C25   C27   A    
C26   C28   A    
C1    O3    A    
C29   C31   A    
C2    O4    A    
C30   C32   A    
C11   C13   A    
C14   H12   S    
C29   H2    S    
C33   C35   A    
C30   H1    S    
C34   C36   A    
C5    I7    S    
C17   H3    S    
Cu1   O8    S    
C35   N3    S    
Cu2   O7    S    
C28   I3    S    
C16   C18   A    
C21   C24   S    
C22   C23   S    
N4    H16   S    
C1    C3    S    
Cu1   O5    S    
