data_mof_unit_47773.cif
_audit_creation_date              2012-10-26T19:09:34-0400
_audit_creation_method            fapswitch 2.2
_symmetry_space_group_name_H-M    P1
_symmetry_Int_Tables_number       1
_space_group_crystal_system       triclinic
_cell_length_a                    10.956456
_cell_length_b                    9.62184
_cell_length_c                    19.457046
_cell_angle_alpha                 89.997222
_cell_angle_beta                  93.842505
_cell_angle_gamma                 90.003218
_cell_volume                      2046.57541924

loop_
_atom_site_label
_atom_site_type_symbol
_atom_type_description
_atom_site_fract_x
_atom_site_fract_y
_atom_site_fract_z
_atom_type_partial_charge
C1    C     C_R   0.262576 0.500031 0.502208 0.582189
C2    C     C_R   0.064104 0.627904 0.500393 0.200916
C3    C     C_R   0.871420 0.500710 0.495146 -0.024737
C4    C     C_R   0.128585 0.500694 0.504875 -0.024691
C5    C     C_R   0.406367 0.073367 0.466776 0.390103
C6    C     C_R   0.592577 0.926765 0.534253 0.433372
C7    C     C_R   0.593631 0.073376 0.533226 0.390304
C8    C     C_R   0.407420 0.926756 0.465750 0.433425
C9    C     C_R   0.558894 0.626356 0.257459 0.146971
C10   C     C_R   0.483212 0.377667 0.749022 0.213628
C11   C     C_R   0.441580 0.626264 0.742618 0.146783
C12   C     C_R   0.737426 0.500038 0.497799 0.582050
C13   C     C_R   0.517366 0.377711 0.250984 0.213753
C14   C     C_R   0.545866 0.633543 0.185302 -0.103222
C15   C     C_R   0.497960 0.388963 0.820565 -0.085215
C16   C     C_R   0.455095 0.633466 0.814766 -0.103303
C17   C     C_R   0.503255 0.388997 0.179424 -0.085121
C18   C     C_R   0.515346 0.515929 0.146013 -0.052009
C19   C     C_R   0.486102 0.515904 0.854015 -0.051985
C20   C     C_R   0.530233 0.500508 0.292053 -0.008737
C21   C     C_R   0.470078 0.500453 0.707973 -0.008584
C22   C     C_R   0.494741 0.519848 0.930099 0.360379
C23   C     C_R   0.507388 0.519843 0.069947 0.360240
C24   C     C_R   0.511013 0.499819 0.367908 0.564187
C25   C     C_R   0.489037 0.499807 0.632096 0.564185
C26   C     C_R   0.062933 0.374220 0.506195 0.234244
C27   C     C_R   0.935920 0.627909 0.499697 0.200975
C28   C     C_R   0.937051 0.374237 0.493764 0.234224
Cu1   Cu    Cu3+1 0.500000 0.640660 0.500000 1.129112
Cu2   Cu    Cu3+1 0.500000 0.359340 0.500000 1.055135
H1    H     H_    0.563956 0.730391 0.159517 0.198306
H2    H     H_    0.369653 0.103544 0.630770 0.395957
H3    H     H_    0.549117 0.873013 0.707599 0.370611
H4    H     H_    0.629962 0.103431 0.369380 0.395899
H5    H     H_    0.337792 0.225871 0.413809 0.384909
H6    H     H_    0.656287 0.774439 0.589821 0.365983
H7    H     H_    0.662191 0.225864 0.586211 0.384826
H8    H     H_    0.343712 0.774446 0.410174 0.366113
H9    H     H_    0.515465 0.295785 0.850790 0.199288
H10   H     H_    0.437137 0.730320 0.840569 0.198413
H11   H     H_    0.485937 0.295854 0.149145 0.199215
H12   H     H_    0.174110 0.256789 0.559240 0.366909
H13   H     H_    0.922532 0.818351 0.531704 0.383285
H14   H     H_    0.825844 0.256942 0.440660 0.366976
H15   H     H_    0.077577 0.818318 0.468393 0.383249
H16   H     H_    0.451096 0.873324 0.292200 0.370880
N1    N     N_R   0.500000 0.852070 0.500000 -0.298077
N2    N     N_R   0.500000 0.147930 0.500000 -0.344578
N3    N     N_R   0.505598 0.398958 0.034174 -0.194282
N4    N     N_R   0.496440 0.641624 0.965643 -0.188668
N5    N     N_R   0.499469 0.398964 0.965909 -0.194655
N6    N     N_R   0.503000 0.641628 0.034383 -0.188583
O1    O     O_R   0.319640 0.618740 0.500000 -0.432153
O2    O     O_3   0.872941 0.751802 0.502697 -0.587967
O3    O     O_3   0.880982 0.247384 0.482877 -0.547201
O4    O     O_3   0.127098 0.751799 0.497453 -0.588050
O5    O     O_2   0.712496 0.726167 0.359539 -0.199002
O6    O     O_2   0.699268 0.855439 0.251489 -0.195976
O7    O     O_3   0.517227 0.873190 0.329484 -0.491529
O8    O     O_2   0.588359 0.156080 0.696114 -0.269614
O9    O     O_2   0.427091 0.111910 0.773585 -0.212813
O10   O     O_3   0.360428 0.197063 0.650956 -0.486335
O11   O     O_2   0.287448 0.725860 0.640735 -0.199053
O12   O     O_R   0.680360 0.381260 0.500000 -0.513396
O13   O     O_2   0.301011 0.855118 0.748793 -0.195842
O14   O     O_3   0.482633 0.873208 0.670515 -0.491216
O15   O     O_2   0.411551 0.156508 0.303860 -0.269628
O16   O     O_2   0.572869 0.111741 0.226512 -0.213078
O17   O     O_3   0.639501 0.196865 0.349147 -0.486239
O18   O     O_3   0.308998 0.137069 0.431507 -0.551450
O19   O     O_3   0.686002 0.863708 0.573291 -0.583068
O20   O     O_3   0.691000 0.137091 0.568492 -0.551467
O21   O     O_3   0.313989 0.863689 0.426720 -0.583013
O22   O     O_R   0.680360 0.618740 0.500000 -0.432101
O23   O     O_R   0.319640 0.381260 0.500000 -0.513416
O24   O     O_R   0.499980 0.618820 0.400140 -0.492362
O25   O     O_R   0.500020 0.381180 0.599860 -0.477660
O26   O     O_R   0.500020 0.618820 0.599860 -0.492552
O27   O     O_R   0.499980 0.381180 0.400140 -0.477636
O28   O     O_3   0.118981 0.247339 0.517012 -0.547251
S1    S     S_3+6 0.627304 0.772385 0.300208 0.071385
S2    S     S_3+6 0.466719 0.205512 0.717373 0.063834
S3    S     S_3+6 0.372831 0.772203 0.699958 0.071571
S4    S     S_3+6 0.533356 0.205538 0.282667 0.063731

loop_
_geom_bond_atom_site_label_1
_geom_bond_atom_site_label_2
_ccdc_geom_bond_type
H12   O28   S    
Cu2   O12   S    
H16   O7    S    
C14   C18   A    
C14   H1    S    
C27   O2    S    
Cu1   O24   S    
C15   C19   A    
C13   S4    S    
Cu1   Cu2   S    
Cu1   N1    S    
C25   O25   A    
Cu2   N2    S    
C3    C28   A    
C12   O22   A    
O9    S2    D    
C12   O12   A    
O13   S3    D    
C1    O1    A    
C3    C12   S    
C24   O27   A    
O14   S3    S    
Cu2   O25   S    
O8    S2    D    
Cu1   O26   S    
C20   C24   S    
H15   O4    S    
N3    N5    A    
N4    N6    A    
C2    C27   A    
H6    O19   S    
C22   N4    A    
O10   S2    S    
O15   S4    D    
C28   O3    S    
H3    O14   S    
C10   C21   A    
C6    O19   S    
C5    N2    A    
C6    N1    A    
C9    C20   A    
C18   C23   S    
C1    O23   A    
C19   C22   S    
H5    O18   S    
O6    S1    D    
C7    O20   S    
C24   O24   A    
Cu1   O22   S    
C11   S3    S    
C10   S2    S    
C26   O28   S    
C25   O26   A    
O11   S3    D    
O16   S4    D    
C2    C4    A    
C9    C14   A    
C5    O18   S    
C11   C16   A    
H13   O2    S    
C17   C18   A    
H4    O17   S    
C15   H9    S    
C16   H10   S    
Cu2   O27   S    
O5    S1    D    
C21   C25   S    
C13   C20   A    
O7    S1    S    
C5    C8    A    
C4    C26   A    
C6    C7    A    
C26   C28   A    
C13   C17   A    
C10   C15   A    
C1    C4    S    
C7    N2    A    
C3    C27   A    
C8    N1    A    
H2    O10   S    
O17   S4    S    
C2    O4    S    
Cu2   O23   S    
H14   O3    S    
C23   N6    A    
Cu1   O1    S    
C16   C19   A    
C8    O21   S    
C11   C21   A    
C17   H11   S    
C23   N3    A    
H7    O20   S    
C9    S1    S    
C22   N5    A    
H8    O21   S    
