data_mof_unit_45340.cif
_audit_creation_date              2012-10-26T21:12:36-0400
_audit_creation_method            fapswitch 2.2
_symmetry_space_group_name_H-M    P1
_symmetry_Int_Tables_number       1
_space_group_crystal_system       triclinic
_cell_length_a                    23.491604
_cell_length_b                    10.759521
_cell_length_c                    9.638572
_cell_angle_alpha                 90.599425
_cell_angle_beta                  90.691755
_cell_angle_gamma                 93.481156
_cell_volume                      2431.40463497

loop_
_atom_site_label
_atom_site_type_symbol
_atom_type_description
_atom_site_fract_x
_atom_site_fract_y
_atom_site_fract_z
_atom_type_partial_charge
C1    C     C_R   0.498289 0.262674 0.499459 0.557703
C2    C     C_R   0.123562 0.611132 0.548396 0.451450
C3    C     C_R   0.240411 0.560422 0.395821 -0.077902
C4    C     C_R   0.391196 0.500179 0.499625 0.554311
C5    C     C_R   0.299621 0.558869 0.393528 -0.093125
C6    C     C_R   0.328822 0.501514 0.500406 -0.020494
C7    C     C_R   0.298238 0.447880 0.611165 -0.108074
C8    C     C_R   0.238782 0.449751 0.614986 0.315332
C9    C     C_R   0.209717 0.505699 0.505383 0.223765
C10   C     C_R   0.761077 0.505595 0.377606 -0.056598
C11   C     C_R   0.701705 0.503717 0.376588 -0.147908
C12   C     C_R   0.964502 0.297189 0.407414 -0.117125
C13   C     C_R   0.671751 0.503611 0.502029 0.001672
C14   C     C_R   0.702374 0.506429 0.628395 -0.146123
C15   C     C_R   0.761807 0.508369 0.629076 -0.055594
C16   C     C_R   0.498488 0.736986 0.500498 0.511123
C17   C     C_R   0.791343 0.507569 0.503724 0.240150
C18   C     C_R   0.405010 0.118719 0.632460 -0.108517
C19   C     C_R   0.361415 0.048931 0.697877 -0.078734
C20   C     C_R   0.361377 0.918597 0.699638 0.272339
C21   C     C_R   0.405508 0.859465 0.635352 -0.036180
C22   C     C_R   0.450482 0.928687 0.569823 -0.021132
C23   C     C_R   0.023883 0.297312 0.406458 -0.111580
C24   C     C_R   0.450208 0.059957 0.568344 0.023843
C25   C     C_R   0.494255 0.128347 0.498300 0.035119
C26   C     C_R   0.535836 0.068163 0.425948 -0.126970
C27   C     C_R   0.536125 0.940051 0.427347 -0.133741
C28   C     C_R   0.608984 0.501104 0.500684 0.527585
C29   C     C_R   0.494816 0.870431 0.501050 0.012081
C30   C     C_R   0.577728 0.663761 0.147503 -0.083671
C31   C     C_R   0.615815 0.743356 0.077149 -0.164163
C32   C     C_R   0.615656 0.743262 0.934046 -0.159774
C33   C     C_R   0.577350 0.663682 0.860295 -0.075511
C34   C     C_R   0.057401 0.402159 0.453731 0.031188
C35   C     C_R   0.538332 0.579765 0.927471 0.142086
C36   C     C_R   0.538563 0.579441 0.076786 0.121405
C37   C     C_R   0.461631 0.425579 0.067956 0.331885
C38   C     C_R   0.463363 0.425559 0.921213 0.036895
C39   C     C_R   0.884082 0.611156 0.550593 0.402113
C40   C     C_R   0.877780 0.403946 0.457424 0.403016
C41   C     C_R   0.937416 0.402007 0.455412 0.030023
C42   C     C_R   0.970617 0.507741 0.502804 -0.026718
C43   C     C_R   0.943882 0.613379 0.550963 0.029517
C44   C     C_R   0.030696 0.507818 0.502013 -0.028697
C45   C     C_R   0.063924 0.613620 0.549255 0.032909
C46   C     C_R   0.036840 0.718594 0.596747 -0.110625
C47   C     C_R   0.977435 0.718467 0.597622 -0.117532
C48   C     C_R   0.117147 0.404206 0.454421 0.447088
Cu1   Cu    Cu3+1 0.500000 0.499990 0.640660 0.929876
Cu2   Cu    Cu3+1 0.500000 0.500010 0.359340 1.028282
H1    H     H_    0.939938 0.214753 0.370423 0.173252
H2    H     H_    0.043392 0.214942 0.368908 0.177260
H3    H     H_    0.580423 0.673712 0.257105 0.175135
H4    H     H_    0.645309 0.806554 0.134434 0.127442
H5    H     H_    0.645077 0.806229 0.879468 0.133768
H6    H     H_    0.579733 0.672586 0.750861 0.182909
H7    H     H_    0.433026 0.368046 0.860033 0.149936
H8    H     H_    0.061423 0.801054 0.633606 0.181712
H9    H     H_    0.957931 0.800903 0.635000 0.173669
H10   H     H_    0.218166 0.604340 0.312271 0.158161
H11   H     H_    0.322620 0.604040 0.309435 0.182915
H12   H     H_    0.679357 0.502134 0.277587 0.134487
H13   H     H_    0.320798 0.403521 0.693937 0.148272
H14   H     H_    0.783665 0.505455 0.280332 0.134238
H15   H     H_    0.290607 0.901714 0.801602 0.355928
H16   H     H_    0.346543 0.258262 0.962546 0.368060
H17   H     H_    0.129614 0.425152 0.880523 0.371524
H18   H     H_    0.680501 0.506879 0.726654 0.134690
H19   H     H_    0.784954 0.509677 0.726969 0.135335
H20   H     H_    0.569057 0.120944 0.370904 0.129146
H21   H     H_    0.402121 0.218600 0.630369 0.135373
H22   H     H_    0.327273 0.096668 0.745640 0.142292
H23   H     H_    0.403335 0.758862 0.635352 0.164921
H24   H     H_    0.569476 0.894970 0.372893 0.111716
N1    N     N_R   0.852416 0.507513 0.504275 -0.398969
N2    N     N_R   0.148744 0.506865 0.503255 -0.380009
N3    N     N_R   0.500540 0.501210 0.147910 -0.265376
N4    N     N_R   0.500560 0.501290 0.852040 -0.278786
O1    O     O_R   0.500000 0.319640 0.618810 -0.513108
O2    O     O_R   0.582120 0.500020 0.618760 -0.520836
O3    O     O_R   0.582120 0.500050 0.381190 -0.534132
O4    O     O_2   0.857760 0.712019 0.594941 -0.492279
O5    O     O_3   0.318533 0.846310 0.761522 -0.648202
O6    O     O_2   0.407052 0.275760 0.266309 -0.220749
O7    O     O_2   0.352694 0.426469 0.142835 -0.283696
O8    O     O_3   0.379339 0.226646 0.013970 -0.535527
O9    O     O_2   0.172992 0.258981 0.709229 -0.244264
O10   O     O_2   0.242574 0.357945 0.873458 -0.269481
O11   O     O_3   0.152303 0.475235 0.812831 -0.491410
O12   O     O_2   0.845338 0.302906 0.413830 -0.490218
O13   O     O_2   0.143554 0.304618 0.406775 -0.436171
O14   O     O_2   0.156187 0.711365 0.593479 -0.441485
O15   O     O_R   0.500000 0.319660 0.381240 -0.446093
O16   O     O_R   0.417880 0.499950 0.618810 -0.524888
O17   O     O_R   0.417880 0.499980 0.381240 -0.420725
O18   O     O_R   0.500000 0.680340 0.618760 -0.527287
O19   O     O_R   0.500000 0.680360 0.381190 -0.519038
S1    S     S_3+6 0.399906 0.339043 0.130369 0.059377
S2    S     S_3+6 0.201824 0.380910 0.756350 0.054940

loop_
_geom_bond_atom_site_label_1
_geom_bond_atom_site_label_2
_ccdc_geom_bond_type
C22   C29   A    
C27   C29   A    
C41   C42   A    
C48   N2    A    
C19   C20   A    
C11   H12   S    
C7    C8    A    
C45   C46   A    
C12   C23   A    
C26   C27   A    
C37   C38   A    
O11   S2    S    
C18   C24   A    
C8    S2    S    
C18   C19   A    
C36   N3    A    
C30   C31   A    
Cu2   O17   S    
H15   O5    S    
C10   C17   A    
C38   H7    S    
C21   H23   S    
H17   O11   S    
Cu1   N4    S    
C16   O19   A    
O7    S1    D    
C35   C36   A    
C8    C9    A    
C48   O13   S    
C13   C28   S    
C9    N2    S    
C39   N1    A    
Cu1   O16   S    
C27   H24   S    
C32   H5    S    
C3    H10   S    
C33   H6    S    
C31   H4    S    
C13   C14   A    
C46   H8    S    
C1    C25   S    
C19   H22   S    
C42   C44   A    
C28   O2    A    
C37   S1    S    
O9    S2    D    
C2    C45   A    
C15   H19   S    
C30   H3    S    
C16   O18   A    
C34   C44   A    
C24   C25   A    
C4    C6    S    
C39   C43   A    
C38   N4    A    
C16   C29   S    
C37   N3    A    
Cu1   O1    S    
C12   C41   A    
C3    C9    A    
C4    O17   A    
C31   C32   A    
C23   C34   A    
C5    H11   S    
C2    O14   S    
C7    H13   S    
C4    O16   A    
C40   C41   A    
C26   H20   S    
C22   C24   A    
C34   C48   A    
C42   C43   A    
Cu2   N3    S    
C12   H1    S    
C2    N2    A    
C44   C45   A    
C18   H21   S    
C15   C17   A    
C46   C47   A    
Cu2   O19   S    
C28   O3    A    
C10   H14   S    
C39   O4    S    
C3    C5    A    
H16   O8    S    
C40   N1    A    
Cu2   O15   S    
C6    C7    A    
C35   N4    A    
Cu1   O2    S    
C30   C36   A    
O6    S1    D    
C32   C33   A    
C25   C26   A    
C11   C13   A    
C23   H2    S    
C5    C6    A    
C1    O1    A    
C33   C35   A    
Cu1   O18   S    
O8    S1    S    
O10   S2    D    
C10   C11   A    
C47   H9    S    
C20   C21   A    
C1    O15   A    
Cu1   Cu2   S    
C20   O5    S    
C17   N1    S    
C14   H18   S    
C14   C15   A    
C40   O12   S    
C21   C22   A    
C43   C47   A    
Cu2   O3    S    
