data_mof_unit_57759.cif
_audit_creation_date              2012-12-11T14:50:42-0500
_audit_creation_method            fapswitch 2.2
_symmetry_space_group_name_H-M    P1
_symmetry_Int_Tables_number       1
_space_group_crystal_system       triclinic
_cell_length_a                    10.898303
_cell_length_b                    10.975842
_cell_length_c                    18.850996
_cell_angle_alpha                 90.266858
_cell_angle_beta                  89.703486
_cell_angle_gamma                 59.948126
_cell_volume                      1951.70133844

loop_
_atom_site_label
_atom_site_type_symbol
_atom_type_description
_atom_site_fract_x
_atom_site_fract_y
_atom_site_fract_z
_atom_type_partial_charge
C1    C     C_R   0.240117 0.644827 0.610754 0.634114
C2    C     C_3   0.706227 0.561463 0.801995 -0.256712
C3    C     C_3   0.719074 0.694738 0.808135 0.061474
C4    C     C_3   0.680667 0.651539 0.674949 0.015887
C5    C     C_3   0.801688 0.688742 0.680428 -0.149294
C6    C     C_3   0.714364 0.518364 0.723654 0.006582
C7    C     C_R   0.797331 0.123548 0.703676 -0.083485
C8    C     C_R   0.810391 0.122359 0.778181 -0.010641
C9    C     C_R   0.692594 0.145159 0.820905 -0.038166
C10   C     C_R   0.563805 0.180229 0.788031 -0.169007
C11   C     C_R   0.552470 0.183841 0.715826 -0.150286
C12   C     C_R   0.655859 0.623114 0.600389 0.615911
C13   C     C_R   0.666191 0.163592 0.672773 -0.004500
C14   C     C_R   0.211665 0.543710 0.724330 -0.127081
C15   C     C_R   0.197574 0.550796 0.798136 -0.160122
C16   C     C_R   0.183946 0.668400 0.835022 0.012845
C17   C     C_R   0.198412 0.770572 0.798087 -0.095593
C18   C     C_R   0.202162 0.768771 0.724903 -0.112205
C19   C     C_R   0.207155 0.656346 0.686856 0.058779
C20   C     C_R   0.739857 0.535432 0.274513 -0.150747
C21   C     C_R   0.738338 0.547052 0.202179 -0.146600
C22   C     C_R   0.655307 0.676558 0.169881 -0.031523
C23   C     C_R   0.630483 0.222772 0.601307 0.580290
C24   C     C_R   0.566642 0.795383 0.211626 -0.058522
C25   C     C_R   0.566848 0.785595 0.285647 0.235033
C26   C     C_R   0.654588 0.652847 0.317562 0.017860
C27   C     C_R   0.531273 0.183215 0.284550 -0.109610
C28   C     C_R   0.527710 0.185419 0.211303 0.221151
C29   C     C_R   0.644811 0.174814 0.173608 0.025691
C30   C     C_R   0.753349 0.185125 0.210084 -0.054268
C31   C     C_R   0.752249 0.185829 0.283797 -0.137501
C32   C     C_R   0.641691 0.185427 0.320958 -0.028623
C33   C     C_R   0.087690 0.802883 0.304963 -0.120732
C34   C     C_R   0.219776 0.649416 0.402282 0.562124
C35   C     C_R   0.067265 0.815124 0.233054 -0.113717
C36   C     C_R   0.106054 0.695382 0.190701 0.024773
C37   C     C_R   0.151975 0.564756 0.221823 -0.132220
C38   C     C_R   0.174174 0.551775 0.294382 -0.125472
C39   C     C_R   0.149936 0.669954 0.335110 0.030914
C40   C     C_R   0.703509 0.099703 0.895032 0.517934
C41   C     C_R   0.752065 0.709427 0.882849 0.572119
C42   C     C_R   0.119545 0.705581 0.905883 0.542272
C43   C     C_R   0.672816 0.111705 0.102914 0.552371
C44   C     C_R   0.694811 0.691312 0.097824 0.548924
C45   C     C_R   0.642631 0.622968 0.392001 0.532525
C46   C     C_R   0.081581 0.715804 0.115556 0.556861
C47   C     C_R   0.617105 0.229650 0.394469 0.538971
C48   C     C_3   0.575631 0.820827 0.780392 0.098201
C49   C     C_3   0.545908 0.783718 0.705478 -0.228393
C50   C     C_3   0.841060 0.683665 0.759774 -0.313935
Cr1   Cr    Cr6+3 0.392930 0.397900 0.502230 1.063837
Cr2   Cr    Cr6+3 0.398240 0.708600 0.501260 1.067085
Cr3   Cr    Cr6+3 0.708800 0.393470 0.496460 1.097415
Cr4   Cr    Cr6+3 0.937620 0.938540 0.007640 1.018967
Cr5   Cr    Cr6+3 0.625150 0.937450 0.994520 1.076500
Cr6   Cr    Cr6+3 0.937990 0.625080 0.001190 1.027742
H1    H     H_    0.587516 0.915745 0.777276 0.128832
H2    H     H_    0.939899 0.584487 0.771837 0.116470
H3    H     H_    0.885950 0.102801 0.669650 0.207770
H4    H     H_    0.470052 0.201527 0.818186 0.149895
H5    H     H_    0.449356 0.213112 0.694441 0.146520
H6    H     H_    0.224369 0.451380 0.696753 0.117541
H7    H     H_    0.189930 0.468455 0.825699 0.125391
H8    H     H_    0.196644 0.857939 0.825673 0.198761
H9    H     H_    0.205435 0.854297 0.698299 0.172177
H10   H     H_    0.807521 0.431982 0.296366 0.173146
H11   H     H_    0.810965 0.455926 0.171433 0.170399
H12   H     H_    0.505325 0.897774 0.187429 0.187528
H13   H     H_    0.442381 0.187866 0.312993 0.160261
H14   H     H_    0.833731 0.194343 0.312342 0.174871
H15   H     H_    0.065068 0.895459 0.335889 0.151073
H16   H     H_    0.456667 0.762522 0.707886 0.193742
H17   H     H_    0.023491 0.918598 0.210452 0.191855
H18   H     H_    0.175741 0.473018 0.189996 0.162289
H19   H     H_    0.220634 0.447836 0.317305 0.140425
H20   H     H_    0.512172 0.876252 0.670347 0.094411
H21   H     H_    0.860993 0.771839 0.771432 0.114330
H22   H     H_    0.758041 0.799696 0.662697 0.146860
H23   H     H_    0.785993 0.470826 0.833305 0.109928
H24   H     H_    0.603939 0.585402 0.827708 0.169604
O1    O     O_R   0.507430 0.255570 0.581420 -0.524609
O2    O     O_R   0.524460 0.695920 0.424060 -0.494205
O3    O     O_R   0.736530 0.504260 0.414810 -0.525378
O4    O     O_R   0.691460 0.277160 0.422180 -0.517912
O5    O     O_3   0.499990 0.499990 0.499980 -0.251192
O6    O     O_R   0.089490 0.825610 0.930610 -0.517635
O7    O     O_R   0.818370 0.054540 0.929880 -0.528534
O8    O     O_R   0.605870 0.077310 0.915530 -0.522791
O9    O     O_R   0.646440 0.806700 0.917570 -0.437910
O10   O     O_R   0.837200 0.593290 0.915250 -0.536750
O11   O     O_R   0.065330 0.635370 0.931590 -0.515537
O12   O     O_R   0.280190 0.527390 0.578910 -0.468210
O13   O     O_R   0.068300 0.828790 0.091860 -0.508984
O14   O     O_R   0.798730 0.057480 0.079370 -0.537940
O15   O     O_R   0.584680 0.080480 0.076790 -0.438299
O16   O     O_R   0.626790 0.809640 0.067050 -0.493637
O17   O     O_R   0.816010 0.596460 0.076500 -0.516208
O18   O     O_R   0.045680 0.638310 0.081070 -0.495758
O19   O     O_3   0.833590 0.833690 0.001120 -0.282358
O20   O     O_R   0.260310 0.739740 0.584580 -0.521894
O21   O     O_R   0.532250 0.695150 0.573830 -0.502740
O22   O     O_R   0.744930 0.503430 0.576380 -0.434171
O23   O     O_R   0.699250 0.276390 0.571950 -0.443894
O24   O     O_R   0.499020 0.256400 0.419850 -0.529536
O25   O     O_R   0.272400 0.528160 0.429140 -0.505903
O26   O     O_R   0.251910 0.740570 0.423020 -0.506039
C51   C     C_2   0.864223 0.393695 0.711142 0.214227
H25   H     H_    0.949417 0.374577 0.747106 0.114446
O27   O     O_2   0.895009 0.315225 0.660035 -0.472814
C52   C     C_2   0.929833 0.601583 0.633665 0.228713
H26   H     H_    0.005099 0.493164 0.645978 0.133883
O28   O     O_2   0.950074 0.653150 0.580786 -0.517432
C53   C     C_2   0.939519 0.114411 0.808809 0.199059
H27   H     H_    0.945485 0.134598 0.864479 0.143196
O29   O     O_2   0.039570 0.093284 0.770918 -0.558891
O30   O     O_3   0.460546 0.849811 0.825397 -0.692514
H28   H     H_    0.382176 0.944716 0.812587 0.329849
O31   O     O_3   0.484486 0.907526 0.324061 -0.698312
H29   H     H_    0.524919 0.896351 0.372082 0.332888
O32   O     O_3   0.412447 0.194674 0.175793 -0.679377
H30   H     H_    0.341285 0.199525 0.210436 0.329968
C54   C     C_2   0.866210 0.199178 0.172708 0.206545
H31   H     H_    0.852945 0.232736 0.117882 0.129457
O33   O     O_2   0.973878 0.177464 0.203241 -0.536094
C55   C     C_2   0.608304 0.467812 0.716980 0.240656
H32   H     H_    0.604818 0.400853 0.757722 0.105933
O34   O     O_2   0.522194 0.504955 0.669477 -0.505634

loop_
_geom_bond_atom_site_label_1
_geom_bond_atom_site_label_2
_ccdc_geom_bond_type
C41   O9    A    
C37   H18   S    
C35   C36   A    
Cr6   O18   S    
C25   O31   S    
Cr1   O5    S    
C7    C8    A    
C2    C6    S    
C18   H9    S    
C29   C30   A    
Cr3   O4    S    
C40   O7    A    
C20   H10   S    
C28   C29   A    
C18   C19   A    
C17   H8    S    
Cr4   O7    S    
C45   O2    A    
C5    C52   S    
C15   C16   A    
C14   H6    S    
C3    C48   S    
C43   O14   A    
O30   H28   S    
C13   C23   S    
C42   O11   A    
Cr5   O8    S    
C52   H26   S    
Cr4   O13   S    
C2    H23   S    
C26   C45   S    
O31   H29   S    
Cr6   O11   S    
C22   C44   S    
C30   C54   S    
C8    C9    A    
C49   H16   S    
C43   O15   A    
C6    C51   S    
C36   C46   S    
C42   O6    A    
C4    C12   S    
C35   H17   S    
C9    C10   A    
Cr1   O1    S    
C27   H13   S    
C48   O30   S    
Cr6   O10   S    
C41   O10   A    
C46   O18   A    
Cr2   O26   S    
C21   C22   A    
C29   C43   S    
C51   O27   D    
C45   O3    A    
Cr6   O17   S    
C1    O20   A    
C7    H3    S    
C3    C50   S    
C38   H19   S    
C31   H14   S    
C38   C39   A    
C23   O23   A    
Cr2   O21   S    
C1    C19   S    
C34   C39   S    
C34   O26   A    
C48   H1    S    
C24   C25   A    
C4    C6    S    
C28   O32   S    
Cr4   O6    S    
C24   H12   S    
C16   C17   A    
Cr1   O24   S    
Cr2   O20   S    
C9    C40   S    
C50   H2    S    
C10   H4    S    
C12   O22   A    
C37   C38   A    
C44   O16   A    
Cr1   O12   S    
C44   O17   A    
C31   C32   A    
C7    C13   A    
Cr3   O22   S    
Cr1   O25   S    
C17   C18   A    
C49   H20   S    
C33   C39   A    
C47   O4    A    
Cr2   O2    S    
C8    C53   S    
Cr5   O15   S    
C48   C49   S    
Cr2   O5    S    
C1    O12   A    
C55   H32   S    
C32   C47   S    
C22   C24   A    
C5    C50   S    
C51   H25   S    
C54   O33   D    
C50   H21   S    
C16   C42   S    
O32   H30   S    
C53   H27   S    
C3    C41   S    
C47   O24   A    
C23   O1    A    
C27   C32   A    
C34   O25   A    
C14   C19   A    
C6    C55   S    
Cr5   O16   S    
C11   H5    S    
C4    C49   S    
Cr3   O3    S    
C40   O8    A    
C2    C3    S    
C25   C26   A    
C12   O21   A    
Cr5   O9    S    
C11   C13   A    
C30   C31   A    
C46   O13   A    
C20   C26   A    
Cr3   O23   S    
C33   C35   A    
Cr4   O19   S    
C52   O28   D    
Cr4   O14   S    
C2    H24   S    
C10   C11   A    
C33   H15   S    
C5    H22   S    
C4    C5    S    
C20   C21   A    
C36   C37   A    
Cr5   O19   S    
C27   C28   A    
C55   O34   D    
C15   H7    S    
C14   C15   A    
Cr3   O5    S    
Cr6   O19   S    
C54   H31   S    
C21   H11   S    
C53   O29   D    
