data_mof_unit_40448.cif
_audit_creation_date              2012-12-11T16:33:25-0500
_audit_creation_method            fapswitch 2.2
_symmetry_space_group_name_H-M    P1
_symmetry_Int_Tables_number       1
_space_group_crystal_system       triclinic
_cell_length_a                    6.942833
_cell_length_b                    18.246732
_cell_length_c                    20.15539
_cell_angle_alpha                 68.427779
_cell_angle_beta                  90.689187
_cell_angle_gamma                 90.799024
_cell_volume                      2374.21854186

loop_
_atom_site_label
_atom_site_type_symbol
_atom_type_description
_atom_site_fract_x
_atom_site_fract_y
_atom_site_fract_z
_atom_type_partial_charge
O1    O     O_R   0.488960 0.443750 0.941980 -0.541348
O2    O     O_R   0.823890 0.406510 0.087590 -0.531409
O3    O     O_R   0.999680 0.556250 0.058020 -0.539746
C1    C     C_R   0.654804 0.381334 0.113448 0.795672
O4    O     O_R   0.818360 0.434410 0.944340 -0.535712
O5    O     O_R   0.994110 0.584350 0.913750 -0.537586
C2    C     C_R   0.648732 0.420797 0.923427 0.785958
O6    O     O_R   0.494530 0.415650 0.086250 -0.543477
O7    O     O_3   0.662590 0.549160 0.990130 -0.373305
V1    V     V_3+5 0.935320 0.490880 0.001830 1.428817
O8    O     O_R   0.324180 0.593490 0.912410 -0.540237
C3    C     C_R   0.155278 0.616090 0.884636 0.696106
O9    O     O_R   0.329720 0.565590 0.055660 -0.539082
C4    C     C_R   0.162241 0.579795 0.076088 0.721543
V2    V     V_3+5 0.435990 0.509120 0.998170 1.425235
O10   O     O_3   0.158850 0.450840 0.009870 -0.373700
C5    C     C_3   0.056027 0.703467 0.313259 -0.193244
C6    C     C_3   0.243871 0.684376 0.281599 -0.147028
H1    H     H_    0.335225 0.631724 0.306583 0.103413
H2    H     H_    0.990658 0.666221 0.364855 0.120014
C7    C     C_1   0.156417 0.625491 0.121637 -0.193436
C8    C     C_1   0.109905 0.874008 0.378651 -0.197356
C9    C     C_3   0.955959 0.726506 0.239069 -0.099115
C10   C     C_3   0.143536 0.708488 0.207954 0.117710
C11   C     C_3   0.025187 0.813208 0.219704 -0.169923
C12   C     C_3   0.124629 0.789808 0.293409 0.118308
C13   C     C_3   0.213014 0.794691 0.187800 -0.200390
C14   C     C_3   0.307974 0.770808 0.262031 0.348482
C15   C     C_1   0.151062 0.663112 0.160325 -0.044497
C16   C     C_1   0.115956 0.835924 0.340402 -0.065234
H3    H     H_    0.280274 0.832013 0.136606 0.117375
H4    H     H_    0.934085 0.865904 0.194534 0.126693
H5    H     H_    0.808962 0.707718 0.229317 0.141058
H6    H     H_    0.417094 0.544451 0.692454 0.133186
C17   C     C_R   0.002457 0.766038 0.876520 -0.209236
C18   C     C_R   0.927472 0.837470 0.875042 0.351620
C19   C     C_R   0.912717 0.900689 0.809912 -0.134641
C20   C     C_R   0.975255 0.893406 0.747218 -0.222563
C21   C     C_R   0.052402 0.821913 0.747557 0.068599
C22   C     C_R   0.065720 0.756830 0.813538 0.033152
C23   C     C_R   0.119244 0.815093 0.683803 -0.148940
C24   C     C_R   0.199442 0.743030 0.686184 0.033446
C25   C     C_R   0.212409 0.677892 0.752137 0.064843
C26   C     C_R   0.145240 0.684672 0.815886 -0.149399
C27   C     C_R   0.264484 0.734088 0.623302 -0.210668
C28   C     C_R   0.341333 0.662932 0.624810 0.350796
C29   C     C_R   0.354949 0.599530 0.689902 -0.115700
C30   C     C_R   0.290243 0.606504 0.752483 -0.212677
H7    H     H_    0.013626 0.718425 0.927838 0.103623
H8    H     H_    0.851947 0.955948 0.807520 0.124734
H9    H     H_    0.962977 0.944757 0.698631 0.123381
H10   H     H_    0.254085 0.781840 0.572044 0.103706
H11   H     H_    0.302065 0.555092 0.801041 0.125849
H12   H     H_    0.644777 0.377215 0.419706 0.123421
C31   C     C_R   0.592220 0.093448 0.255367 -0.149188
C32   C     C_R   0.594335 0.076940 0.193456 -0.198514
C33   C     C_R   0.632794 0.136461 0.128576 -0.184544
C34   C     C_R   0.667412 0.213973 0.124343 0.429603
C35   C     C_R   0.644868 0.233993 0.186013 -0.019896
C36   C     C_R   0.618906 0.171362 0.253327 0.008415
C37   C     C_R   0.645998 0.313446 0.182759 -0.165931
C38   C     C_R   0.634882 0.328894 0.246700 0.008973
C39   C     C_R   0.638431 0.265753 0.314491 -0.020102
C40   C     C_R   0.622783 0.186603 0.317507 -0.166783
C41   C     C_R   0.624331 0.407381 0.244149 -0.149476
C42   C     C_R   0.620663 0.423730 0.306151 -0.199065
C43   C     C_R   0.638899 0.363211 0.371951 -0.185129
C44   C     C_R   0.657941 0.284962 0.376870 0.432152
H13   H     H_    0.567550 0.044206 0.304793 0.112299
H14   H     H_    0.571120 0.017127 0.196103 0.127804
H15   H     H_    0.641034 0.122113 0.081112 0.125971
H16   H     H_    0.617508 0.457283 0.194228 0.113647
H17   H     H_    0.609920 0.484066 0.303018 0.131688
O11   O     O_R   0.770540 0.084530 0.414050 -0.531579
O12   O     O_R   0.445710 0.065660 0.555720 -0.537615
O13   O     O_R   0.270420 0.915650 0.586190 -0.538465
C45   C     C_R   0.615017 0.079115 0.576942 0.790541
O14   O     O_R   0.441140 0.093540 0.412470 -0.543480
O15   O     O_R   0.265820 0.943740 0.441930 -0.540785
C46   C     C_R   0.610726 0.118781 0.386770 0.798852
O16   O     O_R   0.775150 0.056440 0.558310 -0.542065
O17   O     O_3   0.602370 0.950960 0.510050 -0.372950
V3    V     V_3+5 0.329450 0.009140 0.498150 1.416427
O18   O     O_R   0.935790 0.934280 0.444060 -0.538598
C47   C     C_R   0.103491 0.920069 0.423826 0.724809
O19   O     O_R   0.940370 0.906390 0.587310 -0.539464
C48   C     C_R   0.109233 0.883722 0.615097 0.694828
V4    V     V_3+5 0.828810 0.990710 0.501460 1.424077
O20   O     O_3   0.105780 0.049100 0.489960 -0.374775
C49   C     C_3   0.757555 0.307845 0.726788 0.532987
C50   C     C_3   0.582395 0.297787 0.683035 -0.213910
H18   H     H_    0.543209 0.336828 0.627902 0.111939
H19   H     H_    0.309383 0.303924 0.751036 0.154803
C51   C     C_1   0.624691 0.124968 0.622310 -0.185934
C52   C     C_1   0.638462 0.375001 0.878026 -0.170363
C53   C     C_3   0.808265 0.219906 0.750386 -0.221862
C54   C     C_3   0.630782 0.209206 0.707601 0.114860
C55   C     C_3   0.678652 0.202435 0.816875 -0.192538
C56   C     C_3   0.631369 0.290816 0.792652 0.106572
C57   C     C_3   0.501864 0.190704 0.773696 -0.111113
C58   C     C_3   0.454620 0.279688 0.750095 -0.214730
C59   C     C_1   0.628808 0.163072 0.660602 -0.047107
C60   C     C_1   0.633957 0.336982 0.839663 -0.010916
H20   H     H_    0.395279 0.141629 0.792781 0.115169
H21   H     H_    0.716687 0.163513 0.872173 0.126355
H22   H     H_    0.953918 0.195662 0.750093 0.112226
N1    N     N_2   0.411029 0.656450 0.560968 -0.517838
H23   H     H_    0.429435 0.709571 0.519154 0.248036
C61   C     C_3   0.314355 0.598036 0.539254 -0.564569
H24   H     H_    0.379078 0.598094 0.489097 0.191782
H25   H     H_    0.158792 0.611974 0.529489 0.197994
H26   H     H_    0.331231 0.538206 0.580554 0.199044
O21   O     O_3   0.726285 0.268930 0.059757 -0.576699
C62   C     C_3   0.922314 0.255481 0.050188 -0.218656
H27   H     H_    0.943901 0.196671 0.046800 0.115703
H28   H     H_    0.014024 0.261938 0.093467 0.138252
H29   H     H_    0.972427 0.299771 0.999023 0.172456
O22   O     O_3   0.701992 0.228560 0.442706 -0.577055
C63   C     C_3   0.899823 0.236275 0.456703 -0.224633
H30   H     H_    0.933999 0.294594 0.460031 0.114660
H31   H     H_    0.991481 0.226366 0.415856 0.142554
H32   H     H_    0.938201 0.191280 0.509202 0.169073
O23   O     O_3   0.891238 0.371040 0.705564 -0.553374
C64   C     C_3   0.981785 0.374675 0.642241 -0.279213
H33   H     H_    0.876992 0.389340 0.597201 0.137631
H34   H     H_    0.057233 0.318915 0.649191 0.130947
H35   H     H_    0.092091 0.422377 0.628021 0.163394
N2    N     N_2   0.499617 0.796398 0.273400 -0.532085
H36   H     H_    0.516406 0.856823 0.252506 0.247300
C65   C     C_3   0.573872 0.760577 0.345358 -0.554530
H37   H     H_    0.720479 0.784000 0.348378 0.210544
H38   H     H_    0.583074 0.695709 0.360816 0.196178
H39   H     H_    0.480864 0.774411 0.383507 0.196486
N3    N     N_2   0.862077 0.844768 0.939054 -0.520762
H40   H     H_    0.840378 0.791826 0.980792 0.254026
C66   C     C_3   0.967648 0.901243 0.960791 -0.564674
H41   H     H_    0.904119 0.903249 0.010400 0.197428
H42   H     H_    0.959247 0.961212 0.919037 0.198571
H43   H     H_    0.120923 0.883615 0.971521 0.196819

loop_
_geom_bond_atom_site_label_1
_geom_bond_atom_site_label_2
_ccdc_geom_bond_type
C56   C60   S    
C31   C32   A    
N1    C61   S    
C23   C24   A    
O2    C1    A    
C17   C18   A    
C10   C13   S    
O15   C47   A    
C1    O6    A    
N2    H36   S    
C62   H27   S    
C49   C50   S    
O23   C64   S    
C21   C23   A    
C27   C28   A    
C19   C20   A    
C55   H21   S    
C6    C10   S    
C5    C12   S    
C4    C7    S    
C18   C19   A    
C61   H25   S    
O5    C3    A    
C20   C21   A    
O19   V4    S    
V2    O10   S    
C55   C56   S    
C45   C51   S    
C57   H20   S    
C5    H2    S    
C32   C33   A    
C6    H1    S    
C49   O23   S    
C8    C47   S    
O22   C63   S    
C44   O22   S    
C10   C15   S    
O8    V2    S    
O14   V3    S    
C9    H5    S    
C53   C55   S    
C17   H7    S    
C34   O21   S    
N1    H23   S    
O1    V2    S    
C25   C30   A    
C54   C59   S    
C11   H4    S    
C9    C11   S    
C42   C43   A    
C35   C36   A    
O11   C46   A    
O9    C4    A    
C53   C54   S    
C40   C46   S    
C50   C58   S    
C66   H43   S    
V3    O20   S    
O13   V3    S    
C52   C60   T    
C63   H31   S    
C30   H11   S    
C23   C48   S    
C35   C37   A    
C13   H3    S    
C43   C44   A    
C62   H29   S    
C6    C14   S    
O18   C47   A    
C66   H42   S    
C61   H26   S    
H19   C58   S    
C21   C22   A    
O4    C2    A    
O19   C48   A    
N3    C66   S    
C20   H9    S    
C27   H10   S    
C11   C12   S    
C42   H17   S    
C7    C15   T    
C1    C37   S    
C50   C54   S    
C18   N3    S    
C24   C27   A    
C65   H38   S    
C25   C26   A    
C38   C39   A    
C29   C30   A    
C45   O16   A    
C9    C10   S    
C28   N1    S    
C5    C6    S    
C5    C9    S    
C33   H15   S    
O12   C45   A    
O13   C48   A    
C31   H13   S    
O3    C4    A    
C64   H35   S    
C56   C58   S    
C12   C16   S    
O6    V2    S    
C32   H14   S    
O9    V2    S    
C65   H39   S    
C24   C25   A    
O2    V1    S    
C49   C56   S    
C50   H18   S    
C54   C57   S    
C64   H34   S    
O21   C62   S    
O7    V1    S    
C63   H32   S    
C53   H22   S    
C28   C29   A    
C8    C16   T    
C38   C41   A    
O1    C2    A    
O18   V4    S    
C66   H41   S    
N2    C65   S    
O5    V1    S    
C62   H28   S    
C63   H30   S    
C49   C53   S    
N3    H40   S    
H12   C43   S    
C11   C13   S    
C41   H16   S    
C2    C52   S    
C39   C44   A    
C12   C14   S    
C36   C40   A    
C65   H37   S    
C34   C35   A    
O4    V1    S    
C3    C26   S    
O3    V1    S    
V1    O10   S    
C61   H24   S    
O15   V3    S    
C19   H8    S    
O12   V3    S    
C33   C34   A    
O17   V4    S    
C57   C58   S    
C17   C22   A    
O14   C46   A    
C41   C42   A    
O7    V2    S    
C37   C38   A    
C55   C57   S    
O16   V4    S    
C39   C40   A    
C22   C26   A    
V4    O20   S    
C51   C59   T    
O17   V3    S    
C13   C14   S    
H6    C29   S    
O11   V4    S    
C31   C36   A    
C14   N2    S    
O8    C3    A    
C64   H33   S    
