data_mof_unit_40494.cif
_audit_creation_date              2012-12-11T17:34:16-0500
_audit_creation_method            fapswitch 2.2
_symmetry_space_group_name_H-M    P1
_symmetry_Int_Tables_number       1
_space_group_crystal_system       triclinic
_cell_length_a                    23.772628
_cell_length_b                    7.222588
_cell_length_c                    20.662394
_cell_angle_alpha                 90.026059
_cell_angle_beta                  105.461815
_cell_angle_gamma                 90.017611
_cell_volume                      3419.33197737

loop_
_atom_site_label
_atom_site_type_symbol
_atom_type_description
_atom_site_fract_x
_atom_site_fract_y
_atom_site_fract_z
_atom_type_partial_charge
O1    O     O_R   0.449110 0.494310 0.552140 -0.535362
O2    O     O_R   0.550890 0.994310 0.447860 -0.535479
O3    O     O_R   0.440010 0.824420 0.415850 -0.540397
O4    O     O_R   0.559990 0.324420 0.584150 -0.540396
C1    C     C_R   0.425587 0.655997 0.390686 0.742938
C2    C     C_R   0.574407 0.156132 0.609335 0.742560
O5    O     O_R   0.442260 0.824040 0.549660 -0.540867
O6    O     O_R   0.557740 0.324040 0.450340 -0.540563
O7    O     O_R   0.553160 0.993960 0.582620 -0.535239
O8    O     O_R   0.446840 0.493960 0.417380 -0.534825
C3    C     C_R   0.428657 0.655504 0.567543 0.702561
C4    C     C_R   0.571354 0.155490 0.432468 0.703525
O9    O     O_3   0.536380 0.660670 0.510660 -0.376010
O10   O     O_3   0.463620 0.160670 0.489340 -0.375726
V1    V     V_3+5 0.493250 0.935680 0.498020 1.416486
V2    V     V_3+5 0.506750 0.435680 0.501980 1.417341
C5    C     C_R   0.818476 0.904724 0.163705 0.382941
C6    C     C_R   0.181579 0.404718 0.836357 0.382967
C7    C     C_R   0.858304 0.897444 0.124180 -0.160062
C8    C     C_R   0.141732 0.397442 0.875860 -0.160082
H1    H     H_    0.867677 0.764086 0.105419 0.141804
H2    H     H_    0.132360 0.264114 0.894622 0.141860
C9    C     C_R   0.885710 0.058427 0.108886 -0.129862
C10   C     C_R   0.114307 0.558394 0.891133 -0.129959
C11   C     C_R   0.872148 0.228910 0.134161 -0.161996
C12   C     C_R   0.127868 0.728839 0.865859 -0.161957
H3    H     H_    0.892243 0.356111 0.123794 0.143164
H4    H     H_    0.107760 0.856014 0.876211 0.143210
C13   C     C_R   0.832785 0.238068 0.173788 -0.163696
C14   C     C_R   0.167249 0.737991 0.826255 -0.163679
H5    H     H_    0.823633 0.371235 0.192854 0.176354
H6    H     H_    0.176400 0.871129 0.807190 0.176347
C15   C     C_R   0.805639 0.077906 0.189102 0.018650
C16   C     C_R   0.194416 0.577862 0.810962 0.018602
C17   C     C_1   0.765473 0.095407 0.230957 -0.040495
C18   C     C_1   0.234602 0.595364 0.769131 -0.040467
C19   C     C_1   0.732094 0.109700 0.266006 0.038852
C20   C     C_1   0.267996 0.609676 0.734100 0.038979
C21   C     C_R   0.657765 0.970628 0.314551 0.372495
C22   C     C_R   0.342379 0.470788 0.685597 0.371976
C23   C     C_R   0.619348 0.981274 0.356011 -0.262474
C24   C     C_R   0.380785 0.481458 0.644124 -0.262117
H7    H     H_    0.593210 0.861425 0.360395 0.151145
H8    H     H_    0.406970 0.361737 0.639775 0.151435
C25   C     C_R   0.613436 0.145391 0.390229 -0.163623
C26   C     C_R   0.386625 0.645443 0.609844 -0.162662
C27   C     C_R   0.647365 0.299435 0.382919 -0.166933
C28   C     C_R   0.352670 0.799377 0.617145 -0.167086
H9    H     H_    0.643800 0.427528 0.408838 0.159972
H10   H     H_    0.356195 0.927380 0.591191 0.159838
C29   C     C_R   0.686811 0.291335 0.343040 0.324510
C30   C     C_R   0.313248 0.791268 0.657053 0.324832
C31   C     C_R   0.692016 0.125152 0.308195 -0.016516
C32   C     C_R   0.308084 0.625177 0.691924 -0.016669
C33   C     C_R   0.644229 0.224130 0.794764 -0.248831
C34   C     C_R   0.356091 0.719395 0.205016 -0.248467
H11   H     H_    0.729269 0.229703 0.907413 0.129362
H12   H     H_    0.271143 0.723342 0.092269 0.129374
H13   H     H_    0.631051 0.271172 0.838369 0.132658
H14   H     H_    0.369438 0.764099 0.161260 0.132428
C35   C     C_R   0.617954 0.152787 0.675732 -0.130309
C36   C     C_R   0.382055 0.652087 0.324304 -0.129770
C37   C     C_R   0.900722 0.998578 0.768850 -0.258522
C38   C     C_R   0.099033 0.501707 0.231274 -0.258792
C39   C     C_R   0.861587 0.986073 0.704881 0.420894
C40   C     C_R   0.138075 0.490468 0.295328 0.421024
C41   C     C_R   0.802508 0.024307 0.696541 -0.155844
C42   C     C_R   0.197229 0.527606 0.303650 -0.155800
C43   C     C_R   0.780781 0.076410 0.751298 0.013351
C44   C     C_R   0.219128 0.577294 0.248783 0.013286
C45   C     C_R   0.821527 0.091648 0.816205 0.059626
C46   C     C_R   0.178487 0.591128 0.183775 0.059587
C47   C     C_R   0.720066 0.115518 0.743623 0.101778
C48   C     C_R   0.279917 0.615251 0.256428 0.101891
C49   C     C_R   0.702373 0.174302 0.800779 0.081303
C50   C     C_R   0.297812 0.671257 0.199105 0.081244
C51   C     C_R   0.742881 0.186311 0.863677 -0.172115
C52   C     C_R   0.257389 0.682017 0.136123 -0.172075
C53   C     C_R   0.801344 0.144656 0.871445 -0.168763
C54   C     C_R   0.198838 0.641660 0.128411 -0.168367
C55   C     C_R   0.676189 0.100544 0.681411 -0.292156
C56   C     C_R   0.323685 0.601639 0.318754 -0.291780
C57   C     C_R   0.602707 0.220995 0.732405 0.397070
C58   C     C_R   0.397566 0.717236 0.267416 0.397301
C59   C     C_R   0.881647 0.051556 0.824535 -0.117458
C60   C     C_R   0.118291 0.552215 0.175478 -0.117234
H15   H     H_    0.685965 0.053394 0.636131 0.124274
H16   H     H_    0.313748 0.556731 0.364191 0.123946
H17   H     H_    0.946421 0.965917 0.775435 0.108128
H18   H     H_    0.053262 0.470047 0.224716 0.108010
H19   H     H_    0.774746 0.012669 0.646159 0.139398
H20   H     H_    0.224912 0.517027 0.354098 0.139437
H21   H     H_    0.830827 0.156466 0.921238 0.110066
H22   H     H_    0.169426 0.652410 0.078547 0.109494
O11   O     O_R   0.053190 0.709680 0.082610 -0.532042
O12   O     O_R   0.946810 0.209680 0.917390 -0.532091
O13   O     O_R   0.057740 0.380240 0.950340 -0.541064
O14   O     O_R   0.942260 0.880240 0.049660 -0.541061
C61   C     C_R   0.071470 0.548827 0.932555 0.695570
C62   C     C_R   0.928533 0.048837 0.067448 0.695649
O15   O     O_R   0.060000 0.379940 0.084150 -0.532939
O16   O     O_R   0.940000 0.879940 0.915850 -0.532972
O17   O     O_R   0.949110 0.210100 0.052140 -0.538015
O18   O     O_R   0.050890 0.710100 0.947860 -0.537932
C63   C     C_R   0.074736 0.548089 0.109045 0.700140
C64   C     C_R   0.925245 0.047965 0.890957 0.700002
O19   O     O_3   0.963630 0.543720 0.989330 -0.373543
O20   O     O_3   0.036370 0.043720 0.010670 -0.373445
V3    V     V_3+5 0.006750 0.268680 0.001980 1.417099
V4    V     V_3+5 0.993250 0.768680 0.998020 1.417199
O21   O     O_3   0.793687 0.739709 0.175886 -0.658404
H23   H     H_    0.766545 0.761851 0.203958 0.315590
O22   O     O_3   0.206387 0.239737 0.824196 -0.658369
H24   H     H_    0.233538 0.261875 0.796136 0.315584
O23   O     O_3   0.879670 0.935308 0.649242 -0.629600
H25   H     H_    0.922365 0.912814 0.663108 0.295737
O24   O     O_3   0.119823 0.442098 0.351079 -0.629570
H26   H     H_    0.077094 0.420124 0.337212 0.295776
O25   O     O_3   0.662256 0.810848 0.279454 -0.627086
H27   H     H_    0.634453 0.717461 0.287904 0.308277
O26   O     O_3   0.337932 0.311105 0.720720 -0.626889
H28   H     H_    0.365735 0.217783 0.712250 0.308468
O27   O     O_3   0.719126 0.448794 0.340176 -0.623162
H29   H     H_    0.744765 0.428296 0.310228 0.307153
O28   O     O_3   0.280912 0.948621 0.659915 -0.623184
H30   H     H_    0.255308 0.928149 0.689903 0.307111
O29   O     O_3   0.546302 0.279417 0.727445 -0.581036
C65   C     C_3   0.544450 0.475592 0.729508 0.077166
H31   H     H_    0.520040 0.525534 0.679111 0.145653
H32   H     H_    0.588097 0.545064 0.741878 0.107713
C66   C     C_3   0.512369 0.536453 0.780925 -0.320312
H33   H     H_    0.469183 0.466921 0.770166 0.216640
H34   H     H_    0.538122 0.494382 0.831953 0.195951
C67   C     C_3   0.503482 0.745978 0.779479 -0.787245
H35   H     H_    0.546264 0.818418 0.791580 0.237694
H36   H     H_    0.480062 0.785701 0.817240 0.237276
H37   H     H_    0.477067 0.790894 0.729144 0.232620
O30   O     O_3   0.454187 0.773241 0.272219 -0.581192
C68   C     C_3   0.456754 0.969182 0.269318 0.075518
H38   H     H_    0.481383 0.020274 0.319494 0.145154
H39   H     H_    0.413367 0.040182 0.256689 0.108055
C69   C     C_3   0.489019 0.026048 0.217610 -0.318489
H40   H     H_    0.531967 0.955067 0.228697 0.216652
H41   H     H_    0.463123 0.982589 0.166794 0.195787
C70   C     C_3   0.498596 0.235197 0.218035 -0.788305
H42   H     H_    0.456066 0.309018 0.205633 0.237671
H43   H     H_    0.522103 0.271952 0.180054 0.237153
H44   H     H_    0.525209 0.281427 0.268128 0.233096

loop_
_geom_bond_atom_site_label_1
_geom_bond_atom_site_label_2
_ccdc_geom_bond_type
C40   C42   A    
C37   C39   A    
C34   C50   A    
C33   H13   S    
C10   C61   S    
C29   O27   S    
O21   H23   S    
O1    C3    A    
C38   H18   S    
C66   C67   S    
O2    C4    A    
C65   H31   S    
C67   H37   S    
C45   C53   A    
C70   H42   S    
O27   H29   S    
C27   H9    S    
C28   H10   S    
O5    C3    A    
C22   O26   S    
C42   H20   S    
C48   C50   A    
O14   V4    S    
C2    C35   S    
C7    H1    S    
C50   C52   A    
C53   H21   S    
O10   V1    S    
C68   C69   S    
C52   C54   A    
O15   V3    S    
O23   H25   S    
C13   C15   A    
O20   V3    S    
C24   C26   A    
C38   C60   A    
C43   C45   A    
O12   C64   A    
O11   C63   A    
O13   C61   A    
C45   C59   A    
C27   C29   A    
C8    C10   A    
C39   C41   A    
C40   O24   S    
C44   C48   A    
C43   C47   A    
C16   C18   S    
C56   H16   S    
C33   C49   A    
C25   C27   A    
C9    C62   S    
C36   C56   A    
C58   O30   S    
O6    V2    S    
C30   O28   S    
C37   C59   A    
C11   C13   A    
C23   H7    S    
C69   C70   S    
C5    C15   A    
C2    O7    A    
C5    O21   S    
C6    O22   S    
C47   C55   A    
C70   H43   S    
C30   C32   A    
C34   C58   A    
C51   C53   A    
O15   C63   A    
C26   C28   A    
C44   C46   A    
C14   C16   A    
H11   C51   S    
C21   C23   A    
C35   C57   A    
C57   O29   S    
C4    C25   S    
C67   H36   S    
O3    C1    A    
C62   O17   A    
C34   H14   S    
C22   C32   A    
C29   C31   A    
C38   C40   A    
O4    V2    S    
C7    C9    A    
O13   V3    S    
C20   C32   S    
O6    C4    A    
C37   H17   S    
C41   H19   S    
O1    V2    S    
O25   H27   S    
O2    V1    S    
C49   C51   A    
O26   H28   S    
C55   H15   S    
O4    C2    A    
C8    H2    S    
C12   C14   A    
O14   C62   A    
O28   H30   S    
O19   V4    S    
C69   H41   S    
O16   V4    S    
C60   C63   S    
C47   C49   A    
C54   H22   S    
O29   C65   S    
C65   C66   S    
C70   H44   S    
O3    V1    S    
O18   V4    S    
O22   H24   S    
C48   C56   A    
C36   C58   A    
C17   C19   T    
C13   H5    S    
C59   C64   S    
C10   C12   A    
C22   C24   A    
C66   H34   S    
O11   V4    S    
C65   H32   S    
C46   C60   A    
C68   H38   S    
O9    V2    S    
C67   H35   S    
C11   H3    S    
O12   V3    S    
C12   H4    S    
O17   V3    S    
C18   C20   T    
C39   O23   S    
C24   H8    S    
C19   C31   S    
C1    O8    A    
C46   C54   A    
C35   C55   A    
O24   H26   S    
C14   H6    S    
C68   H39   S    
C21   C31   A    
C6    C16   A    
C21   O25   S    
O5    V1    S    
C15   C17   S    
C1    C36   S    
C61   O18   A    
C6    C8    A    
C9    C11   A    
O7    V1    S    
O30   C68   S    
H12   C52   S    
C5    C7    A    
C28   C30   A    
C42   C44   A    
O16   C64   A    
C23   C25   A    
C69   H40   S    
C3    C26   S    
O8    V2    S    
C41   C43   A    
C33   C57   A    
C66   H33   S    
