data_mof_unit_34184.cif
_audit_creation_date              2012-12-11T14:43:30-0500
_audit_creation_method            fapswitch 2.2
_symmetry_space_group_name_H-M    P1
_symmetry_Int_Tables_number       1
_space_group_crystal_system       triclinic
_cell_length_a                    20.857144
_cell_length_b                    7.101433
_cell_length_c                    16.403817
_cell_angle_alpha                 89.996473
_cell_angle_beta                  92.409682
_cell_angle_gamma                 90.001947
_cell_volume                      2427.51291335

loop_
_atom_site_label
_atom_site_type_symbol
_atom_type_description
_atom_site_fract_x
_atom_site_fract_y
_atom_site_fract_z
_atom_type_partial_charge
O1    O     O_R   0.564840 0.505290 0.579830 -0.537700
O2    O     O_R   0.435160 0.005290 0.420170 -0.537697
O3    O     O_R   0.556720 0.179930 0.409350 -0.537427
O4    O     O_R   0.443280 0.679930 0.590650 -0.537429
C1    C     C_R   0.570332 0.344812 0.380981 0.698546
C2    C     C_R   0.429667 0.844796 0.619019 0.698537
O5    O     O_R   0.572280 0.175810 0.578530 -0.542434
O6    O     O_R   0.427720 0.675810 0.421470 -0.542425
O7    O     O_R   0.450830 0.001920 0.590540 -0.536347
O8    O     O_R   0.549170 0.501920 0.409460 -0.536346
C3    C     C_R   0.589875 0.342855 0.605065 0.689360
C4    C     C_R   0.410124 0.842860 0.394935 0.689359
O9    O     O_3   0.460130 0.338030 0.503750 -0.372102
O10   O     O_3   0.539870 0.838030 0.496250 -0.372104
V1    V     V_3+5 0.507400 0.064560 0.499310 1.412625
V2    V     V_3+5 0.492600 0.564560 0.500690 1.412639
C5    C     C_R   0.145785 0.923948 0.165355 -0.088035
C6    C     C_R   0.854213 0.423964 0.834648 -0.088075
C7    C     C_R   0.356575 0.839493 0.332045 -0.063713
C8    C     C_R   0.643428 0.339473 0.667951 -0.063732
C9    C     C_R   0.295853 0.659271 0.228032 -0.194740
C10   C     C_R   0.704179 0.159178 0.771918 -0.194752
C11   C     C_R   0.349318 0.680573 0.281262 -0.157256
C12   C     C_R   0.650709 0.180488 0.718699 -0.157269
C13   C     C_R   0.309884 0.981548 0.326101 -0.222025
C14   C     C_R   0.690101 0.481584 0.673923 -0.222031
C15   C     C_R   0.255272 0.960497 0.272888 0.129201
C16   C     C_R   0.744718 0.460526 0.727128 0.129213
C17   C     C_R   0.246780 0.795451 0.224543 0.063270
C18   C     C_R   0.753234 0.295420 0.775435 0.063265
C19   C     C_R   0.190529 0.774741 0.172291 0.267253
C20   C     C_R   0.809489 0.274705 0.827679 0.267306
C21   C     C_R   0.155606 0.085469 0.214194 -0.243245
C22   C     C_R   0.844371 0.585541 0.785841 -0.243245
C23   C     C_R   0.209015 0.102696 0.267581 -0.208769
C24   C     C_R   0.790957 0.602777 0.732462 -0.208803
H1    H     H_    0.121587 0.200792 0.211002 0.148888
H2    H     H_    0.878375 0.700903 0.789053 0.148917
H3    H     H_    0.294098 0.535270 0.189802 0.129516
H4    H     H_    0.705954 0.035120 0.810120 0.129548
H5    H     H_    0.214650 0.229618 0.303885 0.128050
H6    H     H_    0.785304 0.729746 0.696187 0.128035
H7    H     H_    0.385207 0.570150 0.283145 0.124541
H8    H     H_    0.614835 0.070018 0.716795 0.124573
H9    H     H_    0.314970 0.105268 0.364559 0.119603
H10   H     H_    0.684996 0.605357 0.635495 0.119621
C25   C     C_R   0.380329 0.854206 0.836904 -0.155911
C26   C     C_R   0.619650 0.355088 0.163096 -0.155903
H11   H     H_    0.469550 0.836695 0.777024 0.103248
H12   H     H_    0.530429 0.337602 0.222976 0.103232
H13   H     H_    0.300374 0.868736 0.958064 0.132729
H14   H     H_    0.699597 0.370024 0.041934 0.132684
H15   H     H_    0.403914 0.848980 0.897014 0.113796
H16   H     H_    0.596056 0.350283 0.102985 0.113797
C27   C     C_R   0.389122 0.853483 0.690369 -0.037798
C28   C     C_R   0.610876 0.353573 0.309632 -0.037791
C29   C     C_R   0.078227 0.916134 0.732230 -0.164998
C30   C     C_R   0.921787 0.415532 0.267770 -0.165008
C31   C     C_R   0.112765 0.909487 0.661670 -0.119920
C32   C     C_R   0.887255 0.408637 0.338330 -0.119917
C33   C     C_R   0.179474 0.895893 0.666198 -0.155968
C34   C     C_R   0.820539 0.395270 0.333803 -0.155969
C35   C     C_R   0.213815 0.888349 0.742401 0.077338
C36   C     C_R   0.786188 0.388219 0.257599 0.077322
C37   C     C_R   0.177876 0.895051 0.814887 0.061608
C38   C     C_R   0.822120 0.395210 0.185112 0.061633
C39   C     C_R   0.282476 0.874492 0.749046 0.074446
C40   C     C_R   0.717522 0.374572 0.250954 0.074442
C41   C     C_R   0.313229 0.867637 0.828013 0.132455
C42   C     C_R   0.686757 0.368249 0.171987 0.132468
C43   C     C_R   0.277017 0.874123 0.897804 -0.190400
C44   C     C_R   0.722963 0.375011 0.102195 -0.190401
C45   C     C_R   0.210532 0.887599 0.891501 -0.175627
C46   C     C_R   0.789453 0.388257 0.108498 -0.175562
C47   C     C_R   0.322003 0.867068 0.680412 -0.214087
C48   C     C_R   0.678001 0.366867 0.319588 -0.214091
C49   C     C_R   0.417860 0.847215 0.768702 -0.169229
C50   C     C_R   0.582124 0.347860 0.231299 -0.169231
C51   C     C_R   0.109790 0.909185 0.809007 -0.076678
C52   C     C_R   0.890212 0.409094 0.190993 -0.076667
H17   H     H_    0.302404 0.871306 0.618608 0.091937
H18   H     H_    0.697608 0.370709 0.381392 0.091940
H19   H     H_    0.026381 0.926868 0.726944 0.101404
H20   H     H_    0.973639 0.426042 0.273055 0.101388
H21   H     H_    0.202654 0.891623 0.608808 0.107318
H22   H     H_    0.797364 0.390773 0.391192 0.107324
H23   H     H_    0.087549 0.915047 0.602661 0.117731
H24   H     H_    0.912479 0.413807 0.397339 0.117733
H25   H     H_    0.184831 0.892139 0.947474 0.124681
H26   H     H_    0.815149 0.393022 0.052525 0.124544
O11   O     O_R   0.950790 0.256670 0.090520 -0.534183
O12   O     O_R   0.049210 0.756670 0.909480 -0.534191
O13   O     O_R   0.927720 0.590370 0.921470 -0.549802
O14   O     O_R   0.072280 0.090370 0.078530 -0.549796
C53   C     C_R   0.909611 0.422577 0.895501 0.722962
C54   C     C_R   0.090389 0.922574 0.104498 0.722961
O15   O     O_R   0.943270 0.586180 0.090640 -0.540419
O16   O     O_R   0.056730 0.086180 0.909360 -0.540408
O17   O     O_R   0.064850 0.759970 0.079840 -0.510197
O18   O     O_R   0.935150 0.259970 0.920160 -0.510175
C55   C     C_R   0.930174 0.417660 0.118804 0.674581
C56   C     C_R   0.069827 0.917676 0.881197 0.674567
O19   O     O_3   0.039850 0.428050 0.996240 -0.363772
O20   O     O_3   0.960150 0.928050 0.003760 -0.363760
V3    V     V_3+5 0.992610 0.701540 0.000700 1.476453
V4    V     V_3+5 0.007390 0.201540 0.999300 1.476488
O21   O     O_3   0.179328 0.615758 0.125420 -0.642119
H27   H     H_    0.194106 0.504565 0.157300 0.281358
O22   O     O_3   0.820710 0.115659 0.874508 -0.642074
H28   H     H_    0.805959 0.004499 0.842590 0.281324

loop_
_geom_bond_atom_site_label_1
_geom_bond_atom_site_label_2
_ccdc_geom_bond_type
C35   C37   A    
C28   C48   A    
C15   C17   A    
C29   C51   A    
C1    C28   S    
C24   H6    S    
O1    C3    A    
C2    C27   S    
O2    C4    A    
C2    O7    A    
O20   V4    S    
C32   H24   S    
C37   C45   A    
C14   C16   A    
O5    C3    A    
C34   H22   S    
H13   C43   S    
C37   C51   A    
C36   C40   A    
C27   C49   A    
C29   C31   A    
C30   C32   A    
C38   C46   A    
C54   O17   A    
C28   C50   A    
C32   C34   A    
C26   C50   A    
C41   C43   A    
C25   C41   A    
C34   C36   A    
O13   V3    S    
C8    C12   A    
O21   H27   S    
C29   H19   S    
C51   C56   S    
C30   C52   A    
C25   H15   S    
C27   C47   A    
O5    V1    S    
O6    V2    S    
C6    C53   S    
O11   V4    S    
C5    C21   A    
O11   C55   A    
C7    C13   A    
H12   C50   S    
O20   V3    S    
O17   V3    S    
C35   C39   A    
C3    C8    S    
C31   C33   A    
C20   O22   S    
C44   C46   A    
C48   H18   S    
C5    C54   S    
C53   O18   A    
C47   H17   S    
C15   C23   A    
O16   C56   A    
C9    C17   A    
C21   H1    S    
C39   C41   A    
C36   C38   A    
O4    V2    S    
C26   H16   S    
H14   C44   S    
C30   H20   S    
C9    H3    S    
O6    C4    A    
C10   H4    S    
C33   C35   A    
O19   V3    S    
O1    V2    S    
O14   C54   A    
O2    V1    S    
C6    C22   A    
C33   H21   S    
O4    C2    A    
C9    C11   A    
C13   C15   A    
C12   H8    S    
C10   C12   A    
C6    C20   A    
C25   C49   A    
C13   H9    S    
O3    V1    S    
C7    C11   A    
C43   C45   A    
O14   V4    S    
C10   C18   A    
C22   H2    S    
C11   H7    S    
C19   O21   S    
C26   C42   A    
O3    C1    A    
O12   C56   A    
C40   C48   A    
C38   C52   A    
O18   V4    S    
O16   V4    S    
C52   C55   S    
C46   H26   S    
C16   C18   A    
O7    V1    S    
O15   V3    S    
C1    O8    A    
C17   C19   A    
O8    V2    S    
O22   H28   S    
C18   C20   A    
C8    C14   A    
C5    C19   A    
C4    C7    S    
C21   C23   A    
H11   C49   S    
O19   V4    S    
C22   C24   A    
C23   H5    S    
C31   H23   S    
C14   H10   S    
C45   H25   S    
O12   V3    S    
C39   C47   A    
C16   C24   A    
O13   C53   A    
O9    V2    S    
C40   C42   A    
O10   V1    S    
C42   C44   A    
O15   C55   A    
