data_mof_unit_26266.cif
_audit_creation_date              2012-12-11T14:29:33-0500
_audit_creation_method            fapswitch 2.2
_symmetry_space_group_name_H-M    P1
_symmetry_Int_Tables_number       1
_space_group_crystal_system       triclinic
_cell_length_a                    6.935576
_cell_length_b                    14.708922
_cell_length_c                    16.27029
_cell_angle_alpha                 90.52709
_cell_angle_beta                  90.285201
_cell_angle_gamma                 89.805897
_cell_volume                      1659.71106956

loop_
_atom_site_label
_atom_site_type_symbol
_atom_type_description
_atom_site_fract_x
_atom_site_fract_y
_atom_site_fract_z
_atom_type_partial_charge
O1    O     O_R   0.494400 0.416610 0.413880 -0.545132
O2    O     O_R   0.823920 0.406790 0.585520 -0.505873
O3    O     O_R   0.994250 0.583390 0.586120 -0.537187
C1    C     C_R   0.655760 0.384848 0.613666 0.784079
O4    O     O_R   0.824110 0.405730 0.414490 -0.542830
O5    O     O_R   0.994440 0.582310 0.413870 -0.540633
C2    C     C_R   0.654811 0.383810 0.386201 0.733096
O6    O     O_R   0.494210 0.417690 0.586130 -0.543589
O7    O     O_3   0.660810 0.557940 0.500000 -0.376158
V1    V     V_3+5 0.935650 0.489250 0.500000 1.455666
O8    O     O_R   0.324160 0.593210 0.414480 -0.548054
C3    C     C_R   0.154657 0.616877 0.388371 0.727981
O9    O     O_R   0.323970 0.594270 0.585510 -0.541004
C4    C     C_R   0.155366 0.616331 0.613748 0.696302
V2    V     V_3+5 0.435660 0.510750 0.500000 1.418119
O10   O     O_3   0.160630 0.442060 0.500000 -0.364252
H1    H     H_    0.344444 0.918618 0.517595 0.109675
C5    C     C_R   0.051645 0.563054 0.778433 -0.170998
C6    C     C_R   0.994467 0.534701 0.856535 0.137090
C7    C     C_R   0.964470 0.599678 0.918246 -0.148824
C8    C     C_R   0.003447 0.691090 0.904243 -0.178105
C9    C     C_R   0.068415 0.720816 0.826820 0.075282
C10   C     C_R   0.087010 0.655841 0.761850 0.043677
C11   C     C_R   0.118566 0.813105 0.813952 -0.177914
C12   C     C_R   0.181626 0.840611 0.735123 0.070890
C13   C     C_R   0.193876 0.776109 0.669366 0.068929
C14   C     C_R   0.145989 0.683722 0.682597 -0.177259
C15   C     C_R   0.229137 0.932436 0.719663 -0.141536
C16   C     C_R   0.288523 0.959709 0.642052 -0.131591
C17   C     C_R   0.299584 0.896905 0.577931 -0.116792
C18   C     C_R   0.252104 0.806228 0.590963 -0.135713
H2    H     H_    0.072678 0.511488 0.731425 0.119969
H3    H     H_    0.914829 0.579098 0.978254 0.107841
H4    H     H_    0.984314 0.737758 0.955305 0.111434
H5    H     H_    0.219626 0.984396 0.766964 0.103117
H6    H     H_    0.325052 0.030116 0.631484 0.103002
H7    H     H_    0.261035 0.760341 0.538782 0.098775
C19   C     C_2   0.993911 0.708081 0.280224 -0.151418
C20   C     C_2   0.147344 0.691501 0.328640 -0.306125
H8    H     H_    0.862801 0.668902 0.287638 0.136218
H9    H     H_    0.272191 0.735394 0.326152 0.129307
C21   C     C_2   0.990799 0.782647 0.219153 -0.155966
C22   C     C_2   0.130476 0.799078 0.162993 -0.066059
H10   H     H_    0.861757 0.824714 0.218980 0.118337
C23   C     C_2   0.778574 0.206514 0.781852 -0.232232
C24   C     C_2   0.612153 0.175505 0.813276 -0.376819
H11   H     H_    0.912272 0.184289 0.810079 0.155633
H12   H     H_    0.474423 0.194482 0.786783 0.129763
C25   C     C_2   0.795854 0.268324 0.709116 0.472925
C26   C     C_2   0.644288 0.318451 0.681719 -0.397121
H13   H     H_    0.503784 0.311840 0.709740 0.111801
C27   C     C_2   0.779688 0.210293 0.213004 -0.132328
C28   C     C_2   0.614268 0.182444 0.176920 -0.314897
H14   H     H_    0.915817 0.182150 0.191797 0.137349
H15   H     H_    0.476482 0.210109 0.195821 0.126845
C29   C     C_2   0.791893 0.278785 0.280973 -0.137860
C30   C     C_2   0.638290 0.315729 0.319247 -0.307849
H16   H     H_    0.935882 0.298669 0.300386 0.134010
H17   H     H_    0.493157 0.296595 0.301704 0.128492
O11   O     O_R   0.770210 0.079270 0.910680 -0.538208
O12   O     O_R   0.440150 0.091160 0.082270 -0.545238
O13   O     O_R   0.269970 0.914530 0.082860 -0.542879
C31   C     C_R   0.608932 0.113517 0.110295 0.742012
O14   O     O_R   0.440480 0.090100 0.911240 -0.549042
O15   O     O_R   0.270310 0.913460 0.910610 -0.536147
C32   C     C_R   0.608405 0.111240 0.882675 0.776644
O16   O     O_R   0.769870 0.080340 0.082930 -0.537924
O17   O     O_3   0.603660 0.938980 0.996790 -0.370747
V3    V     V_3+5 0.328750 0.007610 0.996740 1.388581
O18   O     O_R   0.940600 0.902510 0.911180 -0.538999
C33   C     C_R   0.109205 0.880511 0.882875 0.697360
O19   O     O_R   0.940270 0.903570 0.082200 -0.546280
C34   C     C_R   0.110964 0.878109 0.106987 0.694674
V4    V     V_3+5 0.828770 0.986010 0.996670 1.403924
O20   O     O_3   0.103730 0.054750 0.996710 -0.371485
C35   C     C_3   0.306213 0.737095 0.150614 -0.320933
C36   C     C_3   0.250387 0.641175 0.121253 -0.298585
C37   C     C_3   0.428482 0.584403 0.100211 -0.790795
H18   H     H_    0.510447 0.616383 0.049656 0.230622
H19   H     H_    0.523446 0.577880 0.155051 0.227527
H20   H     H_    0.383523 0.515366 0.079857 0.215651
H21   H     H_    0.167958 0.605107 0.169105 0.207885
H22   H     H_    0.158339 0.646405 0.065709 0.188745
H23   H     H_    0.402200 0.765717 0.102976 0.179940
H24   H     H_    0.397123 0.733966 0.206460 0.166351
O21   O     O_3   0.976294 0.282632 0.674396 -0.542919
C38   C     C_3   0.069898 0.199364 0.656877 -0.251787
H25   H     H_    0.969827 0.147373 0.630709 0.132441
H26   H     H_    0.144208 0.173052 0.712411 0.118502
H27   H     H_    0.182606 0.211772 0.610191 0.157769
C39   C     C_3   0.969241 0.434943 0.874551 -0.371983
C40   C     C_3   0.122253 0.401973 0.936100 -0.329482
C41   C     C_3   0.115757 0.298966 0.946205 -0.706394
H28   H     H_    0.969092 0.276985 0.964485 0.224574
H29   H     H_    0.156586 0.264627 0.887743 0.219425
H30   H     H_    0.219993 0.278126 0.994582 0.208498
H31   H     H_    0.268376 0.421142 0.914493 0.201125
H32   H     H_    0.097789 0.434736 0.997009 0.191377
H33   H     H_    0.822512 0.423503 0.899579 0.170008
H34   H     H_    0.981839 0.394229 0.816998 0.202707

loop_
_geom_bond_atom_site_label_1
_geom_bond_atom_site_label_2
_ccdc_geom_bond_type
C22   C34   S    
C38   H25   S    
C41   H28   S    
C28   C31   S    
C6    C7    A    
C1    O6    A    
C35   H23   S    
C40   H32   S    
C20   H9    S    
C36   C37   S    
C12   C15   A    
C16   H6    S    
C13   C14   A    
C15   C16   A    
C24   C32   S    
O5    C3    A    
C17   C18   A    
C37   H19   S    
C30   H17   S    
C36   H22   S    
O17   V4    S    
V2    O10   S    
C29   C30   D    
C5    C6    A    
O12   C31   A    
O8    V2    S    
C15   H5    S    
O17   V3    S    
O18   V4    S    
O13   C34   A    
O18   C33   A    
O1    V2    S    
C10   C14   A    
C4    C14   S    
O7    V1    S    
C23   H11   S    
O11   C32   A    
C13   C18   A    
C41   H29   S    
O9    C4    A    
H1    C17   S    
C21   H10   S    
C27   H14   S    
C40   H31   S    
C24   H12   S    
C28   H15   S    
C31   O16   A    
V4    O20   S    
C5    C10   A    
C11   C12   A    
O19   V4    S    
C39   C40   S    
O4    C2    A    
O21   C38   S    
C8    H4    S    
C12   C13   A    
C23   C24   D    
C18   H7    S    
O13   V3    S    
C1    C26   S    
O14   C32   A    
O2    C1    A    
C16   C17   A    
C23   C25   S    
C26   H13   S    
O16   V4    S    
O14   V3    S    
C35   C36   S    
O3    C4    A    
C7    H3    S    
O6    V2    S    
O9    V2    S    
C39   H34   S    
C9    C11   A    
C5    H2    S    
C21   C22   D    
O2    V1    S    
C27   C28   D    
O12   V3    S    
C22   C35   S    
O1    C2    A    
C25   O21   S    
O19   C34   A    
O5    V1    S    
O8    C3    A    
C19   C21   S    
C41   H30   S    
C3    C20   S    
C38   H26   S    
O7    V2    S    
O4    V1    S    
O3    V1    S    
O15   C33   A    
C19   H8    S    
C37   H18   S    
C37   H20   S    
C19   C20   D    
C36   H21   S    
O15   V3    S    
O11   V4    S    
C40   C41   S    
C29   H16   S    
V3    O20   S    
C6    C39   S    
C7    C8    A    
C25   C26   D    
C38   H27   S    
C9    C10   A    
V1    O10   S    
C39   H33   S    
C8    C9    A    
C35   H24   S    
C2    C30   S    
C27   C29   S    
C11   C33   S    
