data_mof_unit_60019.cif
_audit_creation_date              2012-12-10T16:42:43-0500
_audit_creation_method            fapswitch 2.2
_symmetry_space_group_name_H-M    P1
_symmetry_Int_Tables_number       1
_space_group_crystal_system       triclinic
_cell_length_a                    18.941136
_cell_length_b                    19.008272
_cell_length_c                    18.927207
_cell_angle_alpha                 109.285744
_cell_angle_beta                  109.322804
_cell_angle_gamma                 109.409763
_cell_volume                      5271.2539345

loop_
_atom_site_label
_atom_site_type_symbol
_atom_type_description
_atom_site_fract_x
_atom_site_fract_y
_atom_site_fract_z
_atom_type_partial_charge
C1    C     C_R   0.384577 0.382957 0.502523 0.835024
C2    C     C_R   0.757769 0.579250 0.753607 0.073090
C3    C     C_R   0.812500 0.500186 0.812322 -0.190818
C4    C     C_R   0.742773 0.421129 0.739532 0.074465
C5    C     C_R   0.674713 0.421237 0.679533 0.073488
C6    C     C_R   0.684355 0.500246 0.684699 -0.187333
C7    C     C_R   0.738853 0.341391 0.724920 -0.143401
C8    C     C_R   0.665338 0.264070 0.658587 -0.143290
C9    C     C_R   0.594420 0.264272 0.605554 -0.141940
C10   C     C_R   0.598642 0.341761 0.615589 -0.139390
C11   C     C_2   0.257546 0.183207 0.507244 -0.142811
C12   C     C_R   0.617971 0.500143 0.618032 0.788753
C13   C     C_2   0.180854 0.177610 0.491063 -0.310899
C14   C     C_2   0.318532 0.244044 0.495390 -0.162005
C15   C     C_2   0.322690 0.319604 0.509692 -0.309319
C16   C     C_2   0.188557 0.433697 0.173554 -0.264538
C17   C     C_2   0.184708 0.505681 0.183952 0.375982
C18   C     C_2   0.262562 0.434937 0.234405 -0.127044
C19   C     C_2   0.303926 0.490371 0.318945 -0.243293
C20   C     C_2   0.744158 0.748989 0.425442 -0.153326
C21   C     C_2   0.819557 0.810101 0.496743 -0.310777
C22   C     C_2   0.683646 0.676113 0.425507 -0.145430
C23   C     C_R   0.615746 0.617524 0.498263 0.846761
C24   C     C_2   0.678220 0.685808 0.496600 -0.314912
C25   C     C_R   0.998143 0.383257 0.880386 0.706651
C26   C     C_R   0.878929 0.500074 0.878820 0.792334
C27   C     C_R   0.997918 0.617127 0.115860 0.868203
C28   C     C_R   0.115182 0.500315 0.114881 0.713381
C29   C     C_R   0.996332 0.113946 0.616767 0.827015
C30   C     C_R   0.117129 0.115538 0.497773 0.856146
C31   C     C_R   0.002909 0.885002 0.382930 0.876625
C32   C     C_R   0.882954 0.880615 0.498367 0.834944
C33   C     C_2   0.935974 0.201708 0.669570 -0.122120
C34   C     C_R   0.378790 0.496901 0.382150 0.829131
C35   C     C_2   0.989220 0.170041 0.684493 -0.255212
C36   C     C_2   0.933962 0.261352 0.741020 -0.233676
C37   C     C_2   0.004942 0.320025 0.818090 0.323835
C38   C     C_2   0.076910 0.817597 0.323587 0.539177
C39   C     C_2   0.006044 0.824038 0.314246 -0.397326
C40   C     C_2   0.072550 0.757304 0.245870 -0.290081
C41   C     C_2   0.001919 0.680327 0.188719 -0.386739
C42   C     C_R   0.772578 0.658795 0.756850 -0.141120
C43   C     C_R   0.839687 0.736223 0.829686 -0.144109
C44   C     C_R   0.893286 0.736307 0.900530 -0.139488
C45   C     C_R   0.882959 0.658939 0.896915 -0.140328
C46   C     C_R   0.818191 0.579273 0.821497 0.070480
Cu1   Cu    Cu3+1 0.500390 0.438990 0.439360 0.948844
Cu2   Cu    Cu3+1 0.499610 0.561010 0.560640 0.952069
Cu3   Cu    Cu3+1 0.935830 0.439030 0.996840 0.939059
Cu4   Cu    Cu3+1 0.057850 0.561040 0.996790 0.961516
Cu5   Cu    Cu3+1 0.061410 0.000010 0.561410 0.976295
Cu6   Cu    Cu3+1 0.938590 0.999990 0.438590 0.953516
H1    H     H_    0.536318 0.204184 0.555621 0.131637
H2    H     H_    0.160567 0.214575 0.464462 0.154120
H3    H     H_    0.363360 0.228442 0.479312 0.155757
H4    H     H_    0.284650 0.339314 0.535075 0.156541
H5    H     H_    0.138747 0.372672 0.115884 0.108871
H6    H     H_    0.281315 0.388323 0.209340 0.160199
H7    H     H_    0.279799 0.531145 0.344524 0.186718
H8    H     H_    0.728475 0.749836 0.365194 0.163685
H9    H     H_    0.839505 0.804200 0.554331 0.152509
H10   H     H_    0.639858 0.615718 0.365408 0.163728
H11   H     H_    0.733387 0.662550 0.703365 0.144493
H12   H     H_    0.715144 0.748648 0.553937 0.149862
H13   H     H_    0.891735 0.182539 0.604184 0.161956
H14   H     H_    0.027482 0.182868 0.749052 0.179116
H15   H     H_    0.873197 0.260450 0.727855 0.102498
H16   H     H_    0.948857 0.787681 0.251010 0.119479
H17   H     H_    0.128993 0.774761 0.237929 0.173187
H18   H     H_    0.948066 0.659592 0.200268 0.157829
H19   H     H_    0.849293 0.796373 0.831579 0.133054
H20   H     H_    0.943852 0.796529 0.958117 0.136476
H21   H     H_    0.925868 0.662867 0.954255 0.149381
H22   H     H_    0.792312 0.337407 0.763689 0.140129
H23   H     H_    0.663006 0.203810 0.649167 0.132869
H24   H     H_    0.541320 0.338152 0.573086 0.140402
H25   H     H_    0.273966 0.139537 0.524722 0.172923
O1    O     O_R   0.411310 0.359450 0.448800 -0.588468
O2    O     O_R   0.048900 0.462510 0.908320 -0.563222
O3    O     O_R   0.855710 0.448510 0.907250 -0.583960
O4    O     O_R   0.958760 0.551540 0.907200 -0.584661
O5    O     O_R   0.944780 0.537560 0.085320 -0.581480
O6    O     O_R   0.047820 0.640590 0.085270 -0.590737
O7    O     O_R   0.034920 0.448530 0.086440 -0.602947
O8    O     O_R   0.137970 0.551560 0.086390 -0.568510
O9    O     O_R   0.051300 0.089020 0.640330 -0.593744
O10   O     O_R   0.947570 0.089010 0.536620 -0.584024
O11   O     O_R   0.140880 0.089030 0.551840 -0.574053
O12   O     O_R   0.410660 0.462490 0.551220 -0.584832
O13   O     O_R   0.037150 0.089020 0.448130 -0.588567
O14   O     O_R   0.052430 0.910990 0.463380 -0.535937
O15   O     O_R   0.948700 0.910980 0.359670 -0.601283
O16   O     O_R   0.962850 0.910980 0.551870 -0.592750
O17   O     O_R   0.859120 0.910970 0.448160 -0.582946
O18   O     O_R   0.589930 0.448490 0.538390 -0.587846
O19   O     O_R   0.589280 0.551530 0.640800 -0.587386
O20   O     O_R   0.589340 0.537510 0.448780 -0.576472
O21   O     O_R   0.588690 0.640550 0.551200 -0.592851
O22   O     O_R   0.410720 0.448470 0.359200 -0.585140
O23   O     O_R   0.410070 0.551510 0.461610 -0.587235
O24   O     O_R   0.945860 0.359480 0.908360 -0.609745
O25   O     O_3   0.256562 0.585641 0.247213 -0.557676
C47   C     C_3   0.231162 0.641969 0.287121 -0.347592
H26   H     H_    0.184119 0.611315 0.305289 0.138419
H27   H     H_    0.204450 0.666571 0.245435 0.180611
H28   H     H_    0.288937 0.698111 0.347338 0.188367
O26   O     O_3   0.086003 0.333028 0.830581 -0.595767
C48   C     C_3   0.138313 0.350452 0.914449 0.034186
H29   H     H_    0.102229 0.304971 0.931194 0.114599
H30   H     H_    0.162022 0.417454 0.962693 0.167653
C49   C     C_3   0.216212 0.340692 0.918665 -0.311136
H31   H     H_    0.193916 0.274060 0.870860 0.219285
H32   H     H_    0.253159 0.385615 0.902304 0.232800
C50   C     C_3   0.275162 0.359814 0.008419 -0.921675
H33   H     H_    0.299231 0.426626 0.057150 0.267704
H34   H     H_    0.331195 0.352388 0.009613 0.259568
H35   H     H_    0.239922 0.314570 0.025490 0.251081
O27   O     O_3   0.153655 0.874547 0.401760 -0.557174
C51   C     C_3   0.208643 0.839595 0.416072 -0.316328
H36   H     H_    0.242019 0.843451 0.377893 0.153039
H37   H     H_    0.173657 0.772397 0.402274 0.155887
H38   H     H_    0.258988 0.878507 0.485049 0.189466

loop_
_geom_bond_atom_site_label_1
_geom_bond_atom_site_label_2
_ccdc_geom_bond_type
C32   O17   A    
C28   O7    A    
C39   H16   S    
Cu6   O13   S    
C49   H31   S    
C30   O13   A    
Cu4   O2    S    
C50   H33   S    
C36   H15   S    
C33   H13   S    
C7    C8    A    
C45   C46   A    
C2    C46   A    
Cu3   O7    S    
C36   C37   D    
C37   O26   S    
C6    C12   S    
C5    C6    A    
C11   C14   S    
C33   C36   S    
Cu1   O22   S    
C48   H29   S    
C45   H21   S    
C18   C19   D    
C3    C26   S    
O27   C51   S    
C11   H25   S    
Cu4   O8    S    
C25   C37   S    
C44   H20   S    
C10   H24   S    
C18   H6    S    
C48   H30   S    
C16   C17   D    
C34   O23   A    
C23   C24   S    
C12   O18   A    
Cu6   O17   S    
C1    C15   S    
C20   H8    S    
C9    C10   A    
C21   H9    S    
Cu5   O14   S    
C14   H3    S    
C24   H12   S    
C1    O1    A    
C49   C50   S    
C2    C6    A    
C4    C7    A    
Cu5   O9    S    
Cu3   O24   S    
Cu4   O6    S    
C7    H22   S    
C51   H37   S    
Cu2   O23   S    
C21   C32   S    
C40   H17   S    
Cu5   Cu6   S    
C13   C30   S    
C43   H19   S    
C47   H27   S    
C8    C9    A    
C35   H14   S    
C19   H7    S    
C8    H23   S    
C26   O3    A    
Cu3   O5    S    
C17   O25   S    
C22   H10   S    
C27   C41   S    
Cu1   Cu2   S    
O26   C48   S    
C34   O22   A    
C49   H32   S    
C29   O9    A    
Cu5   O16   S    
C40   C41   D    
C23   O20   A    
C20   C22   S    
C31   O15   A    
C26   O4    A    
C31   O14   A    
Cu2   O12   S    
C43   C44   A    
C22   C24   D    
Cu6   O15   S    
C9    H1    S    
C42   C43   A    
C30   O11   A    
C3    C4    A    
C47   H26   S    
C44   C45   A    
C13   H2    S    
C51   H38   S    
C1    O12   A    
Cu2   O19   S    
C25   O2    A    
C17   C28   S    
C27   O5    A    
Cu6   O10   S    
C4    C5    A    
C19   C34   S    
Cu5   O11   S    
C50   H34   S    
C51   H36   S    
Cu3   O3    S    
Cu2   O21   S    
C29   C35   S    
C3    C46   A    
Cu1   O20   S    
C48   C49   S    
C15   H4    S    
C27   O6    A    
C5    C10   A    
C38   C40   S    
C11   C13   D    
C25   O24   A    
C38   C39   D    
C2    C42   A    
C33   C35   D    
C31   C39   S    
C32   O16   A    
C47   H28   S    
C16   H5    S    
O25   C47   S    
C29   O10   A    
C50   H35   S    
C38   O27   S    
C23   O21   A    
C20   C21   D    
C16   C18   S    
Cu3   Cu4   S    
C28   O8    A    
Cu1   O18   S    
C14   C15   D    
C12   O19   A    
Cu1   O1    S    
C42   H11   S    
Cu4   O4    S    
C41   H18   S    
