data_mof_unit_20084.cif
_audit_creation_date              2012-10-26T19:15:56-0400
_audit_creation_method            fapswitch 2.2
_symmetry_space_group_name_H-M    P1
_symmetry_Int_Tables_number       1
_space_group_crystal_system       triclinic
_cell_length_a                    7.780454
_cell_length_b                    9.093662
_cell_length_c                    17.171398
_cell_angle_alpha                 89.584995
_cell_angle_beta                  93.943013
_cell_angle_gamma                 90.020588
_cell_volume                      1212.01720348

loop_
_atom_site_label
_atom_site_type_symbol
_atom_type_description
_atom_site_fract_x
_atom_site_fract_y
_atom_site_fract_z
_atom_type_partial_charge
C1    C     C_R   0.499965 0.220008 0.500005 0.565855
C2    C     C_R   0.599138 0.458690 0.143683 0.124296
C3    C     C_R   0.529461 0.467737 0.900741 0.191854
C4    C     C_R   0.468719 0.537928 0.099755 0.223026
C5    C     C_R   0.665331 0.402285 0.862695 0.043863
C6    C     C_R   0.339680 0.610755 0.138962 0.016694
C7    C     C_R   0.667212 0.409367 0.780402 -0.003039
C8    C     C_R   0.338827 0.602024 0.221165 -0.002411
C9    C     C_1   0.499972 0.065368 0.499999 -0.008075
C10   C     C_1   0.500026 0.934631 0.499989 -0.005266
C11   C     C_2   0.803100 0.322335 0.909475 0.640678
C12   C     C_R   0.500036 0.779992 0.499999 0.571020
C13   C     C_2   0.208968 0.701318 0.094043 0.615116
C14   C     C_2   0.809266 0.337901 0.741098 0.629460
C15   C     C_2   0.205180 0.682403 0.261829 0.625711
C16   C     C_R   0.521226 0.493050 0.651111 0.557818
C17   C     C_R   0.478784 0.507051 0.348990 0.563516
C18   C     C_R   0.531204 0.482256 0.736747 -0.065666
C19   C     C_R   0.468371 0.519311 0.263575 -0.052329
C20   C     C_R   0.396051 0.543647 0.774957 -0.102393
C21   C     C_R   0.596385 0.449553 0.224380 -0.159649
C22   C     C_R   0.392339 0.536636 0.855380 0.092925
Cu1   Cu    Cu3+1 0.669080 0.500010 0.500000 1.088684
Cu2   Cu    Cu3+1 0.330920 0.499990 0.500000 1.085163
H1    H     H_    0.697126 0.387738 0.256823 0.151627
H2    H     H_    0.952260 0.722826 0.270618 0.347460
H3    H     H_    0.290041 0.597526 0.741786 0.187451
H4    H     H_    0.854290 0.437359 0.131442 0.281313
H5    H     H_    0.740000 0.279654 0.120631 0.235483
H6    H     H_    0.192870 0.512021 0.923801 0.310002
H7    H     H_    0.275718 0.686896 0.920663 0.283527
H8    H     H_    0.993755 0.330695 0.994823 0.343378
H9    H     H_    0.105553 0.902378 0.073786 0.356772
H10   H     H_    0.065601 0.317097 0.732983 0.346062
N1    N     N_1   0.076820 0.499970 0.500010 -0.069782
N2    N     N_1   0.923180 0.500030 0.499990 -0.069147
N3    N     N_2   0.526562 0.448555 0.982957 -0.159916
N4    N     N_2   0.471117 0.556952 0.017473 -0.207614
N5    N     N_3   0.739275 0.392035 0.107274 -0.516922
N6    N     N_3   0.242099 0.593204 0.888263 -0.540812
O1    O     O_R   0.642760 0.288400 0.500000 -0.481407
O2    O     O_R   0.902456 0.396129 0.967561 -0.620567
O3    O     O_2   0.105036 0.643031 0.047484 -0.477072
O4    O     O_R   0.201479 0.852609 0.107158 -0.662523
O5    O     O_2   0.776564 0.247194 0.689954 -0.488257
O6    O     O_R   0.980375 0.372893 0.763718 -0.665471
O7    O     O_2   0.247656 0.767269 0.314632 -0.492849
O8    O     O_R   0.030931 0.662276 0.238754 -0.683871
O9    O     O_R   0.357240 0.711600 0.500000 -0.478620
O10   O     O_R   0.357190 0.288380 0.500000 -0.501347
O11   O     O_R   0.642810 0.711620 0.500000 -0.501569
O12   O     O_R   0.658410 0.498660 0.613920 -0.472249
O13   O     O_R   0.341590 0.501340 0.386080 -0.479249
O14   O     O_R   0.372840 0.498650 0.613930 -0.516981
O15   O     O_R   0.627160 0.501350 0.386070 -0.512056
O16   O     O_2   0.831293 0.192922 0.896258 -0.481645

loop_
_geom_bond_atom_site_label_1
_geom_bond_atom_site_label_2
_ccdc_geom_bond_type
C2    C4    A    
Cu1   Cu2   S    
Cu1   O15   S    
N3    N4    D    
H10   O6    S    
C20   H3    S    
C15   O7    D    
C8    C15   S    
C9    C10   T    
C17   O15   A    
Cu1   O11   S    
N1    N2    T    
Cu1   O1    S    
H2    O8    S    
C7    C18   A    
C22   N6    S    
H5    N5    S    
C2    C21   A    
C12   O9    A    
H6    N6    S    
C14   O6    S    
C6    C13   S    
Cu1   O12   S    
H8    O2    S    
C10   C12   S    
C15   O8    S    
C16   C18   S    
C17   C19   S    
C4    N4    S    
C5    C11   S    
C14   O5    D    
C18   C20   A    
C7    C14   S    
Cu2   O10   S    
C16   O14   A    
Cu2   N1    S    
Cu2   O14   S    
C8    C19   A    
C17   O13   A    
C13   O3    D    
C12   O11   A    
C1    C9    S    
H7    N6    S    
C3    N3    S    
C11   O2    S    
C4    C6    A    
Cu1   N2    S    
C1    O10   A    
C1    O1    A    
Cu2   O9    S    
C5    C7    A    
C21   H1    S    
C3    C22   A    
C6    C8    A    
H4    N5    S    
C19   C21   A    
Cu2   O13   S    
H9    O4    S    
C2    N5    S    
C13   O4    S    
C11   O16   D    
C16   O12   A    
C20   C22   A    
C3    C5    A    
