data_mof_unit_5021.cif
_audit_creation_date              2012-12-11T17:41:20-0500
_audit_creation_method            fapswitch 2.2
_symmetry_space_group_name_H-M    P1
_symmetry_Int_Tables_number       1
_space_group_crystal_system       triclinic
_cell_length_a                    15.744114
_cell_length_b                    15.17462
_cell_length_c                    15.079496
_cell_angle_alpha                 109.683024
_cell_angle_beta                  121.292805
_cell_angle_gamma                 59.249134
_cell_volume                      2633.23035756

loop_
_atom_site_label
_atom_site_type_symbol
_atom_type_description
_atom_site_fract_x
_atom_site_fract_y
_atom_site_fract_z
_atom_type_partial_charge
C1    C     C_R   0.797628 0.943445 0.775870 -0.120631
C2    C     C_R   0.212941 0.038332 0.215687 -0.147894
C3    C     C_R   0.198979 0.296188 0.554080 0.094715
C4    C     C_R   0.854834 0.722066 0.510483 0.109367
C5    C     C_R   0.507358 0.322159 0.525743 0.048959
C6    C     C_R   0.495404 0.676521 0.470653 0.015858
C7    C     C_R   0.503682 0.932769 0.801745 0.020623
C8    C     C_R   0.496325 0.965034 0.172412 -0.012351
C9    C     C_R   0.855198 0.665633 0.930789 -0.010715
C10   C     C_R   0.228038 0.255379 0.037511 -0.093439
C11   C     C_R   0.750169 0.705199 0.924486 -0.091795
C12   C     C_R   0.315322 0.164005 0.028218 -0.160003
C13   C     C_R   0.709474 0.800886 0.978073 0.035118
C14   C     C_R   0.300826 0.072392 0.981491 0.115520
C15   C     C_R   0.775890 0.854488 0.040605 -0.123104
C16   C     C_R   0.196711 0.074588 0.939467 -0.182148
C17   C     C_R   0.879832 0.815074 0.045646 -0.155578
C18   C     C_R   0.110007 0.165990 0.950430 -0.172356
C19   C     C_R   0.919355 0.721063 0.990323 -0.143541
C20   C     C_R   0.125787 0.256093 0.999690 -0.022809
C21   C     C_R   0.587559 0.857375 0.057873 -0.208266
C22   C     C_R   0.400298 0.942259 0.883464 -0.210982
C23   C     C_R   0.232656 0.287449 0.481462 -0.115145
C24   C     C_R   0.795483 0.724250 0.554487 -0.131302
C25   C     C_R   0.491295 0.930166 0.067830 0.072898
C26   C     C_R   0.501994 0.899006 0.881478 0.057365
C27   C     C_R   0.395678 0.974668 0.978296 0.015613
C28   C     C_R   0.597184 0.847831 0.968261 0.043328
C29   C     C_2   0.131559 0.392117 0.595255 -0.194488
C30   C     C_2   0.965068 0.645720 0.523767 -0.185921
C31   C     C_2   0.115331 0.482691 0.580797 -0.094393
C32   C     C_2   0.022939 0.574893 0.591047 -0.098511
C33   C     C_2   0.972234 0.964982 0.849967 -0.174116
C34   C     C_2   0.098677 0.938011 0.110359 -0.182159
C35   C     C_R   0.155622 0.839370 0.452625 0.701596
C36   C     C_R   0.835145 0.157302 0.521518 0.699767
C37   C     C_R   0.255820 0.756517 0.496378 -0.387218
C38   C     C_R   0.737075 0.244208 0.486026 -0.374504
C39   C     C_R   0.286120 0.664239 0.434022 -0.192194
C40   C     C_R   0.713131 0.330717 0.556055 -0.196068
C41   C     C_R   0.207268 0.648929 0.332780 0.626522
C42   C     C_R   0.794215 0.335622 0.658688 0.632012
C43   C     C_R   0.102392 0.728790 0.295278 -0.352813
C44   C     C_R   0.897060 0.252237 0.689389 -0.379290
C45   C     C_R   0.594715 0.228570 0.551225 -0.041656
C46   C     C_R   0.407819 0.769712 0.447426 -0.064122
C47   C     C_R   0.078074 0.824733 0.352664 -0.396370
C48   C     C_R   0.916128 0.162190 0.622584 -0.342463
C49   C     C_R   0.417069 0.503878 0.511095 -0.196229
C50   C     C_R   0.585792 0.495618 0.488007 -0.137035
C51   C     C_R   0.513849 0.415098 0.528891 0.098428
C52   C     C_R   0.488707 0.584021 0.468907 0.096348
C53   C     C_R   0.601557 0.413066 0.522346 0.143249
C54   C     C_R   0.400276 0.585965 0.474897 0.159899
C55   C     C_2   0.025627 0.903849 0.925160 -0.105628
C56   C     C_2   0.107019 0.926272 0.023066 -0.107950
C57   C     C_R   0.411722 0.989074 0.719727 -0.066291
C58   C     C_R   0.589750 0.952617 0.266544 -0.003929
C59   C     C_R   0.412785 0.304353 0.462950 -0.156157
C60   C     C_R   0.589453 0.695189 0.532232 -0.114813
C61   C     C_R   0.593019 0.914257 0.790314 -0.123179
C62   C     C_R   0.407355 0.022998 0.194969 -0.127797
C63   C     C_R   0.236146 0.197681 0.576401 -0.061319
C64   C     C_R   0.796603 0.811638 0.462013 -0.080143
C65   C     C_R   0.801290 0.031335 0.685914 -0.085426
C66   C     C_R   0.213112 0.946379 0.303769 -0.034782
C67   C     C_R   0.860284 0.981716 0.775174 0.122445
C68   C     C_R   0.167846 0.976903 0.207075 0.106076
H1    H     H_    0.821719 0.891605 0.827364 0.097696
H2    H     H_    0.182336 0.087687 0.158719 0.116708
H3    H     H_    0.887079 0.592562 0.889085 0.198483
H4    H     H_    0.239974 0.325325 0.075018 0.183221
H5    H     H_    0.700036 0.662840 0.876942 0.178184
H6    H     H_    0.394823 0.163846 0.059509 0.133701
H7    H     H_    0.745889 0.928042 0.083164 0.150025
H8    H     H_    0.184041 0.005039 0.901451 0.132888
H9    H     H_    0.929774 0.857288 0.093145 0.126551
H10   H     H_    0.030435 0.167357 0.921007 0.139679
H11   H     H_    0.660081 0.818752 0.124271 0.129901
H12   H     H_    0.324639 0.973317 0.816415 0.164697
H13   H     H_    0.993705 0.576423 0.642938 0.133010
H14   H     H_    0.158638 0.487208 0.546352 0.132463
H15   H     H_    0.995507 0.642637 0.471984 0.139620
H16   H     H_    0.087583 0.388552 0.629690 0.142191
H17   H     H_    0.000394 0.888033 0.317520 0.245217
H18   H     H_    0.991086 0.094967 0.652369 0.252611
H19   H     H_    0.209779 0.347795 0.440640 0.113040
H20   H     H_    0.821110 0.673203 0.607529 0.102740
H21   H     H_    0.316196 0.768500 0.573558 0.193381
H22   H     H_    0.673540 0.239596 0.408386 0.201548
H23   H     H_    0.040734 0.717856 0.219267 0.215605
H24   H     H_    0.960589 0.254581 0.767008 0.211294
H25   H     H_    0.349957 0.506270 0.516818 0.131871
H26   H     H_    0.652961 0.492682 0.481958 0.130458
H27   H     H_    0.679276 0.212210 0.601894 0.107047
H28   H     H_    0.325464 0.782187 0.395442 0.106606
H29   H     H_    0.327550 0.013770 0.700435 0.174893
H30   H     H_    0.673916 0.911716 0.278153 0.127537
H31   H     H_    0.677583 0.865245 0.830413 0.126729
H32   H     H_    0.323656 0.043465 0.142287 0.123999
H33   H     H_    0.221470 0.176863 0.627423 0.122042
H34   H     H_    0.825439 0.836912 0.428520 0.147710
H35   H     H_    0.832985 0.057280 0.655996 0.143765
H36   H     H_    0.183617 0.909756 0.324464 0.127328
H37   H     H_    0.163440 0.946929 0.022573 0.132684
H38   H     H_    0.994199 0.854564 0.924705 0.128514
N1    N     N_R   0.705410 0.966550 0.689210 -0.055969
N2    N     N_R   0.294590 0.033450 0.310790 -0.057034
N3    N     N_R   0.294590 0.188320 0.465660 -0.054976
N4    N     N_R   0.705410 0.811680 0.534340 -0.057302
N5    N     N_R   0.556610 0.157790 0.497330 -0.030380
N6    N     N_R   0.443390 0.842210 0.502670 -0.028120
N7    N     N_R   0.443390 0.997080 0.657540 -0.035840
N8    N     N_R   0.556610 0.002920 0.342460 -0.019306
N9    N     N_R   0.443390 0.203250 0.451380 -0.051777
N10   N     N_R   0.556610 0.796750 0.548620 -0.054521
N11   N     N_R   0.556610 0.951620 0.703500 -0.054863
N12   N     N_R   0.443390 0.048380 0.296500 -0.053230
N13   N     N_R   0.294590 0.131500 0.522480 -0.024422
N14   N     N_R   0.705410 0.868500 0.477520 -0.037762
N15   N     N_R   0.705410 0.023370 0.632390 -0.043990
N16   N     N_R   0.294590 0.976630 0.367610 -0.033247
Ni1   Ni    Ni4+2 0.629830 0.882720 0.617850 0.212067
Ni2   Ni    Ni4+2 0.370170 0.117280 0.382150 0.236151
Ni3   Ni    Ni4+2 0.629830 0.013030 0.487540 0.308773
Ni4   Ni    Ni4+2 0.370170 0.986970 0.512460 0.310888
H39   H     H_    0.042514 0.917278 0.110758 0.130951
H40   H     H_    0.004416 0.014411 0.852118 0.127460
H41   H     H_    0.999840 0.691019 0.993959 0.163097
H42   H     H_    0.058814 0.326537 0.008534 0.178291
S1    S     S_3+6 0.140787 0.963785 0.513623 -0.085939
O1    O     O_2   0.154744 0.971256 0.621865 -0.333704
O2    O     O_2   0.229558 0.980090 0.519945 -0.401774
O3    O     O_3   0.021056 0.055135 0.445099 -0.487656
H43   H     H_    0.027264 0.121064 0.480493 0.358745
S2    S     S_3+6 0.840378 0.038455 0.450341 -0.076562
O4    O     O_2   0.744977 0.029088 0.438072 -0.392060
O5    O     O_2   0.828510 0.036118 0.344147 -0.296611
O6    O     O_3   0.956040 0.941133 0.515000 -0.513552
H44   H     H_    0.959342 0.879680 0.463656 0.349224
S3    S     S_3+6 0.233851 0.532588 0.250165 -0.082003
O7    O     O_2   0.195177 0.467868 0.263906 -0.356235
O8    O     O_2   0.170708 0.556469 0.138534 -0.308505
O9    O     O_3   0.367476 0.466083 0.276809 -0.549269
H45   H     H_    0.379225 0.392905 0.256126 0.360823
S4    S     S_3+6 0.767413 0.442447 0.750566 -0.094294
O10   O     O_2   0.861620 0.422176 0.856743 -0.315495
O11   O     O_2   0.750587 0.534398 0.716089 -0.403287
O12   O     O_3   0.654050 0.466446 0.757530 -0.533646
H46   H     H_    0.603786 0.538837 0.741713 0.354567
H47   H     H_    0.331437 0.359033 0.420421 0.160845
H48   H     H_    0.673080 0.640579 0.568919 0.149134

loop_
_geom_bond_atom_site_label_1
_geom_bond_atom_site_label_2
_ccdc_geom_bond_type
C33   C55   D    
C15   H7    S    
C55   C56   S    
C34   C56   D    
N10   Ni1   S    
C12   H6    S    
N7    N11   A    
C3    C23   A    
C58   H30   S    
N1    Ni1   S    
C63   H33   S    
S1    O3    S    
C35   C47   A    
C39   C41   A    
C64   H34   S    
C32   H13   S    
N3    N13   A    
C31   H14   S    
C47   H17   S    
C35   C37   A    
C46   N6    A    
S3    O8    D    
C4    C24   A    
C39   C54   S    
C66   C68   A    
C49   C54   A    
C18   C20   A    
C60   H48   S    
C2    N2    A    
C30   H15   S    
C3    C29   S    
C7    C61   A    
C8    C58   A    
N15   Ni3   S    
C9    C19   A    
C10   C20   A    
C34   H39   S    
C49   C51   A    
N5    Ni3   S    
C50   C52   A    
C66   N16   A    
C13   C28   S    
C65   N15   A    
C14   C27   S    
N6    Ni4   S    
C44   H24   S    
C40   C42   A    
C38   C40   A    
C23   H19   S    
C29   C31   D    
C8    C25   S    
C41   C43   A    
C61   H31   S    
C42   C44   A    
N2    Ni2   S    
S2    O6    S    
C36   S2    S    
C52   C54   A    
S4    O11   D    
C23   N3    A    
C50   C53   A    
C5    C59   A    
C55   H38   S    
C61   N11   A    
C6    C60   A    
C24   N4    A    
C29   H16   S    
S2    O5    D    
C11   H5    S    
S3    O9    S    
N4    N14   A    
N8    Ni3   S    
N14   Ni3   S    
C50   H26   S    
C57   N7    A    
N7    Ni4   S    
C65   C67   A    
C5    C45   A    
C33   H40   S    
C43   H23   S    
C51   C53   A    
N16   Ni4   S    
C41   S3    S    
C66   H36   S    
N4    Ni1   S    
S4    O12   S    
C63   N13   A    
C38   H22   S    
C31   C32   S    
C18   H10   S    
C57   H29   S    
C21   H11   S    
C17   H9    S    
N12   Ni2   S    
C24   H20   S    
N8    N12   A    
C10   C12   A    
C1    N1    A    
C62   H32   S    
C16   C18   A    
C21   C28   A    
C12   C14   A    
C3    C63   A    
C22   C27   A    
C9    C11   A    
C10   H4    S    
C14   C16   A    
C60   N10   A    
N1    N15   A    
C34   C68   S    
S1    O1    D    
C45   H27   S    
C35   S1    S    
N6    N10   A    
C33   C67   S    
S4    O10   D    
C19   H41   S    
C15   C17   A    
C21   C25   A    
N9    Ni2   S    
C6    C46   A    
C16   H8    S    
C26   C28   A    
C9    H3    S    
N2    N16   A    
S2    O4    D    
S1    O2    D    
O6    H44   S    
C45   N5    A    
N3    Ni2   S    
O3    H43   S    
C1    C67   A    
C59   H47   S    
C25   C27   A    
C4    C64   A    
C2    C68   A    
C64   N14   A    
C37   H21   S    
O9    H45   S    
C49   H25   S    
C13   C15   A    
N11   Ni1   S    
C22   H12   S    
C37   C39   A    
C2    H2    S    
S3    O7    D    
C30   C32   D    
C11   C13   A    
C7    C26   S    
C36   C38   A    
C17   C19   A    
C36   C48   A    
C48   H18   S    
C1    H1    S    
C56   H37   S    
C62   N12   A    
N13   Ni4   S    
C46   H28   S    
C59   N9    A    
C40   C53   S    
C22   C26   A    
C58   N8    A    
C65   H35   S    
C5    C51   S    
N5    N9    A    
C6    C52   S    
O12   H46   S    
C43   C47   A    
C7    C57   A    
C4    C30   S    
C44   C48   A    
C8    C62   A    
C20   H42   S    
C42   S4    S    
