data_mof_unit_61963.cif
_audit_creation_date              2012-12-10T21:02:08-0500
_audit_creation_method            fapswitch 2.2
_symmetry_space_group_name_H-M    P1
_symmetry_Int_Tables_number       1
_space_group_crystal_system       triclinic
_cell_length_a                    22.271153
_cell_length_b                    22.248974
_cell_length_c                    22.19401
_cell_angle_alpha                 108.310861
_cell_angle_beta                  110.182598
_cell_angle_gamma                 110.128215
_cell_volume                      8441.79293701

loop_
_atom_site_label
_atom_site_type_symbol
_atom_type_description
_atom_site_fract_x
_atom_site_fract_y
_atom_site_fract_z
_atom_type_partial_charge
C1    C     C_R   0.699647 0.850006 0.349957 0.822656
C2    C     C_3   0.024508 0.566270 0.003904 -0.217297
C3    C     C_3   0.023765 0.461936 0.963901 -0.214748
C4    C     C_3   0.976235 0.538063 0.036096 -0.214744
C5    C     C_1   0.221001 0.610477 0.109740 -0.126919
C6    C     C_1   0.778999 0.389523 0.890259 -0.126915
C7    C     C_3   0.025910 0.508795 0.067909 0.235969
C8    C     C_3   0.974090 0.491204 0.932089 0.235969
C9    C     C_3   0.073070 0.536432 0.035537 0.104223
C10   C     C_3   0.926930 0.463567 0.964460 0.104224
C11   C     C_1   0.154224 0.577056 0.075937 -0.008894
C12   C     C_R   0.300353 0.149994 0.650042 0.822656
C13   C     C_1   0.845776 0.422943 0.924061 -0.008890
C14   C     C_R   0.258533 0.498466 0.963950 -0.144301
C15   C     C_R   0.741462 0.501530 0.036040 -0.144294
C16   C     C_R   0.300411 0.650179 0.149987 0.816723
C17   C     C_R   0.699589 0.349821 0.850012 0.816725
C18   C     C_R   0.321368 0.491142 0.984102 -0.160849
C19   C     C_R   0.678629 0.508857 0.015892 -0.160849
C20   C     C_R   0.367903 0.511297 0.955832 0.141466
C21   C     C_R   0.632098 0.488704 0.044167 0.141463
C22   C     C_R   0.349716 0.536883 0.905737 -0.176156
C23   C     C_3   0.544033 0.496876 0.472294 0.224063
C24   C     C_R   0.650288 0.463120 0.094263 -0.176159
C25   C     C_R   0.286902 0.544156 0.885747 -0.149951
C26   C     C_R   0.713100 0.455846 0.114249 -0.149949
C27   C     C_R   0.241613 0.525481 0.915211 0.237874
C28   C     C_R   0.758385 0.474515 0.084780 0.237876
C29   C     C_R   0.440395 0.456706 0.927564 -0.246513
C30   C     C_R   0.559605 0.543294 0.072436 -0.246513
C31   C     C_R   0.502641 0.448308 0.947018 -0.058425
C32   C     C_R   0.497360 0.551692 0.052982 -0.058425
C33   C     C_R   0.563423 0.492673 0.020260 0.005196
C34   C     C_3   0.455967 0.503124 0.527706 0.224063
C35   C     C_R   0.436577 0.507327 0.979740 0.005193
C36   C     C_3   0.024890 0.987736 0.556707 -0.159651
C37   C     C_3   0.975110 0.012264 0.443293 -0.159650
C38   C     C_3   0.975763 0.022972 0.545286 -0.161295
C39   C     C_3   0.024237 0.977028 0.454713 -0.161295
C40   C     C_R   0.499289 0.890286 0.389570 0.790378
C41   C     C_R   0.500711 0.109714 0.610430 0.790381
C42   C     C_1   0.779105 0.889866 0.389703 -0.136281
C43   C     C_1   0.220895 0.110134 0.610296 -0.136281
C44   C     C_3   0.974900 0.927817 0.474376 -0.153677
C45   C     C_3   0.499984 0.536563 0.463458 0.105137
C46   C     C_3   0.025100 0.072183 0.525624 -0.153676
C47   C     C_3   0.927065 0.963698 0.463601 0.192752
C48   C     C_3   0.072935 0.036302 0.536399 0.192752
C49   C     C_1   0.845910 0.923252 0.423084 -0.074238
C50   C     C_1   0.154090 0.076747 0.576916 -0.074238
C51   C     C_3   0.478274 0.047659 0.023112 -0.160809
C52   C     C_3   0.521725 0.952341 0.976888 -0.160809
C53   C     C_3   0.431127 0.963128 0.987685 -0.158406
C54   C     C_3   0.568872 0.036872 0.012315 -0.158405
C55   C     C_1   0.499819 0.889365 0.110235 -0.136298
C56   C     C_3   0.500016 0.463437 0.536542 0.105137
C57   C     C_1   0.500181 0.110635 0.889765 -0.136297
C58   C     C_3   0.547028 0.047292 0.072401 -0.154512
C59   C     C_3   0.452972 0.952708 0.927599 -0.154512
C60   C     C_3   0.499881 0.963406 0.036330 0.191986
C61   C     C_3   0.500119 0.036594 0.963670 0.191985
C62   C     C_1   0.499797 0.922737 0.076812 -0.073274
C63   C     C_1   0.500202 0.077262 0.923188 -0.073274
C64   C     C_R   0.498936 0.608843 0.109575 0.796275
C65   C     C_R   0.501064 0.391157 0.890425 0.796275
C66   C     C_R   0.265313 0.794681 0.251561 -0.137981
C67   C     C_1   0.499922 0.577170 0.422925 -0.007194
C68   C     C_R   0.734685 0.205308 0.748444 -0.137991
C69   C     C_R   0.334157 0.855971 0.308992 -0.130292
C70   C     C_R   0.665841 0.144021 0.691009 -0.130305
C71   C     C_R   0.357651 0.871484 0.382365 0.133207
C72   C     C_R   0.642349 0.128515 0.617638 0.133206
C73   C     C_R   0.310477 0.825493 0.397311 -0.146337
C74   C     C_R   0.689526 0.174510 0.602698 -0.146328
C75   C     C_R   0.241609 0.764267 0.339662 -0.105997
C76   C     C_R   0.758395 0.235735 0.660352 -0.105991
C77   C     C_R   0.219138 0.748782 0.266853 -0.079775
C78   C     C_1   0.500077 0.422830 0.577075 -0.007194
C79   C     C_R   0.780863 0.251212 0.733158 -0.079779
C80   C     C_R   0.434372 0.989325 0.499921 -0.245014
C81   C     C_R   0.565628 0.010676 0.500078 -0.245010
C82   C     C_R   0.501951 0.053542 0.555741 -0.047099
C83   C     C_R   0.498049 0.946459 0.444259 -0.047100
C84   C     C_R   0.568660 0.064213 0.556651 0.003607
C85   C     C_R   0.431340 0.935788 0.443349 0.003607
C86   C     C_R   0.499975 0.849819 0.150140 0.823219
C87   C     C_R   0.500025 0.150180 0.849860 0.823219
C88   C     C_R   0.500008 0.650277 0.349835 0.817524
C89   C     C_3   0.975492 0.433729 0.996094 -0.217294
C90   C     C_R   0.499992 0.349723 0.650165 0.817524
C91   C     C_3   0.474729 0.429435 0.454054 -0.219400
C92   C     C_3   0.525271 0.570565 0.545945 -0.219400
C93   C     C_3   0.430393 0.469776 0.444764 -0.213563
C94   C     C_3   0.569607 0.530224 0.555236 -0.213563
C95   C     C_1   0.499953 0.610565 0.389544 -0.116548
C96   C     C_1   0.500047 0.389435 0.610456 -0.116548
H1    H     H_    0.373166 0.445496 0.399206 0.169909
H2    H     H_    0.045158 0.958640 0.417994 0.140193
H3    H     H_    0.046348 0.978149 0.603811 0.141096
H4    H     H_    0.953652 0.021851 0.396189 0.141096
H5    H     H_    0.046734 0.132013 0.547187 0.145443
H6    H     H_    0.953265 0.867987 0.452813 0.145442
H7    H     H_    0.374516 0.932316 0.978051 0.143186
H8    H     H_    0.625484 0.067683 0.021949 0.143187
H9    H     H_    0.460428 0.087337 0.041621 0.141258
H10   H     H_    0.539571 0.912663 0.958379 0.141258
H11   H     H_    0.414318 0.914332 0.867591 0.144573
H12   H     H_    0.626834 0.554504 0.600793 0.169909
H13   H     H_    0.585682 0.085668 0.132409 0.144573
H14   H     H_    0.165918 0.701325 0.222284 0.150604
H15   H     H_    0.834083 0.298667 0.777730 0.150597
H16   H     H_    0.454257 0.371169 0.416747 0.166280
H17   H     H_    0.545743 0.628831 0.583253 0.166280
H18   H     H_    0.247797 0.782694 0.195165 0.125146
H19   H     H_    0.752200 0.217289 0.804838 0.125150
H20   H     H_    0.369272 0.891182 0.296318 0.105664
H21   H     H_    0.630724 0.108805 0.703678 0.105670
H22   H     H_    0.327425 0.836543 0.453421 0.136943
H23   H     H_    0.384959 0.552496 0.883356 0.148570
H24   H     H_    0.672581 0.163466 0.546591 0.136941
H25   H     H_    0.205718 0.728699 0.351416 0.156026
H26   H     H_    0.794287 0.271307 0.648602 0.156029
H27   H     H_    0.383260 0.982198 0.498878 0.158591
H28   H     H_    0.616740 0.017803 0.501121 0.158592
H29   H     H_    0.044038 0.431216 0.934503 0.175151
H30   H     H_    0.955962 0.568784 0.065495 0.175151
H31   H     H_    0.954482 0.379079 0.992822 0.169346
H32   H     H_    0.045518 0.620921 0.007175 0.169346
H33   H     H_    0.223509 0.483897 0.986768 0.140182
H34   H     H_    0.615048 0.447511 0.116649 0.148571
H35   H     H_    0.776483 0.516094 0.013217 0.140179
H36   H     H_    0.334520 0.471019 0.022572 0.119649
H37   H     H_    0.665475 0.528978 0.977421 0.119646
H38   H     H_    0.273849 0.564938 0.847916 0.162812
H39   H     H_    0.726156 0.435065 0.152081 0.162812
H40   H     H_    0.393320 0.422196 0.871701 0.174228
H41   H     H_    0.606680 0.577804 0.128299 0.174227
H42   H     H_    0.954842 0.041360 0.582006 0.140193
I1    I     I_    0.385527 0.508161 0.572018 -0.360252
I2    I     I_    0.614473 0.491838 0.427982 -0.360252
I3    I     I_    0.930456 0.476481 0.823098 -0.352085
I4    I     I_    0.069543 0.523518 0.176899 -0.352089
I5    I     I_    0.148742 0.539391 0.886994 -0.367355
I6    I     I_    0.851252 0.460598 0.112988 -0.367363
O1    O     O_3   0.500050 0.750060 0.250070 -0.488086
O2    O     O_R   0.664320 0.341000 0.884100 -0.630508
O3    O     O_R   0.664480 0.780430 0.323540 -0.632811
O4    O     O_R   0.335520 0.219570 0.676460 -0.632810
O5    O     O_R   0.335610 0.676590 0.219700 -0.621635
O6    O     O_R   0.664390 0.323410 0.780300 -0.621634
O7    O     O_R   0.543050 0.908950 0.365840 -0.646233
O8    O     O_R   0.456950 0.091050 0.634160 -0.646234
O9    O     O_R   0.457060 0.634290 0.091200 -0.632195
O10   O     O_R   0.542940 0.365710 0.908800 -0.632195
O11   O     O_R   0.543140 0.884190 0.219790 -0.636989
O12   O     O_3   0.499950 0.249940 0.749930 -0.488086
O13   O     O_R   0.456860 0.115810 0.780210 -0.636989
O14   O     O_R   0.543170 0.659080 0.323490 -0.627381
O15   O     O_R   0.456830 0.340920 0.676510 -0.627381
O16   O     O_R   0.456990 0.780350 0.115960 -0.631247
O17   O     O_R   0.543010 0.219650 0.884040 -0.631246
O18   O     O_R   0.456900 0.676640 0.341050 -0.633041
O19   O     O_R   0.543100 0.323360 0.658950 -0.633041
O20   O     O_R   0.456830 0.822700 0.365800 -0.626550
O21   O     O_R   0.543170 0.177300 0.634200 -0.626549
O22   O     O_R   0.543260 0.634320 0.177440 -0.644003
O23   O     O_R   0.456740 0.365680 0.822560 -0.644003
O24   O     O_R   0.664430 0.884240 0.341140 -0.637789
O25   O     O_R   0.335570 0.115760 0.658860 -0.637789
O26   O     O_R   0.335680 0.659000 0.115900 -0.630508
Zn1   Zn    Zn3+2 0.438420 0.731820 0.293400 0.993147
Zn2   Zn    Zn3+2 0.561580 0.268180 0.706600 0.993148
Zn3   Zn    Zn3+2 0.561600 0.855040 0.293450 0.971630
Zn4   Zn    Zn3+2 0.438400 0.144960 0.706550 0.971630
Zn5   Zn    Zn3+2 0.438510 0.706680 0.145100 0.985048
Zn6   Zn    Zn3+2 0.561490 0.293320 0.854900 0.985049
Zn7   Zn    Zn3+2 0.561670 0.706730 0.268320 0.982920
Zn8   Zn    Zn3+2 0.438330 0.293270 0.731680 0.982920

loop_
_geom_bond_atom_site_label_1
_geom_bond_atom_site_label_2
_ccdc_geom_bond_type
O1    Zn1   S    
C69   H20   S    
C34   C56   S    
C23   C45   S    
C58   H13   S    
C14   C18   A    
C18   H36   S    
C17   O6    A    
C51   C61   S    
C34   C93   S    
C12   O25   A    
C45   C93   S    
C53   C59   S    
C47   C49   S    
C41   O8    A    
C56   C94   S    
C94   H12   S    
C80   C85   A    
C74   C76   A    
O7    Zn3   S    
C37   H4    S    
C54   H8    S    
C19   C21   A    
O14   Zn7   S    
C24   C26   A    
C5    C11   T    
C12   C43   S    
C89   H31   S    
C31   C65   S    
C66   C69   A    
C21   C33   S    
C70   H21   S    
C58   C60   S    
C7    C89   S    
C55   C62   T    
C34   I1    S    
C56   C78   S    
C60   C62   S    
C90   O15   A    
C61   C63   S    
C45   C92   S    
C5    C16   S    
C64   O22   A    
C26   H39   S    
C52   C60   S    
C71   C85   S    
C20   C35   S    
O12   Zn8   S    
C56   C91   S    
O6    Zn2   S    
O18   Zn1   S    
O1    Zn5   S    
C10   C89   S    
C78   C96   T    
C22   C25   A    
O2    Zn6   S    
C45   C67   S    
C27   I5    S    
O25   Zn4   S    
C31   C33   A    
C16   O5    A    
C28   I6    S    
C88   O14   A    
C14   C27   A    
C37   C47   S    
C92   H17   S    
C44   C47   S    
O13   Zn4   S    
O8    Zn4   S    
O11   Zn3   S    
C68   C79   A    
C48   C50   S    
C88   C95   S    
C52   H10   S    
C30   H41   S    
O5    Zn1   S    
C67   C95   T    
C73   C75   A    
C40   C83   S    
C22   H23   S    
C4    C7    S    
C81   C83   A    
C53   C60   S    
C52   C54   S    
C57   C63   T    
O26   Zn5   S    
O24   Zn3   S    
C37   C39   S    
C46   H5    S    
C46   C48   S    
C59   C61   S    
C69   C71   A    
C81   H28   S    
C15   C19   A    
C32   C35   A    
C23   I2    S    
C32   C64   S    
C80   C82   A    
C3    C8    S    
O22   Zn7   S    
O17   Zn6   S    
C44   H6    S    
C39   H2    S    
C42   C49   T    
C1    O24   A    
C64   O9    A    
O12   Zn2   S    
C59   H11   S    
C87   O13   A    
C40   O7    A    
C41   O21   A    
C51   C53   S    
C91   H16   S    
C2    C4    S    
C86   O11   A    
C65   O10   A    
C3    C9    S    
C52   C59   S    
C24   H34   S    
C91   C93   S    
C9    C11   S    
O3    Zn7   S    
C51   H9    S    
O12   Zn4   S    
O23   Zn8   S    
C92   C94   S    
C38   H42   S    
C51   C58   S    
C72   C84   S    
C90   C96   S    
C25   H38   S    
C75   C77   A    
C38   C47   S    
C8    I3    S    
C72   C74   A    
C83   C85   A    
C20   C22   A    
C82   C84   A    
O16   Zn5   S    
C23   C91   S    
C36   C44   S    
C19   H37   S    
O9    Zn5   S    
O15   Zn8   S    
C4    C10   S    
C93   H1    S    
C81   C84   A    
C76   C79   A    
C71   C73   A    
C54   C58   S    
C7    C9    S    
C6    C17   S    
C29   C35   A    
O12   Zn6   S    
O4    Zn8   S    
C73   H22   S    
C66   H18   S    
C30   C33   A    
C87   O17   A    
C75   H25   S    
C8    C10   S    
C2    C8    S    
O1    Zn3   S    
C10   C13   S    
C3    H29   S    
C43   C50   T    
C40   O20   A    
C39   C44   S    
C54   C61   S    
C79   H15   S    
C25   C27   A    
C74   H24   S    
C65   O23   A    
C26   C28   A    
C23   C94   S    
C4    H30   S    
C90   O19   A    
C3    C89   S    
C76   H26   S    
C16   O26   A    
C12   O4    A    
C55   C86   S    
C36   C38   S    
C17   O2    A    
C29   C31   A    
C6    C13   T    
C30   C32   A    
C15   C28   A    
C53   H7    S    
O19   Zn2   S    
C88   O18   A    
C41   C82   S    
O21   Zn2   S    
C36   C48   S    
C36   H3    S    
C18   C20   A    
C66   C77   A    
C77   H14   S    
C34   C92   S    
C38   C46   S    
C1    O3    A    
C68   H19   S    
C57   C87   S    
C1    C42   S    
C29   H40   S    
C15   H35   S    
C68   C70   A    
C21   C24   A    
O1    Zn7   S    
O20   Zn1   S    
C70   C72   A    
O10   Zn6   S    
C37   C46   S    
C2    C9    S    
C86   O16   A    
C80   H27   S    
C7    I4    S    
C39   C48   S    
C14   H33   S    
C2    H32   S    
