data_mof_unit_45402.cif
_audit_creation_date              2012-12-11T14:50:33-0500
_audit_creation_method            fapswitch 2.2
_symmetry_space_group_name_H-M    P1
_symmetry_Int_Tables_number       1
_space_group_crystal_system       triclinic
_cell_length_a                    10.87264
_cell_length_b                    10.984748
_cell_length_c                    18.837913
_cell_angle_alpha                 90.066478
_cell_angle_beta                  90.138412
_cell_angle_gamma                 59.943688
_cell_volume                      1947.33443136

loop_
_atom_site_label
_atom_site_type_symbol
_atom_type_description
_atom_site_fract_x
_atom_site_fract_y
_atom_site_fract_z
_atom_type_partial_charge
C1    C     C_R   0.239315 0.644939 0.610433 0.564002
C2    C     C_3   0.637633 0.587543 0.799378 0.253162
C3    C     C_3   0.705095 0.680817 0.809717 -0.021793
C4    C     C_3   0.676095 0.650869 0.674114 -0.003795
C5    C     C_3   0.836759 0.587640 0.693496 0.169690
C6    C     C_3   0.620301 0.569744 0.719765 -0.147979
C7    C     C_R   0.786003 0.174423 0.715951 -0.024197
C8    C     C_R   0.797556 0.150877 0.789628 -0.130692
C9    C     C_R   0.679645 0.174792 0.829616 0.001584
C10   C     C_R   0.546079 0.233343 0.798061 -0.098818
C11   C     C_R   0.533452 0.248916 0.725825 -0.152587
C12   C     C_R   0.656555 0.623662 0.599567 0.561472
C13   C     C_R   0.651718 0.214868 0.683283 -0.008886
C14   C     C_R   0.189104 0.554071 0.722480 0.340854
C15   C     C_R   0.182523 0.556751 0.796566 0.307085
C16   C     C_R   0.181548 0.668018 0.834570 0.002410
C17   C     C_R   0.206245 0.764575 0.798118 0.374733
C18   C     C_R   0.212406 0.761576 0.724965 -0.174988
C19   C     C_R   0.202906 0.657906 0.686031 -0.117917
C20   C     C_R   0.708708 0.509664 0.267146 -0.112702
C21   C     C_R   0.723914 0.525648 0.195510 0.380931
C22   C     C_R   0.644822 0.658263 0.163436 0.021547
C23   C     C_R   0.620291 0.245840 0.607516 0.518200
C24   C     C_R   0.537722 0.768388 0.201901 -0.145266
C25   C     C_R   0.512529 0.752749 0.273495 -0.008401
C26   C     C_R   0.609963 0.622191 0.308463 -0.038451
C27   C     C_R   0.521967 0.189053 0.284513 0.353274
C28   C     C_R   0.519840 0.187753 0.211169 -0.027803
C29   C     C_R   0.644644 0.165410 0.174985 0.006667
C30   C     C_R   0.758571 0.162039 0.212985 0.395239
C31   C     C_R   0.754910 0.169517 0.285786 -0.164522
C32   C     C_R   0.637134 0.184317 0.321743 -0.037321
C33   C     C_R   0.042094 0.732051 0.307115 -0.100714
C34   C     C_R   0.221351 0.649276 0.401707 0.531927
C35   C     C_R   0.012535 0.742691 0.235128 0.392455
C36   C     C_R   0.124976 0.681193 0.186211 0.044908
C37   C     C_R   0.265788 0.605468 0.208315 -0.224292
C38   C     C_R   0.294668 0.590479 0.280126 -0.111383
C39   C     C_R   0.183118 0.657043 0.328908 0.000350
C40   C     C_R   0.699235 0.107213 0.898041 0.526429
C41   C     C_R   0.728161 0.692325 0.886186 0.592232
C42   C     C_R   0.118965 0.705797 0.905757 0.571824
C43   C     C_R   0.673263 0.108855 0.103627 0.600976
C44   C     C_R   0.693361 0.687606 0.096268 0.600645
C45   C     C_R   0.613444 0.592301 0.385570 0.546558
C46   C     C_R   0.091847 0.709765 0.112770 0.566681
C47   C     C_R   0.616171 0.229625 0.394736 0.550054
C48   C     C_3   0.613443 0.828628 0.773597 0.354526
C49   C     C_3   0.585289 0.811143 0.694292 0.317276
C50   C     C_3   0.851681 0.610518 0.772307 -0.282108
Cr1   Cr    Cr6+3 0.392930 0.397900 0.502230 1.112160
Cr2   Cr    Cr6+3 0.398240 0.708600 0.501260 1.028002
Cr3   Cr    Cr6+3 0.708800 0.393470 0.496460 1.028941
Cr4   Cr    Cr6+3 0.937620 0.938540 0.007640 1.145915
Cr5   Cr    Cr6+3 0.625150 0.937450 0.994520 1.109254
Cr6   Cr    Cr6+3 0.937990 0.625080 0.001190 1.112756
H1    H     H_    0.671343 0.888018 0.777843 0.053166
H2    H     H_    0.680100 0.456095 0.706744 0.125547
H3    H     H_    0.925221 0.507008 0.796980 0.265434
H4    H     H_    0.899210 0.106006 0.816072 0.164295
H5    H     H_    0.452780 0.255089 0.828467 0.219689
H6    H     H_    0.429731 0.285542 0.702995 0.224280
H7    H     H_    0.229409 0.838911 0.698678 0.241893
H8    H     H_    0.779003 0.408599 0.291048 0.162131
H9    H     H_    0.477666 0.869381 0.176430 0.136638
H10   H     H_    0.843240 0.166815 0.313991 0.152250
H11   H     H_    0.956701 0.782877 0.345295 0.129552
H12   H     H_    0.352176 0.560752 0.170415 0.114955
H13   H     H_    0.404148 0.531501 0.297843 0.118542
H14   H     H_    0.899621 0.678695 0.778370 0.066868
H15   H     H_    0.890270 0.631560 0.662149 0.181061
H16   H     H_    0.707527 0.482023 0.823280 0.125447
H17   H     H_    0.507394 0.604965 0.707411 0.193704
O1    O     O_R   0.507430 0.255570 0.581420 -0.506458
O2    O     O_R   0.524460 0.695920 0.424060 -0.514791
O3    O     O_R   0.736530 0.504260 0.414810 -0.499603
O4    O     O_R   0.691460 0.277160 0.422180 -0.545077
O5    O     O_3   0.499990 0.499990 0.499980 -0.301271
O6    O     O_R   0.089490 0.825610 0.930610 -0.452062
O7    O     O_R   0.818370 0.054540 0.929880 -0.512453
O8    O     O_R   0.605870 0.077310 0.915530 -0.496515
O9    O     O_R   0.646440 0.806700 0.917570 -0.415376
O10   O     O_R   0.837200 0.593290 0.915250 -0.524362
O11   O     O_R   0.065330 0.635370 0.931590 -0.473178
O12   O     O_R   0.280190 0.527390 0.578910 -0.437214
O13   O     O_R   0.068300 0.828790 0.091860 -0.466863
O14   O     O_R   0.798730 0.057480 0.079370 -0.399757
O15   O     O_R   0.584680 0.080480 0.076790 -0.547258
O16   O     O_R   0.626790 0.809640 0.067050 -0.513474
O17   O     O_R   0.816010 0.596460 0.076500 -0.423012
O18   O     O_R   0.045680 0.638310 0.081070 -0.502229
O19   O     O_3   0.833590 0.833690 0.001120 -0.304042
O20   O     O_R   0.260310 0.739740 0.584580 -0.516470
O21   O     O_R   0.532250 0.695150 0.573830 -0.467659
O22   O     O_R   0.744930 0.503430 0.576380 -0.458837
O23   O     O_R   0.699250 0.276390 0.571950 -0.525824
O24   O     O_R   0.499020 0.256400 0.419850 -0.418246
O25   O     O_R   0.272400 0.528160 0.429140 -0.473058
O26   O     O_R   0.251910 0.740570 0.423020 -0.545525
F1    F     F_    0.913123 0.444953 0.679777 -0.617818
C51   C     C_3   0.915581 0.152262 0.673661 -0.285606
C52   C     C_3   0.038723 0.143230 0.717531 -0.336801
H18   H     H_    0.000856 0.234820 0.753749 0.227474
H19   H     H_    0.088955 0.047173 0.749745 0.201167
H20   H     H_    0.120760 0.141031 0.681654 0.225567
H21   H     H_    0.954497 0.056677 0.640159 0.140844
H22   H     H_    0.885796 0.243538 0.638889 0.254160
F2    F     F_    0.179313 0.451915 0.686712 -0.569515
F3    F     F_    0.170254 0.454487 0.830596 -0.602083
F4    F     F_    0.222362 0.863873 0.833149 -0.522092
F5    F     F_    0.484858 0.907630 0.808602 -0.472928
F6    F     F_    0.824827 0.413163 0.159175 -0.568064
C53   C     C_3   0.390412 0.883167 0.308470 -0.265290
C54   C     C_3   0.252350 0.950922 0.264872 -0.395833
H23   H     H_    0.259643 0.008117 0.218127 0.163105
H24   H     H_    0.226204 0.870560 0.246883 0.182004
H25   H     H_    0.163172 0.028871 0.298082 0.174608
H26   H     H_    0.358229 0.863946 0.360174 0.211976
H27   H     H_    0.424583 0.961792 0.316589 0.218192
F7    F     F_    0.408602 0.197751 0.319715 -0.640826
C55   C     C_3   0.387057 0.199254 0.175464 -0.218390
C56   C     C_3   0.319431 0.316020 0.119737 -0.379379
H28   H     H_    0.224770 0.407324 0.142802 0.169347
H29   H     H_    0.393688 0.350238 0.100390 0.144361
H30   H     H_    0.282991 0.279166 0.073628 0.170984
H31   H     H_    0.411781 0.096973 0.152257 0.161560
H32   H     H_    0.301887 0.219753 0.214076 0.213207
F8    F     F_    0.877692 0.144555 0.180388 -0.560389
F9    F     F_    0.442965 0.849731 0.689330 -0.584975
F10   F     F_    0.875375 0.817046 0.212790 -0.640467
C57   C     C_3   0.598700 0.916577 0.644004 -0.246682
C58   C     C_3   0.748061 0.885453 0.624787 -0.512024
H33   H     H_    0.814324 0.866684 0.672920 0.120169
H34   H     H_    0.797549 0.796924 0.586606 0.146924
H35   H     H_    0.742133 0.975512 0.595830 0.171710
H36   H     H_    0.542167 0.925036 0.593401 0.199078
H37   H     H_    0.540335 0.022325 0.668425 0.192184
F11   F     F_    0.507568 0.645954 0.833260 -0.554405

loop_
_geom_bond_atom_site_label_1
_geom_bond_atom_site_label_2
_ccdc_geom_bond_type
Cr1   O24   S    
C31   H10   S    
C51   H22   S    
C51   C52   S    
Cr3   O22   S    
C15   F3    S    
C35   C36   A    
Cr1   O1    S    
C11   H6    S    
C17   F4    S    
Cr1   O12   S    
C54   H23   S    
C48   H1    S    
C27   F7    S    
C49   C57   S    
C33   C39   A    
Cr6   O10   S    
C45   O3    A    
C50   H3    S    
C36   C37   A    
C37   C38   A    
C55   H32   S    
Cr4   O14   S    
C2    H16   S    
C18   H7    S    
C15   C16   A    
C41   O10   A    
C37   H12   S    
C3    C48   S    
C23   O23   A    
C13   C23   S    
C52   H20   S    
C18   C19   A    
Cr5   O15   S    
C6    H2    S    
C26   C45   S    
C34   O25   A    
C53   H27   S    
Cr6   O18   S    
C22   C44   S    
C8    C9    A    
C40   O7    A    
C12   O22   A    
C36   C46   S    
Cr5   O8    S    
C9    C10   A    
Cr2   O2    S    
Cr1   O25   S    
C14   F2    S    
C38   H13   S    
C42   O6    A    
C21   C22   A    
C29   C43   S    
Cr3   O23   S    
C12   O21   A    
C2    C6    S    
Cr2   O5    S    
C40   O8    A    
C3    C50   S    
Cr6   O11   S    
Cr4   O7    S    
C1    O12   A    
C38   C39   A    
C30   F8    S    
C1    C19   S    
C34   C39   S    
C2    F11   S    
C7    C8    A    
C42   O11   A    
C24   C25   A    
C4    C6    S    
C57   H36   S    
Cr4   O13   S    
C28   C55   S    
C16   C17   A    
C46   O18   A    
C25   C26   A    
C49   F9    S    
C9    C40   S    
C20   H8    S    
Cr3   O4    S    
Cr4   O19   S    
C29   C30   A    
C57   H37   S    
C25   C53   S    
Cr2   O21   S    
C31   C32   A    
C5    F1    S    
C7    C13   A    
C17   C18   A    
Cr2   O20   S    
Cr5   O9    S    
C52   H19   S    
C35   F10   S    
C55   C56   S    
C24   H9    S    
C1    O20   A    
C48   C49   S    
Cr5   O19   S    
C32   C47   S    
C22   C24   A    
C5    C50   S    
C10   H5    S    
C4    C12   S    
C43   O15   A    
C23   O1    A    
C56   H29   S    
C57   C58   S    
C16   C42   S    
C21   F6    S    
C44   O17   A    
C33   H11   S    
C6    H17   S    
C53   C54   S    
C51   H21   S    
C28   C29   A    
C27   C32   A    
C14   C19   A    
C4    C5    S    
C54   H24   S    
C34   O26   A    
Cr2   O26   S    
C47   O24   A    
C4    C49   S    
C45   O2    A    
C43   O14   A    
C56   H30   S    
C2    C3    S    
C50   H14   S    
Cr1   O5    S    
C55   H31   S    
C5    H15   S    
C8    H4    S    
C11   C13   A    
C30   C31   A    
C20   C26   A    
C58   H35   S    
C41   O9    A    
Cr6   O17   S    
C33   C35   A    
C58   H33   S    
C52   H18   S    
Cr5   O16   S    
C54   H25   S    
C3    C41   S    
C10   C11   A    
Cr4   O6    S    
Cr3   O5    S    
C53   H26   S    
Cr3   O3    S    
Cr6   O19   S    
C48   F5    S    
C20   C21   A    
C58   H34   S    
C7    C51   S    
C27   C28   A    
C47   O4    A    
C14   C15   A    
C56   H28   S    
C44   O16   A    
C46   O13   A    
