data_mof_unit_56830.cif
_audit_creation_date              2012-12-10T17:21:00-0500
_audit_creation_method            fapswitch 2.2
_symmetry_space_group_name_H-M    P1
_symmetry_Int_Tables_number       1
_space_group_crystal_system       triclinic
_cell_length_a                    18.237176
_cell_length_b                    25.90514
_cell_length_c                    18.297961
_cell_angle_alpha                 89.969562
_cell_angle_beta                  90.000164
_cell_angle_gamma                 90.020256
_cell_volume                      8644.62467565

loop_
_atom_site_label
_atom_site_type_symbol
_atom_type_description
_atom_site_fract_x
_atom_site_fract_y
_atom_site_fract_z
_atom_type_partial_charge
C1    C     C_R   0.389792 0.249956 0.139780 0.787112
C2    C     C_R   0.576304 0.348079 0.879321 -0.153528
C3    C     C_R   0.923593 0.347813 0.120262 -0.154400
C4    C     C_R   0.423860 0.848132 0.379263 -0.153201
C5    C     C_R   0.423683 0.151935 0.620684 -0.153530
C6    C     C_R   0.393390 0.199231 0.409550 -0.145205
C7    C     C_R   0.393369 0.800575 0.590370 -0.145389
C8    C     C_R   0.964204 0.284322 0.892952 -0.146178
C9    C     C_R   0.964198 0.715597 0.107081 -0.145895
C10   C     C_R   0.984168 0.684591 0.873330 -0.148203
C11   C     C_R   0.984319 0.315489 0.126742 -0.148102
C12   C     C_R   0.484497 0.815713 0.372940 -0.148320
C13   C     C_R   0.606596 0.300787 0.090447 -0.145208
C14   C     C_R   0.484376 0.184332 0.627021 -0.148443
C15   C     C_R   0.464179 0.215741 0.393040 -0.145394
C16   C     C_R   0.464160 0.784118 0.606903 -0.145701
C17   C     C_R   0.384641 0.047008 0.962470 -0.115709
C18   C     C_R   0.385256 0.953144 0.035493 -0.115622
C19   C     C_R   0.884684 0.547018 0.462565 -0.116335
C20   C     C_R   0.885271 0.453128 0.535496 -0.116421
C21   C     C_R   0.451021 0.023017 0.978758 -0.145655
C22   C     C_R   0.451350 0.977202 0.018165 -0.146107
C23   C     C_R   0.951057 0.523022 0.478856 -0.145052
C24   C     C_R   0.606618 0.699410 0.909634 -0.145393
C25   C     C_R   0.951371 0.477189 0.518211 -0.145696
C26   C     C_R   0.317375 0.974711 0.013248 0.074231
C27   C     C_R   0.317148 0.025345 0.985725 0.074033
C28   C     C_R   0.817394 0.474706 0.513260 0.074677
C29   C     C_R   0.817176 0.525347 0.485766 0.074464
C30   C     C_R   0.250151 0.947443 0.018034 -0.220588
C31   C     C_R   0.249870 0.052557 0.981962 -0.220618
C32   C     C_R   0.750163 0.447443 0.518038 -0.220618
C33   C     C_R   0.749893 0.552557 0.481967 -0.220588
C34   C     C_R   0.182869 0.974654 0.014262 0.074458
C35   C     C_R   0.106538 0.199088 0.590604 -0.145889
C36   C     C_R   0.182643 0.025292 0.986756 0.074683
C37   C     C_R   0.682888 0.474658 0.514259 0.074041
C38   C     C_R   0.682670 0.525288 0.486725 0.074225
C39   C     C_R   0.115371 0.952987 0.037496 -0.116307
C40   C     C_R   0.114757 0.046863 0.964530 -0.116389
C41   C     C_R   0.615387 0.453001 0.537503 -0.115684
C42   C     C_R   0.614798 0.546851 0.464447 -0.115600
C43   C     C_R   0.048991 0.976979 0.021220 -0.145038
C44   C     C_R   0.048663 0.022804 0.981846 -0.145704
C45   C     C_R   0.549013 0.476989 0.521186 -0.145663
C46   C     C_R   0.106555 0.801009 0.409353 -0.145743
C47   C     C_R   0.548698 0.522796 0.481760 -0.146089
C48   C     C_R   0.249977 0.109060 0.992112 0.807539
C49   C     C_R   0.250048 0.890940 0.007887 0.807493
C50   C     C_R   0.749981 0.609060 0.492113 0.807491
C51   C     C_R   0.750049 0.390940 0.507888 0.807538
C52   C     C_R   0.249965 0.391397 0.999896 0.740598
C53   C     C_R   0.249961 0.608601 0.999921 0.740607
C54   C     C_R   0.749964 0.891398 0.500079 0.740607
C55   C     C_R   0.749960 0.108603 0.500104 0.740597
C56   C     C_3   0.180856 0.470084 0.039124 -0.393251
C57   C     C_R   0.076618 0.847706 0.620152 -0.154736
C58   C     C_3   0.249950 0.529710 0.920103 -0.378353
C59   C     C_3   0.180854 0.529839 0.039139 -0.393838
C60   C     C_3   0.249952 0.470350 0.920085 -0.378991
C61   C     C_3   0.749947 0.970290 0.579897 -0.378353
C62   C     C_3   0.680853 0.029877 0.460880 -0.393461
C63   C     C_3   0.749945 0.029650 0.579915 -0.378991
C64   C     C_3   0.680859 0.970121 0.460850 -0.393536
C65   C     C_3   0.319075 0.470123 0.039103 -0.393454
C66   C     C_3   0.319069 0.529878 0.039133 -0.393533
C67   C     C_3   0.819074 0.970161 0.460878 -0.393831
C68   C     C_R   0.076394 0.152173 0.379743 -0.154398
C69   C     C_3   0.819072 0.029916 0.460893 -0.393246
C70   C     C_3   0.249961 0.449157 0.999566 0.193873
C71   C     C_3   0.249959 0.550839 0.999600 0.193867
C72   C     C_3   0.749960 0.949161 0.500400 0.193866
C73   C     C_3   0.749957 0.050842 0.500434 0.193872
C74   C     C_R   0.143444 0.215407 0.714914 -0.146648
C75   C     C_R   0.143463 0.784636 0.285064 -0.146623
C76   C     C_R   0.123504 0.815684 0.734781 -0.142833
C77   C     C_R   0.123344 0.184219 0.265139 -0.142838
C78   C     C_R   0.623095 0.683950 0.235254 -0.152328
C79   C     C_R   0.515489 0.684272 0.127055 -0.148319
C80   C     C_R   0.623218 0.315993 0.764787 -0.152489
C81   C     C_R   0.643520 0.284463 0.214772 -0.140319
C82   C     C_R   0.643526 0.715642 0.785275 -0.140462
C83   C     C_R   0.160231 0.198965 0.644400 -0.144070
C84   C     C_R   0.160254 0.801115 0.355563 -0.144000
C85   C     C_R   0.130299 0.847851 0.674076 -0.149921
C86   C     C_R   0.130073 0.152022 0.325816 -0.149714
C87   C     C_R   0.629760 0.651670 0.174707 -0.152121
C88   C     C_R   0.629937 0.348258 0.825346 -0.152331
C89   C     C_R   0.660318 0.300866 0.144212 -0.143582
C90   C     C_R   0.515609 0.315683 0.872983 -0.148440
C91   C     C_R   0.660334 0.699314 0.855864 -0.143696
C92   C     C_R   0.535807 0.284277 0.106956 -0.145383
C93   C     C_R   0.389797 0.750052 0.860218 0.787382
C94   C     C_R   0.535827 0.715866 0.893102 -0.145692
C95   C     C_R   0.035782 0.215660 0.607044 -0.146167
C96   C     C_R   0.035788 0.784420 0.392923 -0.145888
C97   C     C_R   0.015818 0.815423 0.626665 -0.148202
C98   C     C_R   0.015666 0.184496 0.373262 -0.148100
C99   C     C_R   0.507339 0.717250 0.188251 0.075287
C100  C     C_R   0.507398 0.282728 0.811767 0.075247
C101  C     C_R   0.517599 0.266589 0.178059 0.071526
C102  C     C_R   0.517609 0.733484 0.821969 0.071458
C103  C     C_R   0.017582 0.233369 0.678106 0.071333
C104  C     C_R   0.389806 0.750032 0.139759 0.787111
C105  C     C_R   0.017584 0.766673 0.321877 0.071385
C106  C     C_R   0.007521 0.782578 0.688038 0.075491
C107  C     C_R   0.007445 0.217381 0.311924 0.075518
C108  C     C_R   0.072132 0.233241 0.732763 0.070056
C109  C     C_R   0.072141 0.766781 0.267226 0.070044
C110  C     C_R   0.062052 0.782698 0.742767 0.073914
C111  C     C_R   0.061968 0.217248 0.257189 0.073867
C112  C     C_R   0.561846 0.717115 0.243003 0.074005
C113  C     C_R   0.561911 0.282852 0.757021 0.074032
C114  C     C_R   0.572167 0.266700 0.232700 0.072013
C115  C     C_R   0.389802 0.249977 0.860243 0.786978
C116  C     C_R   0.572170 0.733353 0.767323 0.071981
C117  C     C_R   0.445993 0.750103 0.195801 -0.152292
C118  C     C_R   0.445983 0.249912 0.804191 -0.152369
C119  C     C_R   0.445945 0.249890 0.195868 -0.157673
C120  C     C_R   0.445953 0.750130 0.804137 -0.157962
C121  C     C_R   0.945957 0.250111 0.695861 -0.158495
C122  C     C_R   0.945949 0.749908 0.304134 -0.158287
C123  C     C_R   0.945981 0.749898 0.695807 -0.152603
C124  C     C_R   0.945992 0.250117 0.304202 -0.152548
C125  C     C_R   0.438140 0.782870 0.256992 0.074011
C126  C     C_R   0.889793 0.749962 0.639756 0.790698
C127  C     C_R   0.438076 0.217162 0.742984 0.074038
C128  C     C_R   0.427820 0.233315 0.267295 0.072023
C129  C     C_R   0.427817 0.766633 0.732682 0.071991
C130  C     C_R   0.927854 0.266744 0.767232 0.070066
C131  C     C_R   0.927845 0.733234 0.232779 0.070054
C132  C     C_R   0.937934 0.717316 0.757228 0.073921
C133  C     C_R   0.938018 0.282737 0.242816 0.073874
C134  C     C_R   0.982404 0.266615 0.821889 0.071326
C135  C     C_R   0.982402 0.733343 0.178128 0.071378
C136  C     C_R   0.992465 0.717437 0.811957 0.075485
C137  C     C_R   0.889798 0.250046 0.360242 0.790784
C138  C     C_R   0.992541 0.282605 0.188080 0.075512
C139  C     C_R   0.492647 0.782735 0.311744 0.075281
C140  C     C_R   0.492588 0.217287 0.688237 0.075241
C141  C     C_R   0.482387 0.233428 0.321936 0.071518
C142  C     C_R   0.482377 0.766500 0.678036 0.071451
C143  C     C_R   0.054029 0.249874 0.804134 -0.158516
C144  C     C_R   0.054038 0.750107 0.195872 -0.158308
C145  C     C_R   0.054006 0.750116 0.804188 -0.152629
C146  C     C_R   0.053994 0.249869 0.195803 -0.152575
C147  C     C_R   0.553993 0.749883 0.304194 -0.152318
C148  C     C_R   0.889809 0.250034 0.639779 0.781720
C149  C     C_R   0.554004 0.250103 0.695814 -0.152396
C150  C     C_R   0.554042 0.250125 0.304127 -0.157694
C151  C     C_R   0.554033 0.749855 0.695868 -0.157983
C152  C     C_R   0.376891 0.816037 0.264740 -0.152312
C153  C     C_R   0.376769 0.184020 0.735219 -0.152479
C154  C     C_R   0.356467 0.215551 0.285222 -0.140315
C155  C     C_R   0.356462 0.784345 0.714731 -0.140458
C156  C     C_R   0.856542 0.284579 0.785081 -0.146646
C157  C     C_R   0.856524 0.715377 0.214941 -0.146616
C158  C     C_R   0.876483 0.684329 0.765213 -0.142821
C159  C     C_R   0.889804 0.749974 0.360223 0.781393
C160  C     C_R   0.876643 0.315768 0.234868 -0.142827
C161  C     C_R   0.370227 0.848316 0.325287 -0.152121
C162  C     C_R   0.370051 0.151755 0.674660 -0.152332
C163  C     C_R   0.339668 0.199150 0.355783 -0.143587
C164  C     C_R   0.339654 0.800674 0.644142 -0.143702
C165  C     C_R   0.839755 0.301018 0.855596 -0.144075
C166  C     C_R   0.839733 0.698897 0.144442 -0.144005
C167  C     C_R   0.869689 0.652162 0.825918 -0.149922
C168  C     C_R   0.869915 0.347965 0.174190 -0.149715
C169  C     C_R   0.110179 0.249954 0.860215 0.781817
C170  C     C_R   0.576126 0.651853 0.120733 -0.153199
C171  C     C_R   0.110184 0.750038 0.139784 0.781486
C172  C     C_R   0.110195 0.750050 0.860236 0.790789
C173  C     C_R   0.110190 0.249942 0.139765 0.790877
C174  C     C_R   0.610182 0.749956 0.360234 0.787200
C175  C     C_R   0.610186 0.250035 0.639764 0.787071
C176  C     C_R   0.610196 0.250055 0.360213 0.787208
C177  C     C_R   0.610191 0.749936 0.639789 0.787475
C178  C     C_R   0.893447 0.300893 0.909393 -0.145888
C179  C     C_R   0.893432 0.699006 0.090652 -0.145741
C180  C     C_R   0.923369 0.652308 0.879843 -0.154738
H1    H     H_    0.179376 0.455840 0.096499 0.184846
H2    H     H_    0.333634 0.182575 0.775798 0.106463
H3    H     H_    0.024663 0.316681 0.083390 0.108947
H4    H     H_    0.524814 0.816889 0.416316 0.109629
H5    H     H_    0.524691 0.183153 0.583645 0.109600
H6    H     H_    0.504244 0.214094 0.436547 0.127716
H7    H     H_    0.504219 0.785753 0.563388 0.127866
H8    H     H_    0.312999 0.213754 0.245104 0.129058
H9    H     H_    0.313000 0.786160 0.754852 0.129147
H10   H     H_    0.813100 0.286400 0.744934 0.126924
H11   H     H_    0.813076 0.713570 0.255085 0.126865
H12   H     H_    0.833307 0.682917 0.724680 0.113434
H13   H     H_    0.833473 0.317188 0.275405 0.113443
H14   H     H_    0.784965 0.314213 0.868441 0.135800
H15   H     H_    0.784937 0.685686 0.131606 0.135735
H16   H     H_    0.822610 0.626965 0.831072 0.126415
H17   H     H_    0.299190 0.543883 0.890221 0.179724
H18   H     H_    0.822890 0.373191 0.169060 0.126476
H19   H     H_    0.323273 0.873619 0.330288 0.124692
H20   H     H_    0.323058 0.126467 0.669649 0.124635
H21   H     H_    0.284849 0.186014 0.368688 0.135355
H22   H     H_    0.284833 0.813768 0.631218 0.135438
H23   H     H_    0.997175 0.040303 0.965959 0.144201
H24   H     H_    0.997775 0.959412 0.037864 0.144211
H25   H     H_    0.497217 0.540287 0.465838 0.144625
H26   H     H_    0.497793 0.459430 0.537833 0.144512
H27   H     H_    0.386827 0.081866 0.930031 0.159409
H28   H     H_    0.179371 0.544027 0.096519 0.184174
H29   H     H_    0.388022 0.918348 0.068009 0.160309
H30   H     H_    0.886894 0.581885 0.430152 0.158760
H31   H     H_    0.888033 0.418320 0.567982 0.159543
H32   H     H_    0.502236 0.040579 0.962100 0.144512
H33   H     H_    0.502838 0.959710 0.034064 0.144628
H34   H     H_    0.002279 0.540592 0.462235 0.144214
H35   H     H_    0.002853 0.459686 0.534106 0.144202
H36   H     H_    0.130502 0.455690 0.011447 0.152428
H37   H     H_    0.200703 0.543859 0.890232 0.180080
H38   H     H_    0.130505 0.544233 0.011455 0.152561
H39   H     H_    0.299194 0.456228 0.890200 0.179882
H40   H     H_    0.200707 0.456203 0.890210 0.179472
H41   H     H_    0.700700 0.956116 0.609766 0.179709
H42   H     H_    0.630501 0.044237 0.488572 0.152542
H43   H     H_    0.700696 0.043772 0.609787 0.179867
H44   H     H_    0.630504 0.955695 0.488514 0.152509
H45   H     H_    0.113174 0.918124 0.069918 0.158717
H46   H     H_    0.111983 0.081664 0.932031 0.159538
H47   H     H_    0.613191 0.418148 0.569955 0.159408
H48   H     H_    0.612047 0.581644 0.431922 0.160270
H49   H     H_    0.320577 0.455876 0.096474 0.184477
H50   H     H_    0.799187 0.956141 0.609781 0.180095
H51   H     H_    0.369417 0.544305 0.011456 0.152510
H52   H     H_    0.320555 0.544062 0.096516 0.184604
H53   H     H_    0.369420 0.455763 0.011398 0.152542
H54   H     H_    0.869416 0.955768 0.488575 0.152560
H55   H     H_    0.820567 0.044160 0.403519 0.184840
H56   H     H_    0.869420 0.044310 0.488583 0.152427
H57   H     H_    0.820571 0.955974 0.403498 0.184169
H58   H     H_    0.880344 0.313997 0.963997 0.135285
H59   H     H_    0.880323 0.685875 0.036061 0.135221
H60   H     H_    0.917962 0.627238 0.926883 0.123869
H61   H     H_    0.679366 0.044125 0.403508 0.184483
H62   H     H_    0.918238 0.372904 0.073241 0.123959
H63   H     H_    0.418538 0.873269 0.426201 0.123992
H64   H     H_    0.418319 0.126809 0.573736 0.123891
H65   H     H_    0.380286 0.186142 0.464186 0.135385
H66   H     H_    0.380260 0.813612 0.535712 0.135472
H67   H     H_    0.186887 0.213587 0.755061 0.126916
H68   H     H_    0.186913 0.786441 0.244921 0.126857
H69   H     H_    0.166681 0.817096 0.775314 0.113436
H70   H     H_    0.166515 0.182800 0.224602 0.113446
H71   H     H_    0.666228 0.682501 0.275833 0.106490
H72   H     H_    0.799183 0.043796 0.609803 0.179488
H73   H     H_    0.666354 0.317437 0.724209 0.106465
H74   H     H_    0.686989 0.286258 0.254891 0.129051
H75   H     H_    0.686989 0.713829 0.745155 0.129141
H76   H     H_    0.215021 0.185771 0.631555 0.135794
H77   H     H_    0.215052 0.814326 0.368400 0.135731
H78   H     H_    0.177378 0.873047 0.668921 0.126417
H79   H     H_    0.177100 0.126798 0.330948 0.126479
H80   H     H_    0.676714 0.626368 0.169705 0.124695
H81   H     H_    0.676931 0.373544 0.830358 0.124639
H82   H     H_    0.715137 0.314002 0.131308 0.135349
H83   H     H_    0.679388 0.955937 0.403467 0.184608
H84   H     H_    0.715155 0.686221 0.868788 0.135434
H85   H     H_    0.581448 0.626716 0.073794 0.123992
H86   H     H_    0.581667 0.373206 0.926269 0.123890
H87   H     H_    0.619699 0.313878 0.035812 0.135384
H88   H     H_    0.619727 0.686372 0.964292 0.135473
H89   H     H_    0.119641 0.185983 0.536001 0.135283
H90   H     H_    0.119664 0.814141 0.463944 0.135221
H91   H     H_    0.082024 0.872776 0.573112 0.123869
H92   H     H_    0.081749 0.127082 0.426764 0.123958
H93   H     H_    0.475170 0.683096 0.083680 0.109618
H94   H     H_    0.333759 0.817486 0.224161 0.106489
H95   H     H_    0.475294 0.316863 0.916358 0.109589
H96   H     H_    0.495741 0.285926 0.063449 0.127710
H97   H     H_    0.495767 0.714228 0.936615 0.127862
H98   H     H_    0.995733 0.214045 0.563519 0.128837
H99   H     H_    0.995735 0.786048 0.436441 0.128750
H100  H     H_    0.975474 0.816621 0.583315 0.108903
H101  H     H_    0.975322 0.183303 0.416613 0.108937
H102  H     H_    0.004252 0.285935 0.936477 0.128841
H103  H     H_    0.004251 0.713970 0.063563 0.128754
H104  H     H_    0.024511 0.683395 0.916681 0.108913
O1    O     O_3   0.249990 0.250010 0.000000 -0.482289
O2    O     O_R   0.835430 0.219350 0.353840 -0.637181
O3    O     O_R   0.835430 0.219350 0.646160 -0.637172
O4    O     O_R   0.835430 0.780650 0.353840 -0.637064
O5    O     O_R   0.164550 0.280640 0.853840 -0.637159
O6    O     O_R   0.164550 0.719360 0.146160 -0.637050
O7    O     O_R   0.164550 0.719360 0.853840 -0.637372
O8    O     O_R   0.164550 0.280640 0.146160 -0.637170
O9    O     O_R   0.664550 0.780640 0.353840 -0.636136
O10   O     O_R   0.664550 0.219360 0.646160 -0.636322
O11   O     O_R   0.664550 0.219360 0.353840 -0.638588
O12   O     O_3   0.249990 0.749990 0.000000 -0.482275
O13   O     O_R   0.664550 0.780640 0.646160 -0.638697
O14   O     O_R   0.396160 0.219380 0.914560 -0.647160
O15   O     O_R   0.396160 0.780620 0.085440 -0.647281
O16   O     O_R   0.396160 0.780620 0.914560 -0.634924
O17   O     O_R   0.396160 0.219380 0.085440 -0.634756
O18   O     O_R   0.896160 0.719380 0.414560 -0.648251
O19   O     O_R   0.896160 0.280620 0.585440 -0.648297
O20   O     O_R   0.896160 0.280620 0.414560 -0.634093
O21   O     O_R   0.896160 0.719380 0.585440 -0.633891
O22   O     O_R   0.103840 0.219370 0.085450 -0.634120
O23   O     O_3   0.749990 0.750010 0.500000 -0.482275
O24   O     O_R   0.103840 0.780630 0.914550 -0.633914
O25   O     O_R   0.103840 0.780630 0.085450 -0.648276
O26   O     O_R   0.103840 0.219370 0.914550 -0.648322
O27   O     O_R   0.603840 0.719370 0.585450 -0.634946
O28   O     O_R   0.603840 0.280630 0.414550 -0.634784
O29   O     O_R   0.603840 0.280630 0.585450 -0.647185
O30   O     O_R   0.603840 0.719370 0.414550 -0.647305
O31   O     O_R   0.310730 0.133160 0.000000 -0.645198
O32   O     O_R   0.310730 0.866840 0.000000 -0.645926
O33   O     O_R   0.810730 0.633160 0.500000 -0.645255
O34   O     O_3   0.749990 0.249990 0.500000 -0.482289
O35   O     O_R   0.810730 0.366840 0.500000 -0.645915
O36   O     O_R   0.249970 0.366860 0.060720 -0.643999
O37   O     O_R   0.249970 0.633140 0.939280 -0.647003
O38   O     O_R   0.249970 0.633140 0.060720 -0.643998
O39   O     O_R   0.249970 0.366860 0.939280 -0.647002
O40   O     O_R   0.749970 0.866860 0.560720 -0.647003
O41   O     O_R   0.749970 0.133140 0.439280 -0.643999
O42   O     O_R   0.749970 0.133140 0.560720 -0.647002
O43   O     O_R   0.749970 0.866860 0.439280 -0.643998
O44   O     O_R   0.189290 0.133150 0.000000 -0.645937
O45   O     O_R   0.335430 0.280650 0.146160 -0.638602
O46   O     O_R   0.189290 0.866850 0.000000 -0.645251
O47   O     O_R   0.689290 0.633150 0.500000 -0.645922
O48   O     O_R   0.689290 0.366850 0.500000 -0.645222
O49   O     O_R   0.335430 0.719350 0.853840 -0.638709
O50   O     O_R   0.335430 0.719350 0.146160 -0.636147
O51   O     O_R   0.335430 0.280650 0.853840 -0.636332
O52   O     O_R   0.835430 0.780650 0.646160 -0.637381
Zn1   Zn    Zn3+2 0.249990 0.293780 0.913250 0.950659
Zn2   Zn    Zn3+2 0.336760 0.793760 0.000000 0.952633
Zn3   Zn    Zn3+2 0.836760 0.706240 0.500000 0.952622
Zn4   Zn    Zn3+2 0.836760 0.293760 0.500000 0.952346
Zn5   Zn    Zn3+2 0.163250 0.206230 0.000000 0.952367
Zn6   Zn    Zn3+2 0.163250 0.793770 0.000000 0.952657
Zn7   Zn    Zn3+2 0.663250 0.706230 0.500000 0.952668
Zn8   Zn    Zn3+2 0.663250 0.293770 0.500000 0.952989
Zn9   Zn    Zn3+2 0.249990 0.706220 0.086750 0.951874
Zn10  Zn    Zn3+2 0.249990 0.706220 0.913250 0.956481
Zn11  Zn    Zn3+2 0.249990 0.293780 0.086750 0.957696
Zn12  Zn    Zn3+2 0.749990 0.793780 0.413250 0.951872
Zn13  Zn    Zn3+2 0.749990 0.206220 0.586750 0.950658
Zn14  Zn    Zn3+2 0.749990 0.206220 0.413250 0.957698
Zn15  Zn    Zn3+2 0.749990 0.793780 0.586750 0.956482
Zn16  Zn    Zn3+2 0.336760 0.206240 0.000000 0.952968

loop_
_geom_bond_atom_site_label_1
_geom_bond_atom_site_label_2
_ccdc_geom_bond_type
C59   H28   S    
C74   C83   A    
C67   H54   S    
C7    H66   S    
C55   O41   A    
C173  O22   A    
O14   Zn16  S    
C79   C99   A    
C97   H100  S    
C68   H92   S    
O16   Zn2   S    
C31   C36   A    
C58   H37   S    
C169  O26   A    
C148  O19   A    
C58   C60   S    
C162  H20   S    
C9    H103  S    
C48   O31   A    
C10   H104  S    
C2    C90   A    
C62   C64   S    
C155  H9    S    
O22   Zn5   S    
C134  C143  A    
C3    C168  A    
C44   H23   S    
C93   C120  S    
C4    C12   A    
C110  C145  A    
C4    H63   S    
C128  C154  A    
C1    O45   A    
C119  C128  A    
C167  C180  A    
C21   C22   A    
C130  C134  A    
C107  C124  A    
C35   H89   S    
C158  C167  A    
C45   C47   A    
O49   Zn10  S    
C47   H25   S    
C27   C31   A    
C124  C137  S    
C28   C32   A    
O45   Zn11  S    
O41   Zn14  S    
O33   Zn3   S    
C60   H39   S    
O51   Zn1   S    
C123  C126  S    
C129  C142  A    
C20   C28   A    
C33   C50   S    
O3    Zn13  S    
C154  H8    S    
C16   H7    S    
C17   C21   A    
C82   C91   A    
C34   C39   A    
C126  O52   A    
C149  C175  S    
C142  C151  A    
C19   C23   A    
C43   C44   A    
C157  H11   S    
C37   C38   A    
C158  H12   S    
C115  C118  S    
C57   C97   A    
C172  O24   A    
C61   H50   S    
C12   C139  A    
C174  O30   A    
C46   C84   A    
C124  C133  A    
C30   C49   S    
C115  O51   A    
C31   C48   S    
C82   H75   S    
C114  C150  A    
C53   C71   S    
C104  C117  S    
C163  H21   S    
C69   H56   S    
C54   O43   A    
O26   Zn5   S    
O29   Zn8   S    
C42   H48   S    
C33   C38   A    
C56   C59   S    
C83   H76   S    
C133  C160  A    
C80   C88   A    
C57   C85   A    
C109  C144  A    
C160  C168  A    
C40   H46   S    
C68   C98   A    
C3    C11   A    
O7    Zn10  S    
C46   C96   A    
C153  H2    S    
C94   C102  A    
C20   C25   A    
C41   C45   A    
C4    C161  A    
C130  C156  A    
C77   H70   S    
C76   C85   A    
C75   H68   S    
C78   C87   A    
C45   H26   S    
C174  O9    A    
C29   C33   A    
C123  C132  A    
C19   H30   S    
C121  C130  A    
O30   Zn7   S    
C98   H101  S    
C53   O38   A    
C144  C171  S    
C79   C170  A    
C11   C138  A    
C169  O5    A    
C75   C84   A    
C151  C177  S    
C57   H91   S    
C65   C70   S    
C2    H86   S    
C137  O20   A    
C131  C157  A    
C67   C72   S    
O12   Zn6   S    
O32   Zn2   S    
C81   C114  A    
C62   C73   S    
O25   Zn6   S    
O48   Zn8   S    
C152  C161  A    
C9    C179  A    
C93   O49   A    
C145  C172  S    
C46   H90   S    
C170  H85   S    
C176  O11   A    
C95   C103  A    
C141  C150  A    
O38   Zn9   S    
C30   C34   A    
C8    C134  A    
C120  C129  A    
C17   C27   A    
C63   H43   S    
C84   H77   S    
C25   H35   S    
C126  O21   A    
C111  C146  A    
O23   Zn7   S    
C14   H5    S    
C49   O46   A    
O34   Zn8   S    
C66   H51   S    
C159  O18   A    
O11   Zn14  S    
C104  O50   A    
C99   C117  A    
C8    H102  S    
C132  C136  A    
C32   C37   A    
C6    C163  A    
C9    C135  A    
C173  O8    A    
C14   C140  A    
C26   C30   A    
C92   H96   S    
C127  C140  A    
C122  C131  A    
O1    Zn11  S    
C62   H61   S    
C105  C109  A    
C18   C22   A    
C107  C111  A    
C102  C116  A    
C175  O29   A    
C159  O4    A    
C21   H32   S    
C65   H49   S    
O35   Zn4   S    
C69   H55   S    
O2    Zn14  S    
O4    Zn12  S    
C137  O2    A    
C138  C146  A    
C105  C122  A    
C63   H72   S    
C34   C36   A    
C62   H42   S    
C37   C41   A    
C56   H36   S    
C55   C73   S    
C40   C44   A    
C80   C113  A    
C118  C127  A    
C22   H33   S    
C43   H24   S    
C175  O10   A    
O36   Zn11  S    
C50   O47   A    
O17   Zn16  S    
O5    Zn1   S    
C140  C149  A    
C116  C151  A    
C160  H13   S    
C96   C105  A    
C58   H17   S    
C78   H71   S    
C18   C26   A    
C165  H14   S    
O44   Zn5   S    
C26   C27   A    
C168  H18   S    
C65   H53   S    
C28   C29   A    
C60   H40   S    
C58   C71   S    
O28   Zn8   S    
C56   H1    S    
C180  H60   S    
C64   H44   S    
C1    C119  S    
C77   C111  A    
C179  H59   S    
C15   C141  A    
O43   Zn12  S    
C122  C159  S    
C69   C73   S    
O12   Zn9   S    
C128  C141  A    
O1    Zn5   S    
C81   C89   A    
C133  C138  A    
C79   H93   S    
C95   H98   S    
C177  O27   A    
C24   H88   S    
C177  O13   A    
C101  C114  A    
C76   H69   S    
O50   Zn9   S    
C15   H6    S    
C147  C174  S    
O40   Zn15  S    
C80   H73   S    
C55   O42   A    
O12   Zn2   S    
C17   H27   S    
C18   H29   S    
C129  C155  A    
C35   C83   A    
C63   C73   S    
C171  O25   A    
C132  C158  A    
C98   C107  A    
C3    H62   S    
C32   C51   S    
O23   Zn12  S    
C66   C71   S    
O42   Zn13  S    
C121  C148  S    
O52   Zn15  S    
C5    C14   A    
C49   O32   A    
C92   C101  A    
C97   C106  A    
O8    Zn11  S    
C7    C16   A    
C13   C92   A    
C100  C118  A    
C19   C29   A    
O23   Zn3   S    
C178  H58   S    
C102  C120  A    
O34   Zn4   S    
O9    Zn12  S    
C96   H99   S    
C59   H38   S    
C87   H80   S    
O1    Zn16  S    
C112  C147  A    
C35   C95   A    
C53   O37   A    
C7    C164  A    
C153  C162  A    
C10   C180  A    
C5    C162  A    
O24   Zn6   S    
C82   C116  A    
C12   H4    S    
C156  C165  A    
O10   Zn13  S    
C67   H57   S    
C5    H64   S    
O27   Zn7   S    
C61   H41   S    
C39   H45   S    
C74   C108  A    
C171  O6    A    
O20   Zn4   S    
C51   O48   A    
C76   C110  A    
C78   C112  A    
C89   H82   S    
C108  C143  A    
C91   H84   S    
O23   Zn15  S    
C23   H34   S    
C156  H10   S    
C150  C176  S    
C41   H47   S    
C68   C86   A    
C167  H16   S    
C6    H65   S    
C127  C153  A    
C125  C139  A    
C139  C147  A    
C52   O39   A    
C115  O14   A    
C10   C136  A    
C38   C42   A    
C131  C135  A    
C146  C173  S    
C66   H52   S    
C20   H31   S    
C6    C15   A    
C148  O3    A    
C106  C123  A    
C93   O16   A    
C2    C88   A    
C90   H95   S    
C85   H78   S    
C136  C145  A    
C23   C25   A    
C165  C178  A    
C1    O17   A    
C13   H87   S    
C90   C100  A    
C88   H81   S    
O37   Zn10  S    
C75   C109  A    
C161  H19   S    
C64   H83   S    
C101  C119  A    
C113  C149  A    
C154  C163  A    
C36   C40   A    
C11   H3    S    
C166  H15   S    
C143  C169  S    
C50   O33   A    
C39   C43   A    
C87   C170  A    
O46   Zn6   S    
C67   C69   S    
C16   C142  A    
O1    Zn1   S    
C125  C152  A    
C24   C94   A    
C60   C70   S    
C61   C63   S    
C54   C72   S    
O19   Zn4   S    
C103  C108  A    
C164  H22   S    
O47   Zn7   S    
C135  C144  A    
C77   C86   A    
O39   Zn1   S    
C56   C70   S    
O34   Zn14  S    
C81   H74   S    
O34   Zn13  S    
C54   O40   A    
O31   Zn16  S    
C24   C91   A    
C61   C72   S    
C106  C110  A    
O15   Zn2   S    
C13   C89   A    
C100  C113  A    
C157  C166  A    
C172  O7    A    
C155  C164  A    
O21   Zn3   S    
O6    Zn9   S    
C152  H94   S    
C94   H97   S    
C74   H67   S    
O13   Zn15  S    
C117  C125  A    
C48   O44   A    
C104  O15   A    
C99   C112  A    
C42   C47   A    
C64   C72   S    
C86   H79   S    
C52   C70   S    
O18   Zn3   S    
C8    C178  A    
C51   O35   A    
C65   C66   S    
C52   O36   A    
C176  O28   A    
C166  C179  A    
O12   Zn10  S    
C59   C71   S    
C103  C121  A    
