data_mof_unit_19204.cif
_audit_creation_date              2012-12-10T19:11:19-0500
_audit_creation_method            fapswitch 2.2
_symmetry_space_group_name_H-M    P1
_symmetry_Int_Tables_number       1
_space_group_crystal_system       triclinic
_cell_length_a                    15.95471
_cell_length_b                    9.078843
_cell_length_c                    7.795989
_cell_angle_alpha                 90.017431
_cell_angle_beta                  90.107141
_cell_angle_gamma                 89.950283
_cell_volume                      1129.24895038

loop_
_atom_site_label
_atom_site_type_symbol
_atom_type_description
_atom_site_fract_x
_atom_site_fract_y
_atom_site_fract_z
_atom_type_partial_charge
C1    C     C_R   0.500012 0.220086 0.499984 0.850591
C2    C     C_3   0.048233 0.395173 0.347587 -0.305463
C3    C     C_3   0.951907 0.448428 0.684658 -0.317995
C4    C     C_3   0.950030 0.384313 0.361215 -0.298812
C5    C     C_1   0.749104 0.498112 0.500816 -0.029392
C6    C     C_1   0.250893 0.498896 0.499263 -0.035146
C7    C     C_3   0.083444 0.494168 0.498319 -0.118484
C8    C     C_3   0.916587 0.493520 0.502658 -0.114590
C9    C     C_3   0.949608 0.654223 0.459842 0.555011
C10   C     C_3   0.049733 0.656733 0.469506 0.563742
C11   C     C_2   0.909421 0.320286 0.776673 0.968052
C12   C     C_1   0.824238 0.495960 0.501838 0.140281
C13   C     C_2   0.912403 0.230340 0.373182 1.007132
C14   C     C_2   0.089542 0.293785 0.736005 1.008622
C15   C     C_2   0.092967 0.250127 0.309380 0.989978
C16   C     C_1   0.175760 0.496965 0.498551 0.127045
C17   C     C_R   0.339994 0.500154 0.499825 0.815130
C18   C     C_R   0.660006 0.499867 0.500180 0.814909
C19   C     C_1   0.500009 0.934596 0.500020 -0.130962
C20   C     C_1   0.500013 0.065416 0.499976 -0.131708
C21   C     C_R   0.500001 0.779922 0.500015 0.850015
C22   C     C_3   0.050272 0.438157 0.677152 -0.302779
Cl1   Cl    Cl    0.088724 0.776607 0.637361 -0.422218
Cl2   Cl    Cl    0.096623 0.736567 0.279689 -0.479009
Cl3   Cl    Cl    0.902127 0.787632 0.602579 -0.428355
Cl4   Cl    Cl    0.910188 0.711418 0.252255 -0.487638
Cu1   Cu    Cu3+1 0.500000 0.500010 0.669080 1.059989
Cu2   Cu    Cu3+1 0.500000 0.500010 0.330920 1.059860
H1    H     H_    0.060535 0.457037 0.227283 0.196085
H2    H     H_    0.073261 0.516846 0.775798 0.211092
H3    H     H_    0.925626 0.423931 0.235940 0.217072
H4    H     H_    0.937574 0.541702 0.772248 0.201645
H5    H     H_    0.905043 0.195124 0.989597 0.385622
H6    H     H_    0.814426 0.098831 0.315101 0.372198
H7    H     H_    0.180900 0.196458 0.875124 0.357689
H8    H     H_    0.102317 0.075102 0.150706 0.387265
N1    N     N_1   0.500000 0.499970 0.076820 -0.029208
N2    N     N_1   0.500000 0.499970 0.923180 -0.029106
O1    O     O_R   0.500000 0.288400 0.642760 -0.574999
O2    O     O_R   0.935841 0.283690 0.942069 -0.732906
O3    O     O_2   0.948672 0.130300 0.447223 -0.430693
O4    O     O_R   0.833873 0.204238 0.299229 -0.756464
O5    O     O_2   0.061348 0.175026 0.690528 -0.439791
O6    O     O_R   0.159139 0.298227 0.845230 -0.746033
O7    O     O_2   0.151390 0.206384 0.397275 -0.551048
O8    O     O_R   0.068381 0.168667 0.165654 -0.692940
O9    O     O_R   0.500000 0.288400 0.357240 -0.575549
O10   O     O_R   0.379440 0.500020 0.642850 -0.568064
O11   O     O_R   0.379440 0.500020 0.357150 -0.571970
O12   O     O_R   0.620560 0.500020 0.642850 -0.572672
O13   O     O_R   0.620560 0.500020 0.357150 -0.567793
O14   O     O_R   0.500000 0.711620 0.642810 -0.574814
O15   O     O_R   0.500000 0.711620 0.357190 -0.574962
O16   O     O_2   0.851100 0.252772 0.712198 -0.547461

loop_
_geom_bond_atom_site_label_1
_geom_bond_atom_site_label_2
_ccdc_geom_bond_type
Cu1   O10   S    
C9    Cl4   S    
C7    C10   S    
C2    C4    S    
Cu2   O15   S    
C17   O10   A    
Cu2   O9    S    
H8    O8    S    
N1    N2    T    
H7    O6    S    
C10   Cl1   S    
C7    C22   S    
C9    C10   S    
C19   C20   T    
H6    O4    S    
Cu1   O12   S    
C4    C8    S    
C8    C12   S    
C14   C22   S    
C13   O3    D    
C8    C9    S    
C9    Cl3   S    
C21   O15   A    
C2    C15   S    
C3    H4    S    
C11   O16   D    
Cu2   N1    S    
C2    H1    S    
C7    C16   S    
C19   C21   S    
C18   O13   A    
C11   O2    S    
Cu2   O13   S    
H5    O2    S    
C3    C11   S    
C15   O7    D    
Cu1   N2    S    
C6    C16   T    
C4    H3    S    
C4    C13   S    
Cu1   O14   S    
C18   O12   A    
C5    C12   T    
C14   O6    S    
C3    C8    S    
Cu2   O11   S    
C17   O11   A    
Cu1   Cu2   S    
C6    C17   S    
C1    O1    A    
C13   O4    S    
C3    C22   S    
C5    C18   S    
C22   H2    S    
C15   O8    S    
C10   Cl2   S    
C21   O14   A    
C1    O9    A    
C2    C7    S    
Cu1   O1    S    
C14   O5    D    
C1    C20   S    
