data_mof_unit_55478.cif
_audit_creation_date              2012-12-11T20:57:47-0500
_audit_creation_method            fapswitch 2.2
_symmetry_space_group_name_H-M    P1
_symmetry_Int_Tables_number       1
_space_group_crystal_system       triclinic
_cell_length_a                    8.221307
_cell_length_b                    18.924496
_cell_length_c                    22.863544
_cell_angle_alpha                 100.203598
_cell_angle_beta                  90.234444
_cell_angle_gamma                 91.239535
_cell_volume                      3500.01197678

loop_
_atom_site_label
_atom_site_type_symbol
_atom_type_description
_atom_site_fract_x
_atom_site_fract_y
_atom_site_fract_z
_atom_type_partial_charge
Ba1   Ba    Ba6+2 0.157800 0.534120 0.474430 1.643841
Ba2   Ba    Ba6+2 0.652390 0.465870 0.525520 1.639557
C1    C     C_3   0.371164 0.697986 0.261112 -0.188637
C2    C     C_R   0.068510 0.913035 0.562892 -0.094509
C3    C     C_R   0.220078 0.048951 0.546423 -0.112415
C4    C     C_3   0.913232 0.724592 0.353461 0.348292
C5    C     C_R   0.066120 0.024652 0.521946 0.016568
C6    C     C_R   0.274962 0.119341 0.548575 -0.088811
C7    C     C_R   0.179769 0.168891 0.526045 -0.031391
C8    C     C_R   0.031644 0.144653 0.496459 0.000478
C9    C     C_R   0.976396 0.071849 0.493378 0.030197
C10   C     C_R   0.228791 0.241839 0.531608 -0.010513
C11   C     C_R   0.127224 0.290150 0.510489 -0.296698
C12   C     C_3   0.394260 0.680010 0.322995 0.353251
C13   C     C_R   0.985814 0.266989 0.478254 0.045168
C14   C     C_R   0.939415 0.193006 0.469565 -0.036943
C15   C     C_R   0.853017 0.929903 0.495613 0.022716
C16   C     C_3   0.933727 0.798934 0.337532 -0.375854
C17   C     C_R   0.788550 0.859034 0.498531 -0.027533
C18   C     C_R   0.875957 0.812753 0.530607 -0.012768
C19   C     C_R   0.004261 0.845947 0.569087 0.077287
C20   C     C_R   0.805653 0.165375 0.433994 -0.029949
C21   C     C_R   0.753446 0.094231 0.430068 -0.096918
C22   C     C_R   0.830700 0.047126 0.462559 0.016202
C23   C     C_3   0.479974 0.685636 0.616633 0.312285
C24   C     C_R   0.767067 0.976692 0.465189 0.001820
C25   C     C_R   0.610389 0.955296 0.444377 -0.088117
C26   C     C_R   0.631639 0.836982 0.473171 -0.028631
C27   C     C_R   0.537646 0.890314 0.452189 0.038452
C28   C     C_3   0.820964 0.373735 0.343351 0.295380
C29   C     C_R   0.577626 0.763861 0.471378 -0.005951
C30   C     C_R   0.680770 0.716034 0.493050 -0.304019
C31   C     C_R   0.825629 0.737916 0.523967 0.040245
C32   C     C_R   0.642916 0.523880 0.335462 -0.301546
C33   C     C_R   0.386745 0.561880 0.946805 -0.023699
C34   C     C_3   0.515426 0.765369 0.637935 -0.435184
C35   C     C_R   0.335132 0.559648 0.887591 0.580079
C36   C     C_R   0.249329 0.436125 0.880236 0.569186
C37   C     C_R   0.299462 0.436638 0.939453 -0.021682
C38   C     C_R   0.368295 0.500003 0.972868 -0.053068
C39   C     C_R   0.456249 0.624649 0.980590 -0.083057
C40   C     C_3   0.810940 0.352674 0.276038 -0.365138
C41   C     C_R   0.506199 0.626087 0.039167 -0.079668
C42   C     C_R   0.487930 0.564829 0.065855 -0.014354
C43   C     C_R   0.418834 0.501569 0.032637 -0.054437
C44   C     C_R   0.282645 0.375257 0.966033 -0.078388
C45   C     C_3   0.896752 0.282012 0.645287 0.349510
C46   C     C_R   0.332953 0.376779 0.024730 -0.076453
C47   C     C_R   0.401108 0.439813 0.058801 -0.025570
C48   C     C_R   0.452189 0.442402 0.118326 0.591521
C49   C     C_R   0.536721 0.565898 0.125155 0.571204
C50   C     C_2   0.061249 0.484336 0.774513 0.025481
C51   C     C_3   0.020258 0.484936 0.709294 -0.015846
C52   C     C_3   0.952519 0.634104 0.667221 0.698099
C53   C     C_1   0.304819 0.511613 0.693915 0.083780
C54   C     C_2   0.346746 0.510159 0.749581 -0.133373
C55   C     C_2   0.219581 0.495941 0.793413 0.234816
C56   C     C_3   0.912614 0.208693 0.662936 -0.371278
C57   C     C_R   0.711194 0.540414 0.235852 -0.095741
C58   C     C_R   0.750355 0.548624 0.296211 -0.022644
C59   C     C_R   0.499755 0.487029 0.314569 0.030007
C60   C     C_R   0.456040 0.481331 0.254200 -0.108532
C61   C     C_R   0.560701 0.509034 0.214053 0.194504
C62   C     C_2   0.170881 0.478315 0.671271 -0.246136
C63   C     C_3   0.817008 0.641837 0.714255 -0.329168
C64   C     C_3   0.319781 0.314417 0.391656 0.314820
C65   C     C_3   0.322568 0.233202 0.372626 -0.383986
C66   C     C_3   0.134403 0.699833 0.738973 0.190572
C67   C     C_3   0.392361 0.305800 0.676639 0.294575
C68   C     C_3   0.499090 0.752745 0.248178 -0.362891
C69   C     C_3   0.052239 0.822887 0.626248 -0.353710
C70   C     C_3   0.354654 0.889087 0.448871 -0.360552
C71   C     C_3   0.923018 0.480837 0.817378 -0.302607
C72   C     C_3   0.444523 0.292767 0.737556 -0.342024
C73   C     C_R   0.000508 0.954843 0.524980 -0.001266
H1    H     H_    0.316701 0.632225 0.326028 0.091771
H2    H     H_    0.397594 0.329710 0.431890 0.068678
H3    H     H_    0.378489 0.647974 0.227846 0.116185
H4    H     H_    0.241894 0.216245 0.333333 0.127189
H5    H     H_    0.279835 0.206125 0.409058 0.058382
H6    H     H_    0.448539 0.216123 0.361021 0.119687
H7    H     H_    0.523370 0.667073 0.329648 -0.051639
H8    H     H_    0.593214 0.660302 0.597784 -0.008675
H9    H     H_    0.385467 0.679435 0.581410 0.081452
H10   H     H_    0.622241 0.772781 0.668462 0.117569
H11   H     H_    0.541827 0.792324 0.599645 0.068360
H12   H     H_    0.719470 0.308469 0.263479 0.138756
H13   H     H_    0.408931 0.791089 0.661893 0.118368
H14   H     H_    0.248123 0.719886 0.257098 0.147315
H15   H     H_    0.876195 0.800034 0.293704 0.117242
H16   H     H_    0.788159 0.280182 0.615964 0.109422
H17   H     H_    0.007451 0.293389 0.620809 -0.043145
H18   H     H_    0.923206 0.166852 0.622543 0.078313
H19   H     H_    0.022740 0.208066 0.691119 0.123596
H20   H     H_    0.803460 0.196170 0.688022 0.135048
H21   H     H_    0.258721 0.296930 0.671817 -0.016546
H22   H     H_    0.424112 0.362466 0.674129 0.071800
H23   H     H_    0.774830 0.398995 0.255833 0.070707
H24   H     H_    0.390331 0.333446 0.772329 0.129316
H25   H     H_    0.579023 0.297466 0.742138 0.149718
H26   H     H_    0.973690 0.725384 0.397132 0.084817
H27   H     H_    0.403607 0.238317 0.743828 0.117253
H28   H     H_    0.163673 0.346237 0.516236 0.070924
H29   H     H_    0.392707 0.134268 0.568700 0.113746
H30   H     H_    0.738881 0.198139 0.408512 0.098220
H31   H     H_    0.642902 0.660185 0.488299 0.068114
H32   H     H_    0.303796 0.014067 0.563159 0.072146
H33   H     H_    0.166294 0.934811 0.592648 0.065556
H34   H     H_    0.931415 0.334553 0.258174 0.129335
H35   H     H_    0.652380 0.077656 0.400288 0.059192
H36   H     H_    0.781107 0.712774 0.357083 -0.058709
H37   H     H_    0.533863 0.992231 0.426968 0.072651
H38   H     H_    0.317657 0.328341 0.043434 0.122716
H39   H     H_    0.230451 0.325684 0.941481 0.121317
H40   H     H_    0.558871 0.675632 0.063607 0.118171
H41   H     H_    0.798506 0.558226 0.205954 0.119344
H42   H     H_    0.472272 0.673023 0.961838 0.118966
H43   H     H_    0.472282 0.520388 0.763997 0.100828
H44   H     H_    0.341643 0.455160 0.238702 0.128849
H45   H     H_    0.936698 0.580562 0.638638 0.011996
H46   H     H_    0.676111 0.529171 0.381904 0.081837
H47   H     H_    0.875116 0.839267 0.371621 0.074523
H48   H     H_    0.167513 0.449505 0.625724 0.045572
H49   H     H_    0.064966 0.813314 0.335491 0.136861
H50   H     H_    0.699606 0.389739 0.360586 0.014750
H51   H     H_    0.909254 0.419341 0.354837 0.066706
H52   H     H_    0.086179 0.689551 0.782058 0.045408
H53   H     H_    0.266134 0.710643 0.746691 0.111934
H54   H     H_    0.081875 0.749085 0.727129 0.031044
H55   H     H_    0.478677 0.764635 0.202912 0.141765
H56   H     H_    0.830503 0.690685 0.748745 0.066253
H57   H     H_    0.490839 0.803490 0.280865 0.128254
H58   H     H_    0.622934 0.731011 0.250379 0.155566
H59   H     H_    0.137563 0.778129 0.618238 0.162609
H60   H     H_    0.118451 0.865750 0.657425 0.068644
H61   H     H_    0.940498 0.812873 0.650715 0.128480
H62   H     H_    0.306205 0.872456 0.489257 0.140058
H63   H     H_    0.304812 0.943175 0.449306 0.087767
H64   H     H_    0.307954 0.857004 0.407192 0.163533
H65   H     H_    0.874740 0.424854 0.812244 0.154885
H66   H     H_    0.960089 0.499397 0.864366 0.108025
H67   H     H_    0.808372 0.594068 0.735925 0.065389
H68   H     H_    0.823685 0.515962 0.807814 0.084877
H69   H     H_    0.701343 0.649565 0.693274 0.125453
H70   H     H_    0.193473 0.330798 0.401674 0.005577
N1    N     N_R   0.267522 0.497245 0.854952 -0.428649
N2    N     N_R   0.515432 0.505633 0.151685 -0.423300
O1    O     O_2   0.110690 0.676100 0.539200 -0.458228
O2    O     O_2   0.688104 0.441191 0.698645 -0.503518
O3    O     O_3   0.880792 0.334316 0.696606 -0.602617
O4    O     O_3   0.863220 0.586720 0.534720 -0.492951
O5    O     O_3   0.450900 0.461390 0.429220 -0.489939
O6    O     O_2   0.599830 0.538970 0.641850 -0.493156
O7    O     O_3   0.425043 0.655303 0.664975 -0.617642
O8    O     O_2   0.566341 0.244354 0.523428 -0.488206
O9    O     O_3   0.474110 0.258094 0.633170 -0.606748
O10   O     O_2   0.348971 0.613493 0.865162 -0.607027
O11   O     O_2   0.188972 0.381356 0.851198 -0.605360
O12   O     O_3   0.377248 0.346035 0.344739 -0.626030
O13   O     O_2   0.442743 0.387950 0.140058 -0.597877
O14   O     O_2   0.597702 0.621028 0.153260 -0.624629
O15   O     O_3   0.368310 0.629070 0.432760 -0.483195
O16   O     O_2   0.232004 0.751319 0.471733 -0.490984
O17   O     O_3   0.938101 0.689184 0.634113 -0.678552
O18   O     O_3   0.345790 0.738665 0.365098 -0.617204
O19   O     O_2   0.210480 0.460990 0.358130 -0.463782
O20   O     O_3   0.959520 0.592090 0.401630 -0.484061
O21   O     O_2   0.087184 0.542377 0.295613 -0.501473
O22   O     O_3   0.109188 0.638133 0.694211 -0.677645
O23   O     O_3   0.985204 0.674006 0.309215 -0.599654
O24   O     O_2   0.699610 0.323860 0.460780 -0.465737
O25   O     O_3   0.947090 0.413280 0.465240 -0.491672
O26   O     O_3   0.442000 0.370930 0.567190 -0.481145
O27   O     O_3   0.871037 0.314251 0.366556 -0.641138
O28   O     O_3   0.359410 0.538600 0.570730 -0.465493
O29   O     O_3   0.850780 0.407910 0.598320 -0.484713
P1    P     P_3+3 0.935930 0.665430 0.555670 0.980486
P2    P     P_3+3 0.382700 0.439650 0.365620 0.994651
P3    P     P_3+3 0.946065 0.588106 0.324959 0.944327
P4    P     P_3+3 0.874370 0.334570 0.444280 0.975257
P5    P     P_3+3 0.859386 0.418523 0.675852 0.948011
P6    P     P_3+3 0.383236 0.721762 0.436619 0.924637
P7    P     P_3+3 0.417347 0.561737 0.645088 1.008742
P8    P     P_3+3 0.427004 0.278058 0.563332 0.927912

loop_
_geom_bond_atom_site_label_1
_geom_bond_atom_site_label_2
_ccdc_geom_bond_type
C48   N2    Am   
O20   P3    S    
C53   C54   D    
C28   H51   S    
C53   P7    S    
O1    P1    D    
C2    C19   A    
C52   H45   S    
C25   C27   A    
C45   H17   S    
C17   C18   A    
C56   H20   S    
C67   H21   S    
C23   H8    S    
C69   H59   S    
O9    P8    S    
C52   C63   S    
C71   H66   S    
C34   H13   S    
C58   P3    S    
C5    C9    A    
C2    H33   S    
C24   C25   A    
C19   C69   S    
C15   C24   A    
C26   C27   A    
C33   C35   A    
C40   H34   S    
C22   C24   A    
O15   P6    S    
C40   H23   S    
Ba2   O26   S    
C69   H60   S    
C36   C37   A    
C51   C62   S    
O4    P1    S    
Ba1   O20   S    
C13   C14   A    
C9    C22   A    
C68   H55   S    
C54   C55   S    
Ba1   O5    S    
Ba1   Ba2   S    
Ba1   P2    S    
C4    H26   S    
C35   O10   D    
C64   H2    S    
C36   N1    Am   
C64   H70   S    
Ba2   O29   S    
Ba1   P1    S    
C70   H64   S    
Ba1   O28   S    
O6    P7    D    
O26   P8    S    
C6    C7    A    
C2    C73   A    
C65   H5    S    
C68   H58   S    
C21   C22   A    
C49   O14   D    
O19   P2    D    
C49   N2    Am   
C35   N1    Am   
C11   H28   S    
C7    C8    A    
C66   H53   S    
C59   C60   A    
Ba2   O24   S    
C72   H27   S    
C27   C70   S    
C41   H40   S    
O25   P4    S    
C70   H63   S    
C64   C65   S    
C28   H50   S    
C57   C58   A    
C30   H31   S    
C13   P4    S    
O7    P7    S    
O16   P6    D    
C32   C58   A    
C39   C41   A    
C52   O22   S    
C38   C43   A    
Ba2   P4    S    
C61   N2    S    
C64   O12   S    
C63   H56   S    
O3    P5    S    
Ba2   O5    S    
O29   P5    S    
C4    C16   S    
C44   C46   A    
C67   O9    S    
C44   H39   S    
C31   P1    S    
C16   H15   S    
C1    C68   S    
C65   H4    S    
C36   O11   D    
C50   C71   S    
C8    C9    A    
C37   C38   A    
C3    C5    A    
C63   H69   S    
O8    P8    D    
C57   H41   S    
C5    C73   A    
C34   H11   S    
O2    P5    D    
C32   C59   A    
C12   H1    S    
C39   H42   S    
C41   C42   A    
C60   C61   A    
C51   P5    S    
Ba2   O28   S    
C23   H9    S    
C66   O22   S    
C29   C30   A    
C45   O3    S    
C43   C47   A    
C53   C62   D    
C68   H57   S    
C67   C72   S    
C10   C11   A    
C12   O18   S    
C17   C26   A    
C6    H29   S    
C66   H52   S    
C3    H32   S    
C60   H44   S    
C1    C12   S    
C16   H47   S    
C37   C44   A    
C18   C31   A    
C42   C49   A    
C70   H62   S    
Ba1   O15   S    
C65   H6    S    
C32   H46   S    
C11   C13   A    
C29   P6    S    
O24   P4    D    
C71   H68   S    
O18   P6    S    
O12   P2    S    
C20   H30   S    
O27   P4    S    
C69   H61   S    
C50   C51   S    
O28   P7    S    
C4    O23   S    
Ba2   O4    S    
C21   H35   S    
C46   C47   A    
C14   C20   A    
C23   O7    S    
C45   H16   S    
C56   H18   S    
C26   C29   A    
C42   C43   A    
C25   H37   S    
C3    C6    A    
C72   H25   S    
C72   H24   S    
C71   H65   S    
C34   H10   S    
Ba2   O6    S    
O21   P3    D    
Ba1   O25   S    
C57   C61   A    
O23   P3    S    
C1    H14   S    
C48   O13   D    
C30   C31   A    
C33   C38   A    
C56   H19   S    
C8    C14   A    
C45   C56   S    
C54   H43   S    
C63   H67   S    
C10   P8    S    
Ba1   O19   S    
C15   C17   A    
Ba1   O4    S    
C4    H36   S    
O5    P2    S    
C66   H54   S    
C33   C39   A    
C7    C10   A    
C50   C55   D    
C23   C34   S    
C62   H48   S    
C59   P2    S    
C18   C19   A    
C47   C48   A    
Ba2   O25   S    
C15   C73   A    
C12   H7    S    
C20   C21   A    
C28   C40   S    
Ba1   O1    S    
C40   H12   S    
C52   O17   S    
C55   N1    S    
C1    H3    S    
C28   O27   S    
O17   P1    S    
C16   H49   S    
C46   H38   S    
C67   H22   S    
