data_mof_unit_15778.cif
_audit_creation_date              2012-12-11T15:27:13-0500
_audit_creation_method            fapswitch 2.2
_symmetry_space_group_name_H-M    P1
_symmetry_Int_Tables_number       1
_space_group_crystal_system       triclinic
_cell_length_a                    13.8568
_cell_length_b                    13.961682
_cell_length_c                    27.517437
_cell_angle_alpha                 89.971248
_cell_angle_beta                  89.950343
_cell_angle_gamma                 119.979289
_cell_volume                      4611.36485871

loop_
_atom_site_label
_atom_site_type_symbol
_atom_type_description
_atom_site_fract_x
_atom_site_fract_y
_atom_site_fract_z
_atom_type_partial_charge
C1    C     C_R   0.234040 0.786790 0.568655 0.539773
C2    C     C_R   0.212618 0.447037 0.568628 0.538648
C3    C     C_R   0.552291 0.765223 0.568901 0.534740
C4    C     C_3   0.651152 0.731951 0.790271 -0.251605
C5    C     C_3   0.254007 0.934299 0.785915 -0.249713
C6    C     C_3   0.056740 0.317568 0.785913 -0.253508
C7    C     C_3   0.627366 0.717023 0.734737 -0.117332
C8    C     C_3   0.272137 0.920061 0.731357 -0.117131
C9    C     C_3   0.072813 0.351728 0.731401 -0.119065
C10   C     C_1   0.704117 0.861371 0.859278 -0.074448
C11   C     C_1   0.119276 0.869965 0.853182 -0.082154
C12   C     C_1   0.123868 0.248318 0.852998 -0.078519
C13   C     C_1   0.625611 0.813623 0.658744 -0.055913
C14   C     C_1   0.179984 0.813241 0.656941 -0.058098
C15   C     C_1   0.181389 0.365753 0.656816 -0.056124
C16   C     C_1   0.599070 0.795644 0.616606 0.018098
C17   C     C_1   0.200909 0.803269 0.615524 0.019726
C18   C     C_1   0.194146 0.397066 0.615424 0.020137
C19   C     C_R   0.072862 0.166195 0.941424 0.530466
C20   C     C_R   0.779912 0.886952 0.948859 0.539167
C21   C     C_R   0.093011 0.926433 0.941417 0.529190
C22   C     C_R   0.623051 0.809964 0.386681 0.006292
C23   C     C_R   0.194427 0.804532 0.383967 0.055023
C24   C     C_R   0.194316 0.389454 0.384000 0.053219
C25   C     C_R   0.627601 0.901438 0.362098 0.178921
C26   C     C_R   0.124441 0.711923 0.354704 0.180843
C27   C     C_R   0.287279 0.409765 0.355002 0.178725
C28   C     C_R   0.644897 0.911748 0.311686 0.274812
C29   C     C_R   0.103790 0.728330 0.306355 0.219138
C30   C     C_R   0.270649 0.373214 0.306575 0.219823
C31   C     C_R   0.672729 0.840417 0.287359 -0.030599
C32   C     C_R   0.162286 0.834572 0.286219 -0.020649
C33   C     C_R   0.164190 0.327958 0.286169 -0.020422
C34   C     C_R   0.233519 0.786620 0.430995 0.607181
C35   C     C_R   0.213043 0.446728 0.430981 0.608760
C36   C     C_R   0.556679 0.767806 0.431938 0.572630
C37   C     C_R   0.688646 0.762309 0.313364 -0.076052
C38   C     C_R   0.229554 0.927404 0.315311 -0.067384
C39   C     C_R   0.070843 0.304111 0.315032 -0.077308
C40   C     C_R   0.663858 0.746858 0.363526 0.191679
C41   C     C_R   0.241042 0.912773 0.365237 0.191991
C42   C     C_R   0.085312 0.330004 0.364982 0.180020
C43   C     C_R   0.629078 0.763234 0.203242 -0.094431
C44   C     C_R   0.045952 0.815112 0.215185 -0.065096
C45   C     C_R   0.121037 0.363478 0.202808 -0.093812
C46   C     C_R   0.653407 0.774188 0.153702 -0.127997
C47   C     C_R   0.033045 0.821154 0.165688 -0.123536
C48   C     C_R   0.111966 0.341506 0.153205 -0.127210
C49   C     C_R   0.793866 0.966537 0.166540 -0.124927
C50   C     C_R   0.231300 0.892115 0.153742 -0.128175
C51   C     C_R   0.173788 0.208320 0.166289 -0.123706
C52   C     C_R   0.772592 0.954321 0.215942 -0.065308
C53   C     C_R   0.243429 0.882465 0.203348 -0.093592
C54   C     C_R   0.179038 0.227522 0.215735 -0.065410
C55   C     C_R   0.690758 0.852747 0.234599 0.072050
C56   C     C_R   0.151006 0.846106 0.234137 0.075058
C57   C     C_R   0.152759 0.304887 0.234107 0.075916
C58   C     C_R   0.736371 0.875857 0.135353 0.016628
C59   C     C_R   0.126102 0.862019 0.134910 0.014805
C60   C     C_R   0.138124 0.263627 0.134935 0.015492
C61   C     C_R   0.107150 0.222335 0.085863 0.558058
C62   C     C_R   0.778185 0.885108 0.086160 0.545661
C63   C     C_R   0.115461 0.893381 0.085929 0.557902
C64   C     C_3   0.564285 0.858056 0.737006 -0.101903
C65   C     C_3   0.130756 0.716796 0.737797 -0.100749
C66   C     C_3   0.276996 0.411479 0.737517 -0.101610
C67   C     C_3   0.768375 0.919949 0.722527 -0.137385
C68   C     C_3   0.068507 0.854492 0.715318 -0.132765
C69   C     C_3   0.135960 0.212966 0.715089 -0.134525
C70   C     C_3   0.787625 0.935779 0.778268 0.127539
C71   C     C_3   0.047647 0.863399 0.770035 0.122620
C72   C     C_3   0.125280 0.182896 0.769779 0.121404
C73   C     C_1   0.732738 0.872070 0.901217 -0.028263
C74   C     C_1   0.107602 0.893784 0.893944 -0.024170
C75   C     C_1   0.103552 0.212968 0.893847 -0.026296
C76   C     C_3   0.647041 0.827772 0.711636 0.006770
C77   C     C_3   0.162247 0.825596 0.708794 0.005782
C78   C     C_3   0.167124 0.335440 0.708637 0.007084
C79   C     C_3   0.583388 0.868353 0.793138 -0.185068
C80   C     C_3   0.115776 0.732442 0.793061 -0.182477
C81   C     C_3   0.260522 0.381063 0.792660 -0.182263
C82   C     C_3   0.681518 0.850022 0.806597 0.062176
C83   C     C_3   0.133350 0.849748 0.801889 0.056481
C84   C     C_3   0.141824 0.282239 0.801672 0.058612
Cr1   Cr    Cr6+3 0.164410 0.584450 0.499910 1.115728
Cr2   Cr    Cr6+3 0.415550 0.579960 0.499910 1.117187
Cr3   Cr    Cr6+3 0.420040 0.835590 0.499910 1.093531
Cr4   Cr    Cr6+3 0.156760 0.076070 0.017830 1.034093
Cr5   Cr    Cr6+3 0.923930 0.080690 0.017830 1.027423
Cr6   Cr    Cr6+3 0.919310 0.843240 0.017830 1.032676
H1    H     H_    0.600208 0.950319 0.806882 0.174996
H2    H     H_    0.032140 0.668942 0.806628 0.176553
H3    H     H_    0.323782 0.360586 0.806263 0.174971
H4    H     H_    0.477424 0.790688 0.729974 0.077817
H5    H     H_    0.199813 0.698325 0.733961 0.076939
H6    H     H_    0.297196 0.498969 0.733635 0.076786
H7    H     H_    0.506210 0.805291 0.811769 0.082888
H8    H     H_    0.177679 0.721456 0.814488 0.087220
H9    H     H_    0.272332 0.453850 0.814013 0.087061
H10   H     H_    0.719639 0.716120 0.800466 0.157827
H11   H     H_    0.273061 0.019671 0.794079 0.172086
H12   H     H_    0.970785 0.249241 0.793292 0.170782
H13   H     H_    0.565068 0.684392 0.217408 0.141147
H14   H     H_    0.974492 0.787459 0.238891 0.163537
H15   H     H_    0.101710 0.424387 0.216937 0.141135
H16   H     H_    0.609872 0.703306 0.130002 0.127699
H17   H     H_    0.951626 0.800449 0.151928 0.144476
H18   H     H_    0.082094 0.382778 0.129327 0.129880
H19   H     H_    0.822299 0.023023 0.239882 0.165888
H20   H     H_    0.324682 0.904987 0.217889 0.140420
H21   H     H_    0.202150 0.181242 0.239873 0.162892
H22   H     H_    0.860539 0.044952 0.153205 0.141901
H23   H     H_    0.303848 0.925595 0.130315 0.129799
H24   H     H_    0.190857 0.145213 0.152975 0.141766
H25   H     H_    0.828589 0.898192 0.706391 0.096070
H26   H     H_    0.091583 0.934109 0.696907 0.093995
H27   H     H_    0.055844 0.157400 0.696437 0.089347
H28   H     H_    0.785725 0.998810 0.704976 0.187291
H29   H     H_    0.990749 0.790820 0.697405 0.190184
H30   H     H_    0.199651 0.198262 0.697411 0.190974
H31   H     H_    0.858697 0.923151 0.787534 0.104546
H32   H     H_    0.056664 0.945968 0.776436 0.117083
H33   H     H_    0.040319 0.111017 0.776150 0.110525
H34   H     H_    0.538467 0.652846 0.729397 0.109205
H35   H     H_    0.337628 0.896400 0.728509 0.111512
H36   H     H_    0.098236 0.440882 0.729036 0.113740
H37   H     H_    0.575788 0.669698 0.810268 0.113522
H38   H     H_    0.314127 0.921485 0.807873 0.113757
H39   H     H_    0.068212 0.388812 0.808388 0.118022
O1    O     O_R   0.137310 0.468260 0.552980 -0.495589
O2    O     O_R   0.531740 0.669050 0.552980 -0.494233
O3    O     O_R   0.330950 0.862690 0.552980 -0.491537
O4    O     O_R   0.180530 0.983530 0.965090 -0.499883
O5    O     O_R   0.016470 0.197000 0.965090 -0.491308
O6    O     O_R   0.803000 0.819470 0.965090 -0.511938
O7    O     O_R   0.174120 0.688790 0.549730 -0.501307
O8    O     O_R   0.311210 0.485330 0.549730 -0.500308
O9    O     O_R   0.514670 0.825880 0.549730 -0.500690
O10   O     O_R   0.139940 0.470480 0.446230 -0.427161
O11   O     O_R   0.529520 0.669460 0.446230 -0.411028
O12   O     O_R   0.330540 0.860060 0.446230 -0.434726
O13   O     O_R   0.176560 0.690850 0.450770 -0.452655
O14   O     O_R   0.309150 0.485710 0.450770 -0.451136
O15   O     O_R   0.514290 0.823440 0.450770 -0.498876
O16   O     O_3   0.333333 0.666667 0.499990 -0.321257
O17   O     O_3   0.000000 0.000000 0.017910 -0.264793
O18   O     O_R   0.149710 0.171070 0.967700 -0.498042
O19   O     O_R   0.828930 0.978640 0.967700 -0.516079
O20   O     O_R   0.021360 0.850290 0.967700 -0.482425
O21   O     O_R   0.178510 0.985930 0.071830 -0.509864
O22   O     O_R   0.014070 0.192580 0.071830 -0.507457
O23   O     O_R   0.807420 0.821490 0.071830 -0.509696
O24   O     O_R   0.147830 0.173300 0.066650 -0.490683
O25   O     O_R   0.826700 0.974530 0.066650 -0.495050
O26   O     O_R   0.025470 0.852170 0.066650 -0.489302
O27   O     O_3   0.612723 0.979886 0.386043 -0.668695
H40   H     H_    0.651514 0.994205 0.417741 0.341963
O28   O     O_3   0.083045 0.606140 0.372898 -0.655343
H41   H     H_    0.077903 0.556183 0.346200 0.340271
O29   O     O_3   0.393819 0.471278 0.373559 -0.652122
H42   H     H_    0.445481 0.515218 0.347017 0.343213
O30   O     O_3   0.634223 0.989950 0.284861 -0.669383
H43   H     H_    0.607984 0.029909 0.305835 0.389418
O31   O     O_3   0.031730 0.641126 0.277137 -0.693645
H44   H     H_    0.971835 0.584137 0.297734 0.352961
O32   O     O_3   0.357923 0.386051 0.277572 -0.689151
H45   H     H_    0.413931 0.381551 0.298324 0.354334
C85   C     C_1   0.728149 0.697112 0.288244 0.176533
N1    N     N_1   0.759266 0.644742 0.268213 -0.283936
C86   C     C_1   0.290508 0.036361 0.293556 0.185642
N2    N     N_1   0.340231 0.123382 0.276294 -0.284298
C87   C     C_1   0.961584 0.257371 0.292993 0.181859
N3    N     N_1   0.874382 0.220902 0.275448 -0.258834
C88   C     C_1   0.573281 0.960512 0.717013 0.199277
N4    N     N_1   0.580419 0.040746 0.701345 -0.232538
C89   C     C_1   0.029780 0.620061 0.718281 0.202719
N5    N     N_1   0.950713 0.544314 0.702988 -0.232843
C90   C     C_1   0.373572 0.405978 0.718051 0.201543
N6    N     N_1   0.449178 0.401688 0.702805 -0.230328
O33   O     O_3   0.676690 0.670668 0.391015 -0.643535
H46   H     H_    0.707306 0.632950 0.371270 0.348099
O34   O     O_3   0.300641 0.001122 0.396359 -0.646401
H47   H     H_    0.315695 0.071170 0.380847 0.346640
O35   O     O_3   0.996204 0.302984 0.395860 -0.650750
H48   H     H_    0.925227 0.249840 0.380101 0.348559
O36   O     O_3   0.815355 0.044230 0.790688 -0.722721
H49   H     H_    0.855358 0.061406 0.822217 0.311006
O37   O     O_3   0.937980 0.781693 0.781676 -0.719274
H50   H     H_    0.920238 0.801105 0.813853 0.309425
O38   O     O_3   0.205252 0.152968 0.781626 -0.728114
H51   H     H_    0.183976 0.115713 0.813747 0.306640
C91   C     C_1   0.694635 0.674708 0.711206 0.236874
N7    N     N_1   0.747205 0.641521 0.692785 -0.220183
C92   C     C_1   0.315050 0.026353 0.705238 0.238916
N8    N     N_1   0.348720 0.109498 0.684801 -0.226020
C93   C     C_1   0.966053 0.290301 0.704965 0.229254
N9    N     N_1   0.882503 0.242216 0.684299 -0.229227

loop_
_geom_bond_atom_site_label_1
_geom_bond_atom_site_label_2
_ccdc_geom_bond_type
C53   H20   S    
C58   C62   S    
Cr5   O19   S    
C34   O12   A    
O38   H51   S    
Cr6   O6    S    
C2    C18   S    
C24   C42   A    
C71   H32   S    
C29   O31   S    
C24   C27   A    
C7    H34   S    
C1    O3    A    
C6    C9    S    
C90   N6    T    
C44   H14   S    
C9    C93   S    
C28   O30   S    
O33   H46   S    
C25   C28   A    
C66   C90   S    
C45   C57   A    
C33   C39   A    
C62   O23   A    
C3    O2    A    
C50   C59   A    
C66   H6    S    
O27   H40   S    
Cr1   O16   S    
Cr4   O4    S    
C37   C40   A    
C32   C38   A    
C6    H39   S    
C68   H29   S    
C5    C83   S    
C10   C73   T    
Cr2   O2    S    
C23   C26   A    
C15   C78   S    
C86   N2    T    
O35   H48   S    
C12   C84   S    
C14   C77   S    
C21   O4    A    
C67   H25   S    
C88   N4    T    
Cr2   O8    S    
C35   O10   A    
C24   C35   S    
C40   O33   S    
C22   C25   A    
C54   H21   S    
C20   O19   A    
C38   C86   S    
C91   N7    T    
C21   O20   A    
Cr3   O15   S    
C39   C42   A    
C1    O7    A    
C71   O37   S    
C79   H1    S    
C4    H37   S    
C44   C47   A    
Cr2   O11   S    
C49   C52   A    
C6    H12   S    
C92   N8    T    
C65   C80   S    
C46   C58   A    
C25   O27   S    
C14   C17   T    
O31   H44   S    
C69   C78   S    
Cr6   O20   S    
C72   O38   S    
C43   C46   A    
C45   H15   S    
Cr2   O14   S    
C48   C60   A    
C37   C85   S    
C71   C83   S    
Cr5   O17   S    
C66   C78   S    
C5    H11   S    
C50   C53   A    
C6    C84   S    
C43   H13   S    
C51   H24   S    
C65   C77   S    
C30   O32   S    
C38   C41   A    
Cr6   O23   S    
C81   H9    S    
C4    C7    S    
C27   O29   S    
C21   C74   S    
C10   C82   S    
C19   O18   A    
C49   C58   A    
C31   C37   A    
O37   H50   S    
C19   O5    A    
Cr3   O3    S    
C80   H2    S    
C69   C72   S    
C63   O21   A    
C39   C87   S    
Cr1   O1    S    
C5    C8    S    
C81   H3    S    
C15   C18   T    
C13   C76   S    
C65   H5    S    
C23   C34   S    
C22   C40   A    
C64   C76   S    
Cr6   O26   S    
C3    O9    A    
Cr3   O12   S    
C8    C92   S    
C61   O22   A    
C72   C84   S    
C68   H26   S    
C49   H22   S    
C43   C55   A    
C85   N1    T    
C47   H17   S    
C4    H10   S    
C65   C89   S    
C8    C77   S    
C64   C79   S    
C41   O34   S    
C13   C16   T    
Cr3   O9    S    
C64   C88   S    
Cr2   O16   S    
C81   C84   S    
C87   N3    T    
C80   C83   S    
O30   H43   S    
C45   C48   A    
C68   C77   S    
Cr1   O10   S    
C34   O13   A    
C33   C57   S    
Cr5   O5    S    
Cr3   O16   S    
C30   C33   A    
C80   H8    S    
C2    O8    A    
Cr4   O21   S    
C79   H7    S    
C28   C31   A    
C93   N9    T    
C11   C74   T    
C61   O24   A    
Cr1   O13   S    
C79   C82   S    
C52   C55   A    
C7    C76   S    
C51   C60   A    
C29   C32   A    
C22   C36   S    
C69   H30   S    
C59   C63   S    
C9    H36   S    
C23   C41   A    
C51   C54   A    
C50   H23   S    
C42   O35   S    
O29   H42   S    
C67   C70   S    
C89   N5    T    
C36   O15   A    
C64   H4    S    
C72   H33   S    
Cr4   O24   S    
C66   C81   S    
C44   C56   A    
C69   H27   S    
C70   H31   S    
C11   C83   S    
Cr5   O25   S    
C48   H18   S    
O32   H45   S    
C52   H19   S    
C68   C71   S    
C46   H16   S    
C5    H38   S    
C19   C75   S    
C2    O1    A    
Cr4   O18   S    
C20   C73   S    
C26   O28   S    
C9    C78   S    
C36   O11   A    
C20   O6    A    
C70   C82   S    
C67   H28   S    
C53   C56   A    
O28   H41   S    
C70   O36   S    
Cr1   O7    S    
C47   C59   A    
C62   O25   A    
C8    H35   S    
Cr5   O22   S    
C4    C82   S    
C1    C17   S    
C26   C29   A    
Cr6   O17   S    
C12   C75   T    
Cr4   O17   S    
C60   C61   S    
C67   C76   S    
C31   C55   S    
O36   H49   S    
C32   C56   S    
C63   O26   A    
C3    C16   S    
O34   H47   S    
C35   O14   A    
C27   C30   A    
C54   C57   A    
C7    C91   S    
