data_mof_unit_20161.cif
_audit_creation_date              2012-10-26T18:50:24-0400
_audit_creation_method            fapswitch 2.2
_symmetry_space_group_name_H-M    P1
_symmetry_Int_Tables_number       1
_space_group_crystal_system       triclinic
_cell_length_a                    9.625379
_cell_length_b                    10.873303
_cell_length_c                    15.484251
_cell_angle_alpha                 86.936231
_cell_angle_beta                  73.640177
_cell_angle_gamma                 90.995545
_cell_volume                      1551.84995186

loop_
_atom_site_label
_atom_site_type_symbol
_atom_type_description
_atom_site_fract_x
_atom_site_fract_y
_atom_site_fract_z
_atom_type_partial_charge
C1    C     C_R   0.992979 0.263213 0.512309 0.556707
C2    C     C_R   0.221046 0.510696 0.039642 0.020928
C3    C     C_R   0.323116 0.534795 0.087456 0.029505
C4    C     C_R   0.917687 0.502970 0.671878 0.559079
C5    C     C_R   0.074593 0.486183 0.086178 -0.139179
C6    C     C_R   0.028207 0.484335 0.179931 -0.134151
C7    C     C_R   0.274636 0.526899 0.182331 -0.133308
C8    C     C_R   0.194861 0.115994 0.590675 0.021726
C9    C     C_R   0.335016 0.072401 0.571972 -0.117178
C10   C     C_R   0.371614 0.974370 0.516541 -0.113688
C11   C     C_R   0.263036 0.907460 0.493890 -0.089232
C12   C     C_R   0.668055 0.554176 0.900239 0.018607
C13   C     C_R   0.119027 0.946135 0.517362 -0.000298
C14   C     C_R   0.097122 0.065157 0.548284 0.018288
C15   C     C_R   0.980411 0.129300 0.533091 -0.022632
C16   C     C_R   0.000169 0.738821 0.501962 0.522348
C17   C     C_R   0.857513 0.062082 0.529709 -0.163851
C18   C     C_R   0.860190 0.934055 0.529875 -0.038985
C19   C     C_R   0.995606 0.874435 0.512522 -0.022825
C20   C     C_R   0.704525 0.657509 0.374517 -0.076863
C21   C     C_R   0.662769 0.733231 0.311948 -0.175687
C22   C     C_R   0.519967 0.732400 0.311227 -0.197746
C23   C     C_R   0.767162 0.597857 0.944884 0.054250
C24   C     C_R   0.418329 0.655166 0.372555 -0.115115
C25   C     C_R   0.455774 0.575515 0.436963 0.162686
C26   C     C_R   0.604869 0.576246 0.437515 0.172010
C27   C     C_R   0.545217 0.429174 0.560510 0.026731
C28   C     C_R   0.082410 0.500293 0.327771 0.533856
C29   C     C_R   0.397658 0.430617 0.561061 0.040920
C30   C     C_R   0.871462 0.524470 0.768353 0.010953
C31   C     C_R   0.128349 0.503598 0.228617 -0.002706
C32   C     C_R   0.915204 0.611645 0.899182 -0.143049
C33   C     C_R   0.966699 0.577464 0.810603 -0.116591
C34   C     C_R   0.516302 0.552077 0.944068 -0.003740
C35   C     C_R   0.724924 0.507097 0.815287 -0.139869
C36   C     C_1   0.142887 0.193667 0.665088 0.182444
C37   C     C_1   0.721938 0.867514 0.556089 0.210794
C38   C     C_2   0.438201 0.580037 0.799616 0.203030
C39   C     C_R   0.470496 0.562326 0.039127 0.024390
C40   C     C_R   0.573077 0.603220 0.082223 -0.134474
C41   C     C_R   0.717680 0.625152 0.034905 -0.131463
C42   C     C_R   0.408735 0.542561 0.897093 -0.001421
C43   C     C_R   0.264435 0.515822 0.945780 -0.101204
Cu1   Cu    Cu3+1 0.140660 0.499990 0.500010 0.961674
Cu2   Cu    Cu3+1 0.859340 0.500010 0.499990 0.944889
H1    H     H_    0.792165 0.658730 0.070079 0.108510
H2    H     H_    0.349374 0.536056 0.221948 0.123372
H3    H     H_    0.486729 0.793921 0.263944 0.121629
H4    H     H_    0.310209 0.668040 0.370420 0.170525
H5    H     H_    0.319689 0.376393 0.612591 0.152137
H6    H     H_    0.914478 0.466161 0.214246 0.135237
H7    H     H_    0.183748 0.503581 0.910080 0.154940
H8    H     H_    0.990503 0.650480 0.931643 0.109744
H9    H     H_    0.079972 0.594127 0.774871 0.188270
H10   H     H_    0.656053 0.456020 0.784562 0.131121
H11   H     H_    0.543996 0.623673 0.152022 0.113487
H12   H     H_    0.995577 0.469014 0.049974 0.116947
H13   H     H_    0.530675 0.640390 0.765835 0.142030
H14   H     H_    0.758489 0.108553 0.530234 0.129743
H15   H     H_    0.414960 0.113962 0.599634 0.103694
H16   H     H_    0.482404 0.946867 0.494062 0.147943
H17   H     H_    0.295366 0.831104 0.454218 0.144492
H18   H     H_    0.576254 0.371089 0.610442 0.118606
H19   H     H_    0.815480 0.668558 0.371755 0.178623
H20   H     H_    0.741534 0.794625 0.264743 0.121855
N1    N     N_R   0.648320 0.501210 0.499140 -0.244974
N2    N     N_R   0.352470 0.501290 0.499110 -0.246826
N3    N     N_1   0.100123 0.254387 0.725538 -0.297009
N4    N     N_1   0.612467 0.812433 0.578867 -0.294472
O1    O     O_R   0.118810 0.319640 0.500010 -0.492244
O2    O     O_R   0.881240 0.319660 0.500000 -0.507438
O3    O     O_R   0.055570 0.499980 0.629840 -0.474988
O4    O     O_R   0.818000 0.500010 0.629830 -0.506790
O5    O     O_R   0.118760 0.680340 0.500000 -0.525552
O6    O     O_R   0.881190 0.680360 0.499990 -0.502657
O7    O     O_R   0.182000 0.499990 0.370170 -0.522726
O8    O     O_R   0.944430 0.500020 0.370160 -0.524914
O9    O     O_2   0.358470 0.545450 0.756180 -0.532876

loop_
_geom_bond_atom_site_label_1
_geom_bond_atom_site_label_2
_ccdc_geom_bond_type
C22   H3    S    
C37   N4    T    
Cu2   O2    S    
C16   O6    A    
C25   N2    A    
C11   H17   S    
C12   C23   A    
C1    O2    A    
C30   C35   A    
C16   O5    A    
C18   C37   S    
C38   C42   S    
C3    C7    A    
C5    C6    A    
C43   H7    S    
C27   C29   A    
C33   H9    S    
Cu2   O4    S    
C18   C19   A    
C8    C36   S    
Cu1   O7    S    
C29   N2    A    
C8    C9    A    
C40   H11   S    
C34   C42   A    
C41   H1    S    
Cu1   O1    S    
C1    C15   S    
C6    H6    S    
C9    C10   A    
C6    C31   A    
C3    C39   A    
C38   H13   S    
C13   C14   A    
C29   H5    S    
C7    C31   A    
C13   C19   A    
C35   H10   S    
C34   C39   A    
C26   N1    A    
C24   C25   A    
C39   C40   A    
C38   O9    D    
C25   C26   A    
C7    H2    S    
C20   H19   S    
C2    C43   A    
C17   C18   A    
C12   C35   A    
Cu1   O5    S    
C28   O8    A    
C4    O4    A    
C27   H18   S    
C17   H14   S    
C40   C41   A    
C22   C24   A    
C2    C5    A    
C42   C43   A    
C12   C34   A    
C28   O7    A    
C32   H8    S    
C4    O3    A    
Cu1   Cu2   S    
C24   H4    S    
C15   C17   A    
C8    C14   A    
C30   C33   A    
C21   H20   S    
C28   C31   S    
C36   N3    T    
C1    O1    A    
C23   C41   A    
C5    H12   S    
Cu2   O6    S    
C9    H15   S    
C23   C32   A    
C2    C3    A    
C27   N1    A    
C32   C33   A    
C11   C13   A    
C20   C26   A    
C16   C19   S    
Cu1   O3    S    
C10   C11   A    
C10   H16   S    
C20   C21   A    
Cu2   N1    S    
C14   C15   A    
Cu1   N2    S    
Cu2   O8    S    
C21   C22   A    
C4    C30   S    
