data_mof_unit_11026.cif
_audit_creation_date              2013-03-05T16:02:58-0500
_audit_creation_method            fapswitch 2.2
_symmetry_space_group_name_H-M    P1
_symmetry_Int_Tables_number       1
_space_group_crystal_system       triclinic
_cell_length_a                    14.92113
_cell_length_b                    14.254725
_cell_length_c                    10.45411
_cell_angle_alpha                 89.986818
_cell_angle_beta                  88.861421
_cell_angle_gamma                 89.990182
_cell_volume                      2223.11459374

loop_
_atom_site_label
_atom_site_type_symbol
_atom_site_description
_atom_site_fract_x
_atom_site_fract_y
_atom_site_fract_z
_atom_type_partial_charge
O1    O     O_R   0.367850 0.580280 0.500030 -0.613456
O2    O     O_R   0.632150 0.419720 0.499970 -0.613517
O3    O     O_R   0.632150 0.580280 0.499970 -0.613727
O4    O     O_R   0.367850 0.419720 0.500030 -0.613836
C1    C     C_R   0.327627 0.500006 0.499476 0.902737
C2    C     C_R   0.672373 0.499993 0.500506 0.902668
O5    O     O_R   0.499970 0.580260 0.313950 -0.628673
O6    O     O_R   0.500030 0.419740 0.686050 -0.628547
O7    O     O_R   0.500030 0.580260 0.686050 -0.628809
O8    O     O_R   0.499970 0.419740 0.313950 -0.628802
C3    C     C_R   0.500927 0.500008 0.257715 0.846181
C4    C     C_R   0.499105 0.499993 0.742287 0.846199
Zn1   Zn    Zn3+2 0.500000 0.607200 0.500000 0.944191
Zn2   Zn    Zn3+2 0.500000 0.392800 0.500000 0.944185
C5    C     C_3   0.457155 0.577030 0.043068 -0.172757
C6    C     C_3   0.542924 0.422974 0.956937 -0.172542
C7    C     C_3   0.542271 0.577397 0.956889 -0.171916
C8    C     C_3   0.457812 0.422609 0.043119 -0.171700
C9    C     C_3   0.414663 0.499620 0.960838 -0.179301
C10   C     C_3   0.585416 0.500382 0.039172 -0.179564
H1    H     H_    0.345413 0.499320 0.923862 0.133398
H2    H     H_    0.654663 0.500661 0.076156 0.133310
H3    H     H_    0.422854 0.639610 0.083975 0.130867
H4    H     H_    0.577227 0.360396 0.916029 0.130802
H5    H     H_    0.576047 0.640265 0.915931 0.130753
H6    H     H_    0.424080 0.359747 0.084159 0.130655
C11   C     C_3   0.499726 0.499985 0.877446 0.054400
C12   C     C_3   0.500351 0.500020 0.122558 0.054325
C13   C     C_R   0.813152 0.500148 0.388814 -0.269107
C14   C     C_R   0.186847 0.499804 0.611154 -0.269313
C15   C     C_R   0.767478 0.499976 0.505304 -0.058144
C16   C     C_R   0.232523 0.500017 0.494667 -0.058263
C17   C     C_R   0.811293 0.499792 0.622511 0.143977
C18   C     C_R   0.188710 0.500205 0.377458 0.143962
C19   C     C_R   0.905459 0.499806 0.619941 0.072382
C20   C     C_R   0.094543 0.500157 0.380023 0.072418
C21   C     C_R   0.952935 0.499967 0.500702 -0.040134
C22   C     C_R   0.047066 0.499982 0.499260 -0.040112
C23   C     C_R   0.906241 0.500116 0.383232 0.100026
C24   C     C_R   0.093759 0.499822 0.616732 0.099931
C25   C     C_R   0.952816 0.499670 0.734386 -0.248241
C26   C     C_R   0.047187 0.500265 0.265578 -0.248240
C27   C     C_R   0.045775 0.499681 0.735261 0.217982
C28   C     C_R   0.954226 0.500231 0.264701 0.217924
H7    H     H_    0.773275 0.500313 0.304041 0.160962
H8    H     H_    0.226722 0.499624 0.695929 0.161022
H9    H     H_    0.917947 0.499562 0.826123 0.178129
H10   H     H_    0.082056 0.500364 0.173842 0.178131
C29   C     C_R   0.564132 0.799223 0.430620 0.022813
C30   C     C_R   0.435864 0.200782 0.569379 0.022829
C31   C     C_R   0.435833 0.799224 0.569314 0.022767
C32   C     C_R   0.564131 0.200774 0.430621 0.022756
N1    N     N_R   0.500000 0.750030 0.500000 -0.138838
N2    N     N_R   0.500000 0.249970 0.500000 -0.138853
C33   C     C_R   0.435844 0.899493 0.572422 -0.018290
C34   C     C_R   0.564092 0.100506 0.427468 -0.018291
C35   C     C_R   0.564116 0.899497 0.427504 -0.018281
C36   C     C_R   0.435826 0.100505 0.572403 -0.018271
C37   C     C_R   0.499974 0.949672 0.499955 0.080753
C38   C     C_R   0.499953 0.050329 0.499922 0.080743
C39   C     C_R   0.372818 0.951079 0.646244 -0.211232
C40   C     C_R   0.627106 0.048920 0.353623 -0.211209
C41   C     C_R   0.627118 0.951094 0.353640 -0.211136
C42   C     C_R   0.372807 0.048904 0.646233 -0.211116
H11   H     H_    0.322611 0.916662 0.705678 0.161105
H12   H     H_    0.677310 0.083336 0.294184 0.161114
H13   H     H_    0.677335 0.916693 0.294213 0.161236
H14   H     H_    0.322579 0.083298 0.705649 0.161282
C43   C     C_3   0.758505 0.499602 0.748735 -0.948709
H15   H     H_    0.775002 0.563231 0.804842 0.235587
H16   H     H_    0.685056 0.499594 0.737522 0.236729
H17   H     H_    0.775063 0.435827 0.804550 0.235501
C44   C     C_3   0.241501 0.500434 0.251237 -0.948767
H18   H     H_    0.314947 0.500486 0.262457 0.236755
H19   H     H_    0.225042 0.436802 0.195118 0.235591
H20   H     H_    0.224914 0.564201 0.195431 0.235521
C45   C     C_3   0.086880 0.499574 0.866862 -0.989814
H21   H     H_    0.063266 0.562245 0.920660 0.236408
H22   H     H_    0.063286 0.436816 0.920503 0.236483
H23   H     H_    0.160587 0.499598 0.869718 0.241573
C46   C     C_3   0.913120 0.500280 0.133098 -0.989979
H24   H     H_    0.936747 0.437593 0.079344 0.236455
H25   H     H_    0.839411 0.500242 0.130245 0.241560
H26   H     H_    0.936700 0.563022 0.079405 0.236470
C47   C     C_R   0.636961 0.749771 0.361278 0.195587
C48   C     C_R   0.722540 0.747457 0.415202 -0.140067
C49   C     C_R   0.797500 0.723290 0.340198 -0.141577
C50   C     C_R   0.787671 0.701920 0.210917 -0.129226
C51   C     C_R   0.702815 0.702673 0.156990 -0.194226
C52   C     C_R   0.627598 0.727364 0.231466 -0.128918
H27   H     H_    0.731446 0.768126 0.513860 0.126612
H28   H     H_    0.863421 0.722962 0.381615 0.139322
H29   H     H_    0.846027 0.686568 0.151938 0.143587
H30   H     H_    0.696038 0.687482 0.056324 0.134179
H31   H     H_    0.563059 0.733696 0.186651 0.131517
C53   C     C_R   0.363193 0.250259 0.639057 0.195668
C54   C     C_R   0.372764 0.272323 0.768958 -0.129024
C55   C     C_R   0.297671 0.296902 0.843776 -0.193827
C56   C     C_R   0.212738 0.297957 0.790077 -0.129468
C57   C     C_R   0.202700 0.276940 0.660710 -0.141701
C58   C     C_R   0.277531 0.252829 0.585383 -0.140086
H32   H     H_    0.437365 0.265774 0.813567 0.131312
H33   H     H_    0.304593 0.311748 0.944526 0.134089
H34   H     H_    0.154485 0.313237 0.849317 0.143401
H35   H     H_    0.136716 0.277483 0.619475 0.139504
H36   H     H_    0.268457 0.232417 0.486648 0.126746
C59   C     C_R   0.362786 0.749790 0.638175 0.195398
C60   C     C_R   0.277359 0.747717 0.583799 -0.139838
C61   C     C_R   0.202220 0.723304 0.658248 -0.141325
C62   C     C_R   0.211717 0.701425 0.787422 -0.128945
C63   C     C_R   0.296424 0.701938 0.841793 -0.194262
C64   C     C_R   0.371815 0.726931 0.767890 -0.128738
H37   H     H_    0.268714 0.768718 0.485218 0.126427
H38   H     H_    0.136419 0.723142 0.616480 0.139103
H39   H     H_    0.153212 0.685820 0.845953 0.143836
H40   H     H_    0.302954 0.686301 0.942361 0.134170
H41   H     H_    0.436224 0.733078 0.813072 0.131493
C65   C     C_R   0.637195 0.250202 0.361793 0.195433
C66   C     C_R   0.628202 0.273044 0.232067 -0.128858
C67   C     C_R   0.703618 0.297994 0.158189 -0.194274
C68   C     C_R   0.788312 0.298487 0.212600 -0.128931
C69   C     C_R   0.797772 0.276636 0.341789 -0.141363
C70   C     C_R   0.722608 0.252262 0.416211 -0.139790
H42   H     H_    0.563803 0.266905 0.186855 0.131465
H43   H     H_    0.697117 0.313608 0.057610 0.134168
H44   H     H_    0.846836 0.314049 0.154089 0.143844
H45   H     H_    0.863562 0.276786 0.383588 0.139105
H46   H     H_    0.731225 0.231274 0.514802 0.126413

loop_
_geom_bond_atom_site_label_1
_geom_bond_atom_site_label_2
_geom_bond_distance
_ccdc_geom_bond_type
C22   C24   1.423918 A    
C49   C50   1.396059 A    
C33   C37   1.404420 A    
C43   H17   1.110567 S    
C44   H19   1.110545 S    
C59   C64   1.403652 A    
C20   C26   1.401551 A    
C63   C64   1.398113 A    
C8    H6    1.109851 S    
O3    C2    1.292262 A    
C46   H24   1.109419 S    
C70   H46   1.083266 S    
C52   H31   1.083000 S    
C45   H21   1.109408 S    
O5    C3    1.286256 A    
C57   H35   1.082640 S    
C30   N2    1.380538 A    
O1    C1    1.292284 A    
C42   H14   1.081375 S    
C19   C21   1.421470 A    
C48   H27   1.083431 S    
C47   C48   1.406424 A    
C64   H41   1.082820 S    
C35   C37   1.404430 A    
C36   C38   1.404443 A    
C55   H33   1.081306 S    
C54   C55   1.398265 A    
C51   H30   1.081174 S    
C7    C10   1.543019 S    
C29   C35   1.429745 A    
C60   C61   1.396133 A    
C8    C9    1.542998 S    
C44   H18   1.104466 S    
C69   H45   1.082431 S    
C43   H16   1.104505 S    
O7    Zn1   1.982458 S    
C65   C66   1.403652 A    
C62   C63   1.396141 A    
C24   C27   1.418725 A    
C59   C60   1.406279 A    
C15   C17   1.400219 A    
C63   H40   1.080962 S    
C9    C11   1.525466 S    
C18   C20   1.404789 A    
C54   H32   1.083128 S    
O3    Zn1   2.008749 S    
C6    C10   1.543032 S    
C1    C16   1.420946 S    
C6    C11   1.527004 S    
C5    H3    1.109915 S    
C56   H34   1.079387 S    
C37   C38   1.434831 A    
C6    H4    1.109911 S    
C49   H28   1.082538 S    
C13   C15   1.383660 A    
C25   C27   1.387271 A    
O2    C2    1.292278 A    
C26   C28   1.387290 A    
C19   C25   1.401544 A    
C46   H25   1.100817 S    
C32   N2    1.380547 A    
C35   C41   1.411401 A    
Zn1   N1    2.036002 S    
C45   H22   1.109387 S    
C36   C42   1.411416 A    
C41   H13   1.081387 S    
C40   H12   1.081410 S    
C4    C11   1.413182 S    
C30   C36   1.429773 A    
C29   C47   1.473769 S    
C8    C12   1.527023 S    
C28   C46   1.517408 S    
O8    Zn2   1.982459 S    
C67   H43   1.080961 S    
C10   C12   1.525445 S    
C66   H42   1.082821 S    
C34   C38   1.404427 A    
C13   H7    1.077214 S    
C31   N1    1.380560 A    
C7    C11   1.527093 S    
C60   H37   1.083270 S    
C39   C42   1.394477 A    
C5    C9    1.543029 S    
C21   C22   1.404327 A    
C56   C57   1.396238 A    
O6    C4    1.286273 A    
C53   C54   1.404067 A    
C13   C23   1.389059 A    
C40   C41   1.394476 A    
C25   H9    1.081943 S    
C14   C24   1.389039 A    
C26   H10   1.081941 S    
C66   C67   1.398108 A    
C68   C69   1.395820 A    
C61   H38   1.082432 S    
C31   C59   1.473631 S    
Zn2   N2    2.036004 S    
C10   H2    1.110395 S    
C44   H20   1.110537 S    
C34   C40   1.411352 A    
O1    Zn1   2.008880 S    
C46   H26   1.109408 S    
C67   C68   1.396144 A    
C45   H23   1.100785 S    
C58   H36   1.083557 S    
C5    C7    1.542458 S    
C50   H29   1.079302 S    
O6    Zn2   1.982631 S    
C9    H1    1.110403 S    
C48   C49   1.396296 A    
C14   H8    1.077218 S    
O4    C1    1.292255 A    
C47   C52   1.403897 A    
C23   C28   1.418745 A    
C17   C43   1.523268 S    
C27   C45   1.517384 S    
C7    H5    1.109884 S    
C20   C22   1.421468 A    
C69   C70   1.396126 A    
C68   H44   1.079211 S    
C21   C23   1.423917 A    
C61   C62   1.395829 A    
C14   C16   1.383648 A    
C30   C53   1.473897 S    
C5    C12   1.526979 S    
C3    C12   1.413142 S    
C29   N1    1.380541 A    
C33   C39   1.411345 A    
C57   C58   1.396426 A    
C17   C19   1.404777 A    
C2    C15   1.420944 S    
C31   C33   1.429688 A    
C65   C70   1.406274 A    
O4    Zn2   2.008750 S    
C43   H15   1.110567 S    
O2    Zn2   2.008878 S    
O7    C4    1.286221 A    
O8    C3    1.286224 A    
C18   C44   1.523261 S    
C39   H11   1.081410 S    
O5    Zn1   1.982633 S    
C50   C51   1.396215 A    
C6    C8    1.542434 S    
C55   C56   1.396302 A    
C51   C52   1.398195 A    
C53   C58   1.406567 A    
C62   H39   1.079224 S    
C32   C34   1.429684 A    
C16   C18   1.400228 A    
C32   C65   1.473618 S    
