data_mof_unit_62351.cif
_audit_creation_date              2012-12-10T19:52:22-0500
_audit_creation_method            fapswitch 2.2
_symmetry_space_group_name_H-M    P1
_symmetry_Int_Tables_number       1
_space_group_crystal_system       triclinic
_cell_length_a                    18.274747
_cell_length_b                    18.274299
_cell_length_c                    31.883434
_cell_angle_alpha                 90.000057
_cell_angle_beta                  89.945279
_cell_angle_gamma                 89.999969
_cell_volume                      10647.7290799

loop_
_atom_site_label
_atom_site_type_symbol
_atom_type_description
_atom_site_fract_x
_atom_site_fract_y
_atom_site_fract_z
_atom_type_partial_charge
C1    C     C_R   0.641229 0.500020 0.000010 0.934433
C2    C     C_R   0.358771 0.500020 0.999990 0.934432
C3    C     C_R   0.141229 0.000020 0.500011 0.935599
C4    C     C_R   0.858771 0.000020 0.499989 0.935600
C5    C     C_3   0.495435 0.570242 0.735600 -0.344337
C6    C     C_3   0.504568 0.570241 0.264400 -0.344343
C7    C     C_3   0.068847 0.015954 0.235589 -0.346656
C8    C     C_3   0.931167 0.015997 0.764411 -0.346634
C9    C     C_1   0.501017 0.500275 0.836703 0.102065
C10   C     C_1   0.498980 0.500275 0.163297 0.102066
C11   C     C_1   0.000521 0.999653 0.336695 0.102343
C12   C     C_1   0.999482 0.999653 0.663305 0.102343
C13   C     C_1   0.499908 0.499644 0.663279 0.002536
C14   C     C_1   0.500090 0.499644 0.336721 0.002536
C15   C     C_1   0.999884 0.000097 0.163276 0.003260
C16   C     C_1   0.000118 0.000096 0.836723 0.003260
C17   C     C_1   0.717650 0.500056 0.000035 -0.179511
C18   C     C_1   0.282349 0.500056 0.999965 -0.179511
C19   C     C_1   0.217650 0.000054 0.500036 -0.178947
C20   C     C_1   0.782350 0.000054 0.499964 -0.178945
C21   C     C_1   0.782396 0.500048 0.000043 -0.180791
C22   C     C_1   0.217604 0.500048 0.999956 -0.180792
C23   C     C_1   0.282395 0.000045 0.500045 -0.178988
C24   C     C_1   0.717605 0.000045 0.499955 -0.178987
C25   C     C_R   0.500000 0.358650 0.500000 0.935100
C26   C     C_R   1.000000 0.858650 0.000000 0.932909
C27   C     C_R   0.499964 0.499846 0.581378 0.904680
C28   C     C_R   0.500036 0.499846 0.418622 0.904680
C29   C     C_R   0.999968 0.999925 0.081377 0.903277
C30   C     C_R   0.000032 0.999925 0.918622 0.903276
C31   C     C_R   0.500000 0.641070 0.500000 0.931739
C32   C     C_R   1.000000 0.141070 1.000000 0.931464
C33   C     C_R   0.000000 0.641148 0.000000 0.932148
C34   C     C_R   0.500000 0.141148 0.500000 0.930753
C35   C     C_R   0.858818 0.500018 0.000016 0.931859
C36   C     C_R   0.141182 0.500018 0.999984 0.931859
C37   C     C_R   0.358817 0.000015 0.500017 0.930167
C38   C     C_R   0.641182 0.000015 0.499983 0.930168
C39   C     C_R   0.500156 0.500015 0.918617 0.898229
C40   C     C_R   0.499844 0.500015 0.081383 0.898229
C41   C     C_R   0.000078 0.999982 0.418615 0.899510
C42   C     C_R   0.999922 0.999982 0.581385 0.899509
C43   C     C_R   1.000000 0.358799 1.000000 0.932246
C44   C     C_R   0.500000 0.858799 0.500000 0.930237
C45   C     C_1   0.500000 0.282262 0.500000 -0.187183
C46   C     C_1   0.000000 0.782262 0.000000 -0.189271
C47   C     C_1   0.000000 0.717537 0.000000 -0.185023
C48   C     C_1   0.500000 0.217537 0.500000 -0.182210
C49   C     C_1   0.500000 0.717545 0.500000 -0.189350
C50   C     C_1   1.000000 0.217546 1.000000 -0.188391
C51   C     C_1   1.000000 0.282323 1.000000 -0.184735
C52   C     C_1   0.500000 0.782322 0.500000 -0.184255
C53   C     C_3   0.563745 0.468993 0.735505 -0.304348
C54   C     C_3   0.557799 0.460317 0.263961 -0.302126
C55   C     C_3   0.442193 0.460323 0.736038 -0.302128
C56   C     C_3   0.436248 0.468999 0.264495 -0.304343
C57   C     C_3   0.979677 0.932464 0.235618 -0.301203
C58   C     C_3   0.048167 0.051085 0.764073 -0.301896
C59   C     C_3   0.951870 0.051116 0.235927 -0.301885
C60   C     C_3   0.020285 0.932450 0.764381 -0.301213
C61   C     C_3   0.557322 0.538355 0.763040 0.451344
C62   C     C_3   0.560666 0.529890 0.236455 0.455038
C63   C     C_3   0.439333 0.529897 0.763544 0.455038
C64   C     C_3   0.442678 0.538360 0.236960 0.451347
C65   C     C_3   0.047070 0.949885 0.263134 0.451577
C66   C     C_3   0.979988 0.065080 0.736576 0.454379
C67   C     C_3   0.020057 0.065068 0.263423 0.454384
C68   C     C_3   0.952902 0.949914 0.736866 0.451578
C69   C     C_1   0.500658 0.500110 0.874176 -0.151793
C70   C     C_1   0.499340 0.500110 0.125824 -0.151793
C71   C     C_1   0.000331 0.999862 0.374170 -0.152552
C72   C     C_1   0.999671 0.999862 0.625830 -0.152552
C73   C     C_1   0.499883 0.499729 0.625812 -0.192122
C74   C     C_1   0.500116 0.499729 0.374188 -0.192121
C75   C     C_1   0.999900 0.000044 0.125810 -0.191334
C76   C     C_1   0.000101 0.000044 0.874190 -0.191334
C77   C     C_3   0.505579 0.432294 0.763554 0.398545
C78   C     C_3   0.494410 0.432294 0.236446 0.398544
C79   C     C_3   0.934163 0.984198 0.263557 0.399368
C80   C     C_3   0.065831 0.984156 0.736443 0.399375
C81   C     C_3   0.501052 0.500371 0.791280 0.032986
C82   C     C_3   0.498944 0.500371 0.208720 0.032987
C83   C     C_3   0.000595 0.999565 0.291268 0.033501
C84   C     C_3   0.999409 0.999565 0.708732 0.033497
C85   C     C_3   0.500165 0.499698 0.708646 0.006441
C86   C     C_3   0.499832 0.499697 0.291354 0.006440
C87   C     C_3   0.999992 0.000006 0.208642 0.006110
C88   C     C_3   0.000012 0.000005 0.791358 0.006111
H1    H     H_    0.614453 0.443235 0.723283 0.154193
H2    H     H_    0.605132 0.428086 0.275547 0.158544
H3    H     H_    0.394856 0.428098 0.724452 0.158543
H4    H     H_    0.385538 0.443246 0.276717 0.154194
H5    H     H_    0.962210 0.878321 0.223469 0.152270
H6    H     H_    0.087478 0.092652 0.775750 0.158836
H7    H     H_    0.912585 0.092708 0.224251 0.158837
H8    H     H_    0.037719 0.878297 0.776531 0.152264
H9    H     H_    0.491883 0.626934 0.723300 0.149756
H10   H     H_    0.508127 0.626933 0.276700 0.149755
H11   H     H_    0.124279 0.028452 0.223287 0.150896
H12   H     H_    0.875742 0.028531 0.776712 0.150900
O1    O     O_R   0.607370 0.439420 0.000000 -0.617339
O2    O     O_R   0.392630 0.439420 0.000000 -0.617339
O3    O     O_R   0.107370 0.939420 0.500000 -0.618282
O4    O     O_R   0.892630 0.939420 0.500000 -0.618283
O5    O     O_R   0.000000 0.392690 0.965220 -0.620553
O6    O     O_R   0.000000 0.392690 0.034780 -0.620552
O7    O     O_R   0.500000 0.892690 0.465220 -0.620071
O8    O     O_R   0.500000 0.892690 0.534780 -0.620070
O9    O     O_R   0.607290 0.560580 0.000000 -0.618531
O10   O     O_R   0.392710 0.560580 0.000000 -0.618531
O11   O     O_R   0.107290 0.060580 0.500000 -0.618178
O12   O     O_R   0.892710 0.060580 0.500000 -0.618178
O13   O     O_R   0.500000 0.439420 0.938390 -0.609717
O14   O     O_R   0.500000 0.439420 0.061610 -0.609717
O15   O     O_R   0.000000 0.939420 0.438390 -0.613527
O16   O     O_R   0.000000 0.939420 0.561610 -0.613525
O17   O     O_R   0.500000 0.560580 0.938390 -0.614878
O18   O     O_R   0.500000 0.560580 0.061610 -0.614878
O19   O     O_R   0.000000 0.060580 0.438390 -0.612578
O20   O     O_R   0.000000 0.060580 0.561610 -0.612579
O21   O     O_R   0.560550 0.392540 0.500000 -0.618533
O22   O     O_R   0.439450 0.392540 0.500000 -0.618533
O23   O     O_R   0.060550 0.892540 0.000000 -0.618928
O24   O     O_R   0.939450 0.892540 0.000000 -0.618928
O25   O     O_R   0.560580 0.499860 0.561610 -0.617873
O26   O     O_R   0.560580 0.499860 0.438390 -0.617544
O27   O     O_R   0.439420 0.499860 0.561610 -0.617544
O28   O     O_R   0.439420 0.499860 0.438390 -0.617873
O29   O     O_R   0.060580 0.999860 0.061610 -0.618444
O30   O     O_R   0.060580 0.999860 0.938390 -0.615295
O31   O     O_R   0.939420 0.999860 0.061610 -0.615295
O32   O     O_R   0.939420 0.999860 0.938390 -0.618443
O33   O     O_R   0.560630 0.607160 0.500000 -0.619200
O34   O     O_R   0.439370 0.607160 0.500000 -0.619200
O35   O     O_R   0.060630 0.107160 0.000000 -0.618244
O36   O     O_R   0.939370 0.107160 0.000000 -0.618243
O37   O     O_R   0.000000 0.607310 0.965210 -0.620611
O38   O     O_R   0.000000 0.607310 0.034790 -0.620612
O39   O     O_R   0.500000 0.107310 0.465210 -0.619399
O40   O     O_R   0.500000 0.107310 0.534790 -0.619399
O41   O     O_R   0.892680 0.500000 0.965220 -0.620139
O42   O     O_R   0.892680 0.500000 0.034780 -0.618644
O43   O     O_R   0.107320 0.500000 0.965220 -0.618644
O44   O     O_R   0.107320 0.500000 0.034780 -0.620139
O45   O     O_R   0.392680 0.000000 0.465220 -0.620383
O46   O     O_R   0.392680 1.000000 0.534780 -0.616414
O47   O     O_R   0.607320 0.000000 0.465220 -0.616413
O48   O     O_R   0.607320 1.000000 0.534780 -0.620382
Zn1   Zn    Zn3+2 0.500000 0.419100 0.000000 0.997717
Zn2   Zn    Zn3+2 0.000000 0.919100 0.500000 0.988413
Zn3   Zn    Zn3+2 0.500000 0.580900 0.000000 0.987649
Zn4   Zn    Zn3+2 0.000000 0.080900 0.500000 0.990308
Zn5   Zn    Zn3+2 0.580910 0.499830 0.500000 0.971909
Zn6   Zn    Zn3+2 0.419090 0.499830 0.500000 0.971909
Zn7   Zn    Zn3+2 0.080910 0.999830 0.000000 0.975277
Zn8   Zn    Zn3+2 0.919090 0.999830 0.000000 0.975278
Zn9   Zn    Zn3+2 0.000000 0.500000 0.953550 0.971753
Zn10  Zn    Zn3+2 0.000000 0.500000 0.046450 0.971753
Zn11  Zn    Zn3+2 0.500000 0.000000 0.453550 0.979731
Zn12  Zn    Zn3+2 0.500000 0.000000 0.546450 0.979732
O49   O     O_3   0.616129 0.579129 0.779642 -0.632082
C89   C     C_3   0.662477 0.604242 0.747088 0.099494
H13   H     H_    0.671754 0.663744 0.751873 0.154426
H14   H     H_    0.639224 0.598164 0.714884 0.135264
C90   C     C_3   0.736166 0.564814 0.749645 -0.339450
H15   H     H_    0.763179 0.578645 0.779845 0.233227
H16   H     H_    0.727398 0.504685 0.748693 0.225075
C91   C     C_3   0.786232 0.586620 0.713408 -0.967394
H17   H     H_    0.762191 0.568858 0.683083 0.269745
H18   H     H_    0.840365 0.559869 0.717240 0.269923
H19   H     H_    0.794190 0.646829 0.712835 0.271513
O50   O     O_3   0.624829 0.560226 0.219008 -0.631598
C92   C     C_3   0.670909 0.588201 0.250835 0.099493
H20   H     H_    0.726793 0.566183 0.245423 0.162514
H21   H     H_    0.655086 0.571789 0.283350 0.130898
C93   C     C_3   0.673647 0.671676 0.247700 -0.345383
H22   H     H_    0.693187 0.687669 0.215969 0.237625
H23   H     H_    0.617841 0.694458 0.252213 0.220832
C94   C     C_3   0.724687 0.704316 0.280611 -0.937607
H24   H     H_    0.705230 0.690347 0.312646 0.266360
H25   H     H_    0.725656 0.764807 0.277361 0.276074
H26   H     H_    0.781192 0.683191 0.276289 0.264619
O51   O     O_3   0.375173 0.560240 0.780991 -0.631597
C95   C     C_3   0.329096 0.588220 0.749165 0.099493
H27   H     H_    0.273210 0.566207 0.754576 0.162512
H28   H     H_    0.344919 0.571808 0.716649 0.130897
C96   C     C_3   0.326367 0.671695 0.752299 -0.345392
H29   H     H_    0.306828 0.687690 0.784031 0.237626
H30   H     H_    0.382175 0.694472 0.747788 0.220832
C97   C     C_3   0.275331 0.704341 0.719389 -0.937588
H31   H     H_    0.294787 0.690372 0.687353 0.266359
H32   H     H_    0.274367 0.764832 0.722639 0.276075
H33   H     H_    0.218823 0.683222 0.723710 0.264622
O52   O     O_3   0.383874 0.579140 0.220358 -0.632081
C98   C     C_3   0.337532 0.604262 0.252913 0.099479
H34   H     H_    0.328263 0.663764 0.248127 0.154428
H35   H     H_    0.360785 0.598182 0.285116 0.135268
C99   C     C_3   0.263838 0.564844 0.250358 -0.339466
H36   H     H_    0.236825 0.578676 0.220158 0.233231
H37   H     H_    0.272597 0.504714 0.251312 0.225077
C100  C     C_3   0.213776 0.586661 0.286595 -0.967381
H38   H     H_    0.237815 0.568896 0.316920 0.269744
H39   H     H_    0.159639 0.559919 0.282763 0.269926
H40   H     H_    0.205829 0.646870 0.287167 0.271507
O53   O     O_3   0.096312 0.898238 0.280010 -0.632598
C101  C     C_3   0.130230 0.857442 0.247650 0.100497
H41   H     H_    0.190158 0.857853 0.253475 0.159651
H42   H     H_    0.122059 0.880179 0.215476 0.132534
C102  C     C_3   0.103152 0.778285 0.249074 -0.341862
H43   H     H_    0.115552 0.754397 0.280326 0.232323
H44   H     H_    0.042928 0.777037 0.244501 0.222028
C103  C     C_3   0.139427 0.731880 0.215114 -0.967896
H45   H     H_    0.126092 0.753792 0.183534 0.270876
H46   H     H_    0.119047 0.674753 0.217191 0.273979
H47   H     H_    0.199764 0.731516 0.219318 0.265725
O54   O     O_3   0.960239 0.133309 0.719251 -0.630458
C104  C     C_3   0.940232 0.183241 0.751180 0.100018
H48   H     H_    0.971095 0.234785 0.745826 0.162873
H49   H     H_    0.953852 0.164835 0.783657 0.129846
C105  C     C_3   0.858327 0.199606 0.748154 -0.340924
H50   H     H_    0.845661 0.221448 0.716439 0.236959
H51   H     H_    0.826738 0.148282 0.752711 0.220859
C106  C     C_3   0.834573 0.255364 0.781094 -0.946863
H52   H     H_    0.845293 0.233962 0.813117 0.267691
H53   H     H_    0.775041 0.266186 0.777938 0.274343
H54   H     H_    0.864618 0.307659 0.776714 0.263444
O55   O     O_3   0.039848 0.133284 0.280750 -0.630459
C107  C     C_3   0.059898 0.183200 0.248821 0.100018
H55   H     H_    0.029075 0.234769 0.254175 0.162875
H56   H     H_    0.046266 0.164806 0.216345 0.129849
C108  C     C_3   0.141815 0.199501 0.251851 -0.340948
H57   H     H_    0.154493 0.221333 0.283566 0.236961
H58   H     H_    0.173364 0.148152 0.247296 0.220859
C109  C     C_3   0.165617 0.255239 0.218912 -0.946844
H59   H     H_    0.154883 0.233845 0.186889 0.267689
H60   H     H_    0.225157 0.266013 0.222070 0.274355
H61   H     H_    0.135614 0.307557 0.223291 0.263446
O56   O     O_3   0.903628 0.898298 0.719988 -0.632601
C110  C     C_3   0.869691 0.857516 0.752348 0.100519
H62   H     H_    0.809764 0.857952 0.746521 0.159661
H63   H     H_    0.877869 0.880250 0.784522 0.132526
C111  C     C_3   0.896735 0.778347 0.750923 -0.341874
H64   H     H_    0.884329 0.754465 0.719670 0.232316
H65   H     H_    0.956958 0.777073 0.755499 0.222026
C112  C     C_3   0.860437 0.731956 0.784881 -0.967902
H66   H     H_    0.873765 0.753869 0.816461 0.270881
H67   H     H_    0.880805 0.674824 0.782809 0.273983
H68   H     H_    0.800102 0.731606 0.780669 0.265717
O57   O     O_3   0.510851 0.361187 0.779404 -0.741664
H69   H     H_    0.513115 0.328977 0.754425 0.337125
O58   O     O_3   0.489130 0.361188 0.220596 -0.741665
H70   H     H_    0.486863 0.328978 0.245574 0.337123
O59   O     O_3   0.864757 0.967797 0.279426 -0.744491
H71   H     H_    0.833412 0.960132 0.254456 0.336759
O60   O     O_3   0.135228 0.967712 0.720575 -0.744494
H72   H     H_    0.166568 0.960025 0.745544 0.336755

loop_
_geom_bond_atom_site_label_1
_geom_bond_atom_site_label_2
_ccdc_geom_bond_type
C40   O18   A    
C112  H67   S    
C67   C83   S    
C90   H15   S    
C98   H35   S    
C80   O60   S    
C25   C45   S    
C2    C18   S    
C54   C86   S    
C100  H39   S    
C100  H38   S    
C57   C79   S    
C53   C77   S    
C106  H52   S    
C80   C84   S    
O47   Zn11  S    
O11   Zn4   S    
C39   O17   A    
C107  H56   S    
O49   C89   S    
C60   C88   S    
C106  H54   S    
O35   Zn7   S    
O58   H70   S    
O23   Zn7   S    
O53   C101  S    
C104  C105  S    
C8    C66   S    
C5    C63   S    
O57   H69   S    
C97   H31   S    
C40   C70   S    
C45   C48   T    
C63   C81   S    
C61   O49   S    
C6    H10   S    
O31   Zn8   S    
O9    Zn3   S    
C36   O43   A    
O42   Zn10  S    
C54   H2    S    
C43   O5    A    
O59   H71   S    
O45   Zn11  S    
C101  H42   S    
C65   C83   S    
O46   Zn12  S    
C2    O2    A    
C3    O3    A    
C16   C76   T    
C4    O4    A    
C34   O39   A    
C102  C103  S    
C56   C78   S    
C95   H27   S    
C12   C84   S    
C53   C61   S    
O48   Zn12  S    
C6    C64   S    
O38   Zn10  S    
C14   C74   T    
C107  H55   S    
C96   C97   S    
C55   H3    S    
C97   H33   S    
C59   C67   S    
O56   C110  S    
C27   O27   A    
C58   C66   S    
C93   C94   S    
C40   O14   A    
C20   C24   T    
C29   C75   S    
C3    O11   A    
C39   O13   A    
C55   C63   S    
C111  H65   S    
C56   C64   S    
C3    C19   S    
O30   Zn7   S    
C67   O55   S    
C37   O46   A    
C108  C109  S    
C25   O22   A    
C27   C73   S    
O3    Zn2   S    
O28   Zn6   S    
C41   C71   S    
C98   C99   S    
C1    O9    A    
C44   C52   S    
C91   H18   S    
O52   C98   S    
C4    O12   A    
O39   Zn11  S    
C90   H16   S    
C92   H20   S    
C112  H66   S    
C78   O58   S    
O22   Zn6   S    
C109  H60   S    
C41   O15   A    
C31   O34   A    
O27   Zn6   S    
C105  H51   S    
C105  H50   S    
O34   Zn6   S    
C28   O26   A    
O43   Zn9   S    
C89   H14   S    
C44   O8    A    
C110  H62   S    
C79   O59   S    
C102  H43   S    
C7    C87   S    
O20   Zn4   S    
C111  C112  S    
C63   O51   S    
C68   C84   S    
O13   Zn1   S    
O54   C104  S    
C14   C86   S    
C110  H63   S    
O10   Zn3   S    
C33   O37   A    
C31   O33   A    
O29   Zn7   S    
C26   C46   S    
C101  H41   S    
C30   O30   A    
C54   C62   S    
C11   C83   S    
C104  H48   S    
O6    Zn10  S    
C66   C84   S    
C10   C82   S    
C17   C21   T    
C57   C87   S    
C64   O52   S    
C8    C88   S    
C109  H61   S    
C10   C70   T    
C55   C85   S    
C19   C23   T    
O51   C95   S    
C13   C73   T    
C56   C86   S    
C23   C37   S    
C7    C65   S    
C89   C90   S    
C30   C76   S    
C78   C82   S    
C24   C38   S    
O55   C107  S    
C103  H47   S    
C77   C81   S    
C33   O38   A    
C49   C52   T    
O5    Zn9   S    
O7    Zn11  S    
C99   C100  S    
O12   Zn4   S    
C50   C51   T    
C39   C69   S    
C5    C61   S    
O17   Zn3   S    
C41   O19   A    
C64   C82   S    
C99   H36   S    
C92   H21   S    
C7    H11   S    
C59   H7    S    
C21   C35   S    
C60   H8    S    
C42   O16   A    
C91   H17   S    
C103  H46   S    
C8    C68   S    
C90   C91   S    
C32   O36   A    
C108  H58   S    
C53   H1    S    
C33   C47   S    
C100  H40   S    
O33   Zn5   S    
C30   O32   A    
C77   O57   S    
C109  H59   S    
C59   C79   S    
O60   H72   S    
C62   C82   S    
C1    O1    A    
C62   O50   S    
O50   C92   S    
C15   C87   S    
C89   H13   S    
C58   H6    S    
C44   O7    A    
O41   Zn9   S    
O19   Zn4   S    
C46   C47   T    
C60   C80   S    
C97   H32   S    
C111  H64   S    
C18   C22   T    
C29   O29   A    
C12   C72   T    
C5    H9    S    
C99   H37   S    
C93   H22   S    
C58   C88   S    
C32   O35   A    
C53   C85   S    
C106  H53   S    
O4    Zn2   S    
O8    Zn12  S    
C4    C20   S    
C58   C80   S    
C94   H24   S    
C104  H49   S    
C22   C36   S    
C1    C17   S    
O37   Zn9   S    
C6    C86   S    
C95   C96   S    
C57   H5    S    
C6    C62   S    
C15   C75   T    
C65   O53   S    
C37   O45   A    
C31   C49   S    
C94   H26   S    
O24   Zn8   S    
O21   Zn5   S    
C5    C85   S    
C96   H29   S    
C68   O56   S    
O40   Zn12  S    
O25   Zn5   S    
C9    C69   T    
C101  C102  S    
C42   O20   A    
C8    H12   S    
C29   O31   A    
C25   O21   A    
C43   C51   S    
C55   C77   S    
C28   C74   S    
C27   O25   A    
O15   Zn2   S    
O1    Zn1   S    
C92   C93   S    
C95   H28   S    
C32   C50   S    
C110  C111  S    
C11   C71   T    
C26   O24   A    
C107  C108  S    
O36   Zn8   S    
C66   O54   S    
O18   Zn3   S    
O32   Zn8   S    
C59   C87   S    
C38   O47   A    
C96   H30   S    
C38   O48   A    
C35   O42   A    
C7    C67   S    
C98   H34   S    
C79   C83   S    
O26   Zn5   S    
O16   Zn2   S    
C35   O41   A    
C34   C48   S    
C103  H45   S    
C60   C68   S    
C26   O23   A    
C112  H68   S    
C13   C85   S    
C108  H57   S    
C16   C88   S    
C102  H44   S    
O2    Zn1   S    
C61   C81   S    
C91   H19   S    
O14   Zn1   S    
C54   C78   S    
C42   C72   S    
C36   O44   A    
C56   H4    S    
O44   Zn10  S    
C43   O6    A    
C105  C106  S    
C28   O28   A    
C57   C65   S    
C9    C81   S    
C93   H23   S    
C94   H25   S    
C34   O40   A    
C2    O10   A    
