data_mof_unit_41258.cif
_audit_creation_date              2012-12-10T19:04:12-0500
_audit_creation_method            fapswitch 2.2
_symmetry_space_group_name_H-M    P1
_symmetry_Int_Tables_number       1
_space_group_crystal_system       triclinic
_cell_length_a                    10.658204
_cell_length_b                    10.810958
_cell_length_c                    9.612967
_cell_angle_alpha                 89.861749
_cell_angle_beta                  90.244362
_cell_angle_gamma                 92.186436
_cell_volume                      1106.83865312

loop_
_atom_site_label
_atom_site_type_symbol
_atom_type_description
_atom_site_fract_x
_atom_site_fract_y
_atom_site_fract_z
_atom_type_partial_charge
C1    C     C_R   0.494748 0.262811 0.500113 0.827539
C2    C     C_3   0.961230 0.599254 0.436678 -0.258058
C3    C     C_3   0.040150 0.500220 0.368677 0.800957
C4    C     C_3   0.123565 0.498769 0.499010 -0.204287
C5    C     C_R   0.537810 0.067715 0.613501 -0.015498
C6    C     C_R   0.484177 0.129534 0.502793 -0.233679
C7    C     C_R   0.418822 0.060933 0.399671 0.665814
C8    C     C_R   0.421555 0.931662 0.401147 -0.192894
C9    C     C_R   0.492272 0.871217 0.502746 -0.111621
C10   C     C_R   0.542644 0.940359 0.614154 0.032894
C11   C     C_3   0.673386 0.947899 0.673905 0.395526
C12   C     C_R   0.259842 0.499166 0.499591 0.893676
C13   C     C_3   0.666359 0.087814 0.672728 -0.251527
C14   C     C_R   0.595513 0.557200 0.072662 0.057987
C15   C     C_R   0.411908 0.433585 0.075833 0.779368
C16   C     C_R   0.409981 0.433920 0.927144 -0.098463
C17   C     C_R   0.598518 0.552867 0.926190 0.207018
C18   C     C_3   0.646703 0.683562 0.915767 -0.325054
C19   C     C_3   0.640363 0.690485 0.074307 -0.213340
C20   C     C_R   0.500641 0.737725 0.500284 0.858222
C21   C     C_R   0.740188 0.497817 0.500265 0.811051
C22   C     C_3   0.039835 0.393876 0.562442 -0.278236
C23   C     C_3   0.954573 0.395869 0.430721 -0.276109
C24   C     C_3   0.876739 0.495962 0.500161 -0.264154
C25   C     C_3   0.960434 0.493594 0.630234 0.674458
C26   C     C_3   0.044825 0.597641 0.567633 -0.219718
Cu1   Cu    Cu3+1 0.499990 0.499980 0.640670 0.977630
Cu2   Cu    Cu3+1 0.500010 0.500020 0.359330 1.060848
H1    H     H_    0.915601 0.313730 0.373845 0.205048
H2    H     H_    0.732788 0.135143 0.599075 0.163955
H3    H     H_    0.578490 0.741554 0.860591 0.151060
H4    H     H_    0.731400 0.703449 0.129887 0.239383
H5    H     H_    0.074145 0.310159 0.615309 0.195028
H6    H     H_    0.371638 0.879374 0.320999 0.187031
H7    H     H_    0.681605 0.908843 0.779591 0.105026
N1    N     N_R   0.500800 0.500930 0.147930 -0.286903
N2    N     N_R   0.500800 0.500890 0.852020 -0.270444
O1    O     O_R   0.500000 0.319640 0.618810 -0.627751
O2    O     O_R   0.500010 0.319680 0.381230 -0.493062
O3    O     O_R   0.316850 0.499950 0.618770 -0.588352
O4    O     O_R   0.316860 0.499990 0.381190 -0.501246
O5    O     O_R   0.499990 0.680320 0.618770 -0.578371
O6    O     O_R   0.500000 0.680360 0.381190 -0.613479
O7    O     O_R   0.683140 0.500010 0.618810 -0.574924
O8    O     O_R   0.683150 0.500050 0.381230 -0.577264
F1    F     F_    0.761887 0.907130 0.581773 -0.707024
C27   C     C_2   0.665978 0.146520 0.814797 0.406925
H8    H     H_    0.733913 0.220823 0.838604 0.124300
O9    O     O_2   0.590839 0.111856 0.903684 -0.481002
F2    F     F_    0.324784 0.365030 0.147788 -0.531090
C28   C     C_2   0.308049 0.360409 0.857439 0.565468
H9    H     H_    0.323455 0.312885 0.761141 0.074811
O10   O     O_2   0.203365 0.351140 0.908486 -0.431660
C29   C     C_2   0.776685 0.694599 0.854870 0.545650
H10   H     H_    0.787912 0.685664 0.743484 0.085029
O11   O     O_2   0.869210 0.717776 0.926937 -0.452547
C30   C     C_2   0.544558 0.780930 0.116975 0.449492
H11   H     H_    0.445164 0.754825 0.115878 0.093640
O12   O     O_2   0.578164 0.886848 0.146338 -0.477330
F3    F     F_    0.919749 0.485616 0.766315 -0.619132
C31   C     C_2   0.089361 0.711592 0.644623 0.509458
H12   H     H_    0.021238 0.772536 0.687949 0.112668
O13   O     O_2   0.201199 0.737164 0.658007 -0.527857
C32   C     C_2   0.916839 0.712199 0.364032 0.437723
H13   H     H_    0.844289 0.765587 0.410378 0.131116
O14   O     O_2   0.961328 0.743951 0.252215 -0.427243
F4    F     F_    0.083060 0.503503 0.233064 -0.541416
F5    F     F_    0.355845 0.118227 0.296438 -0.575061

loop_
_geom_bond_atom_site_label_1
_geom_bond_atom_site_label_2
_ccdc_geom_bond_type
C12   O3    A    
C4    C26   S    
C23   C24   S    
C12   O4    A    
C25   F3    S    
C13   H2    S    
C4    C12   S    
C21   O7    A    
C4    C22   S    
C9    C10   A    
C15   N1    A    
C9    C20   S    
C5    C13   S    
C27   H8    S    
Cu1   O5    S    
C16   C28   S    
Cu1   O3    S    
C15   C16   A    
C32   H13   S    
C11   H7    S    
C17   C18   S    
C7    F5    S    
C5    C10   A    
C2    C26   S    
C8    H6    S    
C19   C30   S    
C2    C24   S    
C20   O5    A    
C11   C13   S    
C14   C17   A    
C30   H11   S    
C6    C7    A    
C1    O1    A    
Cu1   N2    S    
C5    C6    A    
C19   H4    S    
C23   H1    S    
C26   C31   S    
C2    C32   S    
C2    C3    S    
C21   O8    A    
C14   N1    A    
C31   H12   S    
C29   O11   D    
Cu2   O8    S    
C30   O12   D    
C10   C11   S    
C1    O2    A    
Cu1   O1    S    
C15   F2    S    
C3    C4    S    
Cu2   O4    S    
C7    C8    A    
C20   O6    A    
C28   H9    S    
C24   C25   S    
Cu2   N1    S    
C27   O9    D    
C18   C19   S    
C21   C24   S    
Cu1   Cu2   S    
C13   C27   S    
C22   H5    S    
C18   C29   S    
C29   H10   S    
C14   C19   S    
C11   F1    S    
C17   N2    A    
C18   H3    S    
Cu2   O6    S    
Cu2   O2    S    
C25   C26   S    
C22   C23   S    
C3    C23   S    
Cu1   O7    S    
C31   O13   D    
C3    F4    S    
C1    C6    S    
C16   N2    A    
C8    C9    A    
C28   O10   D    
C22   C25   S    
C32   O14   D    
