data_mof_unit_63786.cif
_audit_creation_date              2013-03-05T16:26:57-0500
_audit_creation_method            fapswitch 2.2
_symmetry_space_group_name_H-M    P1
_symmetry_Int_Tables_number       1
_space_group_crystal_system       triclinic
_cell_length_a                    18.378018
_cell_length_b                    18.367421
_cell_length_c                    27.672727
_cell_angle_alpha                 89.98099
_cell_angle_beta                  89.975754
_cell_angle_gamma                 90.015879
_cell_volume                      9341.11529086

loop_
_atom_site_label
_atom_site_type_symbol
_atom_site_description
_atom_site_fract_x
_atom_site_fract_y
_atom_site_fract_z
_atom_type_partial_charge
Zn1   Zn    Zn3+2 0.500000 0.913210 0.039810 1.014625
Zn2   Zn    Zn3+2 0.086790 0.500000 0.039810 1.009488
Zn3   Zn    Zn3+2 0.500000 0.086790 0.039810 1.013332
Zn4   Zn    Zn3+2 0.913210 0.500000 0.039810 1.013552
Zn5   Zn    Zn3+2 0.000000 0.413210 0.539810 1.006062
Zn6   Zn    Zn3+2 0.586790 0.000000 0.539810 1.006120
Zn7   Zn    Zn3+2 0.000000 0.586790 0.539810 1.007133
Zn8   Zn    Zn3+2 0.413210 0.000000 0.539810 1.009520
Zn9   Zn    Zn3+2 0.586760 0.000000 0.960200 1.111801
Zn10  Zn    Zn3+2 0.000000 0.586760 0.960200 1.118642
Zn11  Zn    Zn3+2 0.413240 0.000000 0.960200 1.107985
Zn12  Zn    Zn3+2 0.000000 0.413240 0.960200 1.113507
Zn13  Zn    Zn3+2 0.086760 0.500000 0.460200 1.119266
Zn14  Zn    Zn3+2 0.500000 0.086760 0.460200 1.116081
Zn15  Zn    Zn3+2 0.913240 0.500000 0.460200 1.116629
Zn16  Zn    Zn3+2 0.500000 0.913240 0.460200 1.112577
O1    O     O_3   0.500000 0.000000 0.000010 -0.537324
O2    O     O_3   1.000000 0.500000 0.000010 -0.537439
O3    O     O_3   0.000000 0.500000 0.500010 -0.536439
O4    O     O_3   0.500000 0.000000 0.500010 -0.536261
O5    O     O_R   0.439270 0.000000 0.893740 -0.592721
O6    O     O_R   0.000000 0.439270 0.893740 -0.588844
O7    O     O_R   0.560730 0.000000 0.893740 -0.588204
O8    O     O_R   0.000000 0.560730 0.893740 -0.591043
O9    O     O_R   0.939270 0.500000 0.393740 -0.593533
O10   O     O_R   0.500000 0.939270 0.393740 -0.592809
O11   O     O_R   0.060730 0.500000 0.393740 -0.586314
O12   O     O_R   0.500000 0.060730 0.393740 -0.592167
O13   O     O_R   0.500000 0.939230 0.106280 -0.640875
O14   O     O_R   0.060770 0.500000 0.106280 -0.639794
O15   O     O_R   0.500000 0.060770 0.106280 -0.640405
O16   O     O_R   0.939230 0.500000 0.106280 -0.640505
O17   O     O_R   1.000000 0.439230 0.606280 -0.640517
O18   O     O_R   0.560770 0.000000 0.606280 -0.640474
O19   O     O_R   1.000000 0.560770 0.606280 -0.640225
O20   O     O_R   0.439230 0.000000 0.606280 -0.640862
O21   O     O_R   0.646160 0.914520 0.972140 -0.613444
O22   O     O_R   0.085480 0.646160 0.972140 -0.600927
O23   O     O_R   0.353840 0.085480 0.972140 -0.612291
O24   O     O_R   0.914520 0.353840 0.972140 -0.613037
O25   O     O_R   0.646160 0.085480 0.972140 -0.604403
O26   O     O_R   0.085480 0.353840 0.972140 -0.604406
O27   O     O_R   0.353840 0.914520 0.972140 -0.609370
O28   O     O_R   0.914520 0.646160 0.972140 -0.602751
O29   O     O_R   0.146160 0.414520 0.472140 -0.608197
O30   O     O_R   0.585480 0.146160 0.472140 -0.606553
O31   O     O_R   0.853840 0.585480 0.472140 -0.606060
O32   O     O_R   0.414520 0.853840 0.472140 -0.610581
O33   O     O_R   0.146160 0.585480 0.472140 -0.600433
O34   O     O_R   0.585480 0.853840 0.472140 -0.602246
O35   O     O_R   0.853840 0.414520 0.472140 -0.601291
O36   O     O_R   0.414520 0.146160 0.472140 -0.601617
O37   O     O_R   0.414550 0.146120 0.027860 -0.624484
O38   O     O_R   0.853880 0.414550 0.027860 -0.624324
O39   O     O_R   0.585450 0.853880 0.027860 -0.623220
O40   O     O_R   0.146120 0.585450 0.027860 -0.630085
O41   O     O_R   0.414550 0.853880 0.027860 -0.615892
O42   O     O_R   0.853880 0.585450 0.027860 -0.619173
O43   O     O_R   0.585450 0.146120 0.027860 -0.618694
O44   O     O_R   0.146120 0.414550 0.027860 -0.620781
O45   O     O_R   0.914550 0.646120 0.527860 -0.625397
O46   O     O_R   0.353880 0.914550 0.527860 -0.619748
O47   O     O_R   0.085450 0.353880 0.527860 -0.625373
O48   O     O_R   0.646120 0.085450 0.527860 -0.625469
O49   O     O_R   0.914550 0.353880 0.527860 -0.635018
O50   O     O_R   0.353880 0.085450 0.527860 -0.632868
O51   O     O_R   0.085450 0.646120 0.527860 -0.632360
O52   O     O_R   0.646120 0.914550 0.527860 -0.634117
C1    C     C_1   0.000003 0.500006 0.775509 0.091377
C2    C     C_1   0.500017 0.000029 0.775509 0.091328
C3    C     C_1   0.499995 0.000013 0.275507 0.089937
C4    C     C_1   0.000018 0.500027 0.275510 0.090882
C5    C     C_R   0.500013 0.000013 0.870876 0.869153
C6    C     C_R   0.000004 0.500009 0.870870 0.879702
C7    C     C_R   0.000013 0.500012 0.370877 0.869729
C8    C     C_R   0.499998 0.000010 0.370869 0.864834
C9    C     C_R   0.500000 0.999990 0.129144 0.792420
C10   C     C_R   0.999988 0.500002 0.129137 0.792844
C11   C     C_R   0.000000 0.499990 0.629144 0.794943
C12   C     C_R   0.499988 0.000002 0.629137 0.794188
C13   C     C_R   0.640684 0.860458 0.000751 0.878147
C14   C     C_R   0.139412 0.640830 0.000742 0.862200
C15   C     C_R   0.359324 0.139533 0.000755 0.878342
C16   C     C_R   0.860472 0.359319 0.000745 0.877614
C17   C     C_R   0.641130 0.138994 0.000875 0.857832
C18   C     C_R   0.138974 0.358849 0.000881 0.856441
C19   C     C_R   0.359001 0.860908 0.000870 0.873925
C20   C     C_R   0.861023 0.641160 0.000887 0.857400
C21   C     C_R   0.140985 0.361113 0.501026 0.867755
C22   C     C_R   0.638835 0.141020 0.501037 0.868675
C23   C     C_R   0.859028 0.638883 0.501026 0.867965
C24   C     C_R   0.361022 0.858929 0.500990 0.874423
C25   C     C_R   0.140877 0.639391 0.500779 0.864042
C26   C     C_R   0.639283 0.859207 0.500781 0.877185
C27   C     C_R   0.859202 0.360722 0.500823 0.877129
C28   C     C_R   0.360722 0.140809 0.500796 0.878042
C29   C     C_1   0.000004 0.500020 0.819053 -0.015201
C30   C     C_1   0.500031 0.000026 0.819056 -0.017033
C31   C     C_1   0.499996 0.000024 0.319052 -0.022838
C32   C     C_1   0.000032 0.500024 0.319056 -0.018236
C33   C     C_R   0.263677 0.788545 0.962282 -0.082995
C34   C     C_R   0.209308 0.262053 0.962381 -0.078581
C35   C     C_R   0.737644 0.209593 0.962293 -0.078684
C36   C     C_R   0.790749 0.737972 0.962382 -0.078856
C37   C     C_R   0.264539 0.212458 0.962250 -0.092451
C38   C     C_R   0.209169 0.738224 0.962437 -0.086953
C39   C     C_R   0.735528 0.787584 0.962246 -0.092525
C40   C     C_R   0.787297 0.264805 0.962171 -0.092480
C41   C     C_R   0.765255 0.286173 0.462491 -0.079293
C42   C     C_R   0.714499 0.765812 0.462345 -0.078941
C43   C     C_R   0.239881 0.707679 0.462943 -0.073743
C44   C     C_R   0.285794 0.234440 0.462399 -0.079521
C45   C     C_R   0.767883 0.715523 0.462535 -0.104738
C46   C     C_R   0.714909 0.232826 0.462636 -0.104331
C47   C     C_R   0.232406 0.284721 0.462568 -0.104312
C48   C     C_R   0.289398 0.762892 0.462886 -0.094501
C49   C     C_R   0.298921 0.809832 0.004394 -0.037257
C50   C     C_R   0.189211 0.298011 0.004531 -0.054752
C51   C     C_R   0.701918 0.189270 0.004497 -0.054980
C52   C     C_R   0.810793 0.701996 0.004539 -0.054767
C53   C     C_R   0.300256 0.191947 0.004220 -0.049142
C54   C     C_R   0.190896 0.700743 0.004313 -0.062379
C55   C     C_R   0.699761 0.808056 0.004219 -0.048731
C56   C     C_R   0.808056 0.300247 0.004187 -0.048620
C57   C     C_R   0.800118 0.308637 0.504274 -0.045322
C58   C     C_R   0.691374 0.800128 0.504181 -0.045335
C59   C     C_R   0.200976 0.690671 0.504514 -0.064443
C60   C     C_R   0.308649 0.199895 0.504216 -0.044981
C61   C     C_R   0.799833 0.690457 0.504551 -0.038296
C62   C     C_R   0.690307 0.200311 0.504605 -0.039191
C63   C     C_R   0.200205 0.309568 0.504568 -0.039116
C64   C     C_R   0.310064 0.798825 0.504753 -0.041313
C65   C     C_R   0.271214 0.784077 0.049388 0.161251
C66   C     C_R   0.215567 0.270730 0.049475 0.169121
C67   C     C_R   0.729416 0.215363 0.049437 0.169146
C68   C     C_R   0.784395 0.729249 0.049480 0.169290
C69   C     C_R   0.273190 0.218183 0.049305 0.149279
C70   C     C_R   0.218709 0.726436 0.049328 0.154749
C71   C     C_R   0.726778 0.781797 0.049306 0.149481
C72   C     C_R   0.782036 0.272940 0.049272 0.149578
C73   C     C_R   0.774588 0.280397 0.549359 0.145251
C74   C     C_R   0.719077 0.774161 0.549283 0.145718
C75   C     C_R   0.225544 0.719607 0.549550 0.153047
C76   C     C_R   0.280710 0.225652 0.549311 0.145867
C77   C     C_R   0.771977 0.716622 0.549476 0.163806
C78   C     C_R   0.716925 0.227623 0.549548 0.163523
C79   C     C_R   0.227841 0.283215 0.549501 0.163567
C80   C     C_R   0.283339 0.771994 0.549724 0.162594
C81   C     C_1   0.499997 0.999989 0.224516 0.056755
C82   C     C_1   0.999988 0.500021 0.224515 0.057092
C83   C     C_1   0.000001 0.499985 0.724517 0.056899
C84   C     C_1   0.499986 0.000023 0.724514 0.056374
C85   C     C_1   0.499998 0.999977 0.180968 -0.092221
C86   C     C_1   0.999972 0.500012 0.180965 -0.092208
C87   C     C_1   0.000001 0.499975 0.680969 -0.093417
C88   C     C_1   0.499971 0.000013 0.680965 -0.093295
C89   C     C_3   0.222791 0.716202 0.910765 0.310603
C90   C     C_3   0.286058 0.228031 0.910720 0.304720
C91   C     C_3   0.771367 0.286772 0.910780 0.304200
C92   C     C_3   0.714008 0.771949 0.910741 0.304841
C93   C     C_3   0.223411 0.284994 0.910898 0.307094
C94   C     C_3   0.284738 0.773897 0.910414 0.304264
C95   C     C_3   0.776639 0.714975 0.910930 0.307306
C96   C     C_3   0.714329 0.224162 0.910956 0.307282
C97   C     C_3   0.712278 0.226321 0.408597 0.314682
C98   C     C_3   0.775204 0.713572 0.408528 0.313483
C99   C     C_3   0.277685 0.781900 0.410571 0.306152
C100  C     C_3   0.225402 0.286900 0.408546 0.315420
C101  C     C_3   0.713422 0.771996 0.407993 0.312229
C102  C     C_3   0.770746 0.288093 0.408116 0.311255
C103  C     C_3   0.287199 0.228494 0.408044 0.310664
C104  C     C_3   0.220540 0.719333 0.410514 0.306892
N1    N     N_R   0.161760 0.733755 0.878392 0.237605
O53   O     O_R   0.169094 0.725937 0.831912 -0.257248
O54   O     O_R   0.099774 0.756439 0.895491 -0.280379
N2    N     N_R   0.274261 0.164414 0.879308 0.232294
O55   O     O_R   0.322696 0.146156 0.847205 -0.290173
O56   O     O_R   0.218207 0.122107 0.885785 -0.274643
N3    N     N_R   0.834686 0.275141 0.879080 0.232165
O57   O     O_R   0.852804 0.323858 0.847101 -0.291154
O58   O     O_R   0.876903 0.218940 0.885183 -0.274159
N4    N     N_R   0.725813 0.835532 0.879265 0.232283
O59   O     O_R   0.677369 0.853780 0.847185 -0.293240
O60   O     O_R   0.781884 0.877827 0.885664 -0.274040
N5    N     N_R   0.163495 0.267371 0.877729 0.243203
O61   O     O_R   0.099601 0.249068 0.894032 -0.276975
O62   O     O_R   0.173924 0.270717 0.831266 -0.269841
N6    N     N_R   0.271383 0.836496 0.878458 0.224428
O63   O     O_R   0.246291 0.897640 0.895452 -0.288639
O64   O     O_R   0.284666 0.831336 0.832401 -0.267251
N7    N     N_R   0.836556 0.732548 0.877709 0.242713
O65   O     O_R   0.900453 0.750864 0.893958 -0.271466
O66   O     O_R   0.826127 0.729143 0.831256 -0.270360
N8    N     N_R   0.731562 0.164470 0.877490 0.243166
O67   O     O_R   0.749875 0.100382 0.893477 -0.276649
O68   O     O_R   0.727852 0.175297 0.831081 -0.270239
N9    N     N_R   0.640591 0.246417 0.388961 0.236073
O69   O     O_R   0.610317 0.207175 0.355375 -0.270405
O70   O     O_R   0.603880 0.300215 0.407535 -0.267496
N10   N     N_R   0.755484 0.642063 0.388373 0.236095
O71   O     O_R   0.795257 0.612230 0.354880 -0.271421
O72   O     O_R   0.701454 0.605040 0.406398 -0.267114
N11   N     N_R   0.343326 0.768429 0.381381 0.233194
O73   O     O_R   0.363823 0.815122 0.348713 -0.288285
O74   O     O_R   0.384966 0.712682 0.390383 -0.262936
N12   N     N_R   0.245220 0.358497 0.388531 0.235749
O75   O     O_R   0.205652 0.388445 0.354986 -0.270664
O76   O     O_R   0.299123 0.395467 0.406724 -0.272553
N13   N     N_R   0.645140 0.747199 0.385815 0.235432
O77   O     O_R   0.588754 0.730779 0.412141 -0.279392
O78   O     O_R   0.641589 0.738187 0.339243 -0.256096
N14   N     N_R   0.745775 0.356781 0.386518 0.235984
O79   O     O_R   0.729676 0.412764 0.413299 -0.272651
O80   O     O_R   0.736234 0.361088 0.340019 -0.253819
N15   N     N_R   0.355615 0.253403 0.386050 0.235924
O81   O     O_R   0.411845 0.269689 0.412520 -0.272211
O82   O     O_R   0.359451 0.262626 0.339500 -0.254464
N16   N     N_R   0.240154 0.657719 0.379227 0.244216
O83   O     O_R   0.257048 0.594595 0.397443 -0.263158
O84   O     O_R   0.240038 0.665836 0.332510 -0.264826
N17   N     N_R   0.246563 0.639820 0.906438 0.211953
O85   O     O_R   0.294136 0.612807 0.936353 -0.288887
O86   O     O_R   0.215730 0.596501 0.875373 -0.275557
N18   N     N_R   0.358706 0.260465 0.904211 0.235846
O87   O     O_R   0.405480 0.263416 0.939439 -0.319180
O88   O     O_R   0.376310 0.288352 0.862578 -0.226250
N19   N     N_R   0.739028 0.359550 0.904647 0.235543
O89   O     O_R   0.736356 0.406058 0.940059 -0.319603
O90   O     O_R   0.710898 0.377524 0.863177 -0.225574
N20   N     N_R   0.641357 0.739516 0.904303 0.233479
O91   O     O_R   0.594675 0.736393 0.939606 -0.317155
O92   O     O_R   0.623725 0.711647 0.862692 -0.229411
N21   N     N_R   0.246509 0.361646 0.907113 0.208998
O93   O     O_R   0.292331 0.389192 0.938003 -0.292914
O94   O     O_R   0.217267 0.404413 0.875041 -0.274882
N22   N     N_R   0.357939 0.743128 0.903484 0.224932
O95   O     O_R   0.404397 0.739055 0.938847 -0.320422
O96   O     O_R   0.376217 0.717075 0.861478 -0.231345
N23   N     N_R   0.753522 0.638321 0.907232 0.209994
O97   O     O_R   0.707687 0.610826 0.938172 -0.288172
O98   O     O_R   0.782776 0.595497 0.875201 -0.282230
N24   N     N_R   0.637731 0.247401 0.907571 0.209796
O99   O     O_R   0.610550 0.293056 0.938729 -0.288878
O100  O     O_R   0.594654 0.218422 0.875595 -0.280845
N25   N     N_R   0.738700 0.155884 0.390333 0.227960
O101  O     O_R   0.750802 0.101588 0.419488 -0.328441
O102  O     O_R   0.748884 0.146738 0.344199 -0.245369
N26   N     N_R   0.845855 0.740327 0.390849 0.228836
O103  O     O_R   0.899701 0.752036 0.420396 -0.325994
O104  O     O_R   0.855680 0.751123 0.344833 -0.242541
N27   N     N_R   0.246060 0.854306 0.401653 0.233778
O105  O     O_R   0.240734 0.902576 0.435878 -0.327416
O106  O     O_R   0.221142 0.870106 0.358906 -0.237075
N28   N     N_R   0.154866 0.260199 0.390685 0.227916
O107  O     O_R   0.100874 0.248283 0.420112 -0.328467
O108  O     O_R   0.145315 0.249592 0.344635 -0.244909
N29   N     N_R   0.735962 0.843956 0.390060 0.216644
O109  O     O_R   0.751519 0.896714 0.419719 -0.331490
O110  O     O_R   0.739960 0.855884 0.343790 -0.253408
N30   N     N_R   0.842401 0.265763 0.389631 0.216809
O111  O     O_R   0.895465 0.249633 0.418887 -0.331993
O112  O     O_R   0.853731 0.262496 0.343271 -0.254280
N31   N     N_R   0.264780 0.156608 0.389954 0.216426
O113  O     O_R   0.248940 0.103748 0.419498 -0.327815
O114  O     O_R   0.261121 0.144869 0.343657 -0.254059
N32   N     N_R   0.144352 0.742359 0.403965 0.210131
O115  O     O_R   0.114936 0.789817 0.432965 -0.299926
O116  O     O_R   0.103702 0.711516 0.371361 -0.284516
C105  C     C_3   0.295227 0.818114 0.096686 -0.805260
H1    H     H_    0.327882 0.868245 0.092117 0.223864
H2    H     H_    0.246766 0.835516 0.117666 0.242902
H3    H     H_    0.327416 0.778257 0.117955 0.270564
C106  C     C_3   0.181853 0.294946 0.096836 -0.801666
H4    H     H_    0.132322 0.328468 0.092382 0.225730
H5    H     H_    0.163618 0.246593 0.117647 0.242136
H6    H     H_    0.222172 0.326362 0.118220 0.269839
C107  C     C_3   0.705316 0.181452 0.096779 -0.801955
H7    H     H_    0.671584 0.132039 0.092298 0.225348
H8    H     H_    0.753675 0.162943 0.117418 0.242164
H9    H     H_    0.674178 0.221783 0.118343 0.270021
C108  C     C_3   0.818052 0.704992 0.096842 -0.801231
H10   H     H_    0.867579 0.671461 0.092389 0.225544
H11   H     H_    0.836274 0.753328 0.117645 0.242130
H12   H     H_    0.777702 0.673571 0.118233 0.269946
C109  C     C_3   0.306225 0.190192 0.096047 -0.781349
H13   H     H_    0.363206 0.209548 0.099218 0.273931
H14   H     H_    0.277963 0.208452 0.129137 0.253034
H15   H     H_    0.305282 0.129736 0.096333 0.213513
C110  C     C_3   0.192091 0.692321 0.096105 -0.775893
H16   H     H_    0.211566 0.635279 0.098518 0.273637
H17   H     H_    0.211350 0.719861 0.129208 0.251704
H18   H     H_    0.131689 0.693207 0.097181 0.214972
C111  C     C_3   0.693691 0.809760 0.096046 -0.781143
H19   H     H_    0.636709 0.790400 0.099227 0.273988
H20   H     H_    0.721922 0.791485 0.129137 0.253016
H21   H     H_    0.694631 0.870217 0.096320 0.213516
C112  C     C_3   0.810331 0.305690 0.096017 -0.781676
H22   H     H_    0.791096 0.362704 0.099399 0.273848
H23   H     H_    0.792239 0.277219 0.129084 0.253153
H24   H     H_    0.870753 0.304693 0.096113 0.213430
C113  C     C_3   0.808052 0.307714 0.596148 -0.781778
H25   H     H_    0.865282 0.288959 0.598753 0.271022
H26   H     H_    0.806395 0.368141 0.597062 0.217510
H27   H     H_    0.780638 0.288244 0.629260 0.252809
C114  C     C_3   0.691057 0.807061 0.596076 -0.783390
H28   H     H_    0.709654 0.864338 0.599071 0.271061
H29   H     H_    0.630657 0.805268 0.596628 0.216924
H30   H     H_    0.710074 0.779281 0.629158 0.253019
C115  C     C_3   0.190218 0.694267 0.596241 -0.774414
H31   H     H_    0.133260 0.714086 0.597861 0.272072
H32   H     H_    0.190820 0.633861 0.597984 0.217216
H33   H     H_    0.217025 0.714237 0.629420 0.251789
C116  C     C_3   0.308443 0.192511 0.596105 -0.782325
H34   H     H_    0.289802 0.135228 0.598963 0.271321
H35   H     H_    0.368839 0.194281 0.596783 0.217025
H36   H     H_    0.289236 0.220127 0.629197 0.252964
C117  C     C_3   0.795125 0.682120 0.596832 -0.804120
H37   H     H_    0.828389 0.632397 0.592384 0.225865
H38   H     H_    0.826465 0.721970 0.618655 0.267374
H39   H     H_    0.746310 0.664012 0.617194 0.244820
C118  C     C_3   0.682722 0.204096 0.596934 -0.803353
H40   H     H_    0.632716 0.171249 0.592520 0.225935
H41   H     H_    0.722517 0.172191 0.618431 0.267160
H42   H     H_    0.665163 0.252797 0.617618 0.244902
C119  C     C_3   0.204512 0.317559 0.596867 -0.804231
H43   H     H_    0.171392 0.367381 0.592432 0.225932
H44   H     H_    0.172973 0.277681 0.618576 0.267434
H45   H     H_    0.253255 0.335481 0.617342 0.244828
C120  C     C_3   0.316538 0.796738 0.597109 -0.802741
H46   H     H_    0.367033 0.828850 0.592678 0.225058
H47   H     H_    0.276538 0.829731 0.617703 0.268632
H48   H     H_    0.333083 0.748563 0.618696 0.244415

loop_
_geom_bond_atom_site_label_1
_geom_bond_atom_site_label_2
_geom_bond_distance
_ccdc_geom_bond_type
N8    O68   1.301317 A    
C62   C78   1.427775 A    
C112  H23   1.104838 S    
C49   C65   1.425571 A    
C104  N16   1.469987 S    
C113  H25   1.109211 S    
C108  H12   1.110210 S    
C73   C113  1.518991 S    
N11   O74   1.302516 A    
C80   C120  1.516305 S    
C106  H6    1.110212 S    
C43   C104  1.509123 S    
N9    O70   1.302382 A    
C81   C85   1.205078 T    
N4    O59   1.301432 A    
N28   O108  1.301168 A    
Zn14  O36   1.941175 S    
C84   C88   1.205136 T    
N24   O100  1.301434 A    
O26   C18   1.268145 A    
Zn15  O35   1.940191 S    
C61   C77   1.427780 A    
C120  H46   1.106200 S    
Zn4   O2    1.937954 S    
C115  H32   1.110595 S    
N25   O101  1.301799 A    
C78   C118  1.516609 S    
C46   C62   1.381619 A    
O21   C13   1.273721 A    
C75   C80   1.432994 A    
C40   C56   1.386348 A    
O11   C7    1.282977 A    
N26   O104  1.301166 A    
O15   C9    1.283010 A    
N7    O65   1.301779 A    
C92   C95   1.555838 S    
O48   C22   1.268988 A    
N31   O113  1.301891 A    
O20   C12   1.283540 A    
C45   C98   1.500953 S    
O44   C18   1.273527 A    
N12   O75   1.301356 A    
C77   C117  1.516559 S    
C3    C31   1.205003 T    
C1    C83   1.411082 S    
Zn12  O24   1.940563 S    
C117  H39   1.110069 S    
N15   O81   1.301756 A    
N19   O89   1.301135 A    
Zn16  O4    1.937582 S    
C100  N28   1.471596 S    
Zn1   O13   1.900630 S    
C97   N25   1.471599 S    
C59   C75   1.428390 A    
Zn3   O15   1.900323 S    
C60   C76   1.429933 A    
Zn4   O16   1.900742 S    
O30   C22   1.269060 A    
Zn5   O49   1.939789 S    
Zn7   O3    1.937880 S    
C105  H2    1.110057 S    
C92   N20   1.472803 S    
C95   N23   1.474130 S    
C113  H27   1.104812 S    
N31   O114  1.301011 A    
Zn9   O7    1.900521 S    
O42   C20   1.273093 A    
C23   C61   1.445996 S    
Zn9   O25   1.940524 S    
C21   C63   1.446026 S    
Zn10  O22   1.940911 S    
C98   N26   1.471637 S    
C109  H14   1.104827 S    
Zn13  O29   1.940838 S    
Zn10  O2    1.936980 S    
C34   C93   1.507856 S    
Zn3   O1    1.937880 S    
Zn2   O44   1.939734 S    
C79   C119  1.516580 S    
C11   C87   1.434142 S    
C42   C101  1.508441 S    
C93   N21   1.474069 S    
N14   O79   1.301766 A    
N10   O72   1.302378 A    
C118  H40   1.106046 S    
Zn4   O42   1.939712 S    
O33   C25   1.272214 A    
C89   C94   1.555157 S    
C14   C54   1.454496 S    
C36   C39   1.364115 A    
O35   C27   1.271107 A    
N5    O61   1.301779 A    
C28   C60   1.450230 S    
N17   O85   1.302474 A    
C13   C55   1.454298 S    
C24   C64   1.451161 S    
C70   C110  1.518644 S    
C96   N8    1.469907 S    
C116  H35   1.110602 S    
C44   C103  1.508360 S    
Zn12  O6    1.900102 S    
N22   O95   1.301125 A    
N6    O64   1.301073 A    
N29   O109  1.301881 A    
C53   C69   1.426953 A    
C119  H44   1.110191 S    
C9    C85   1.434125 S    
C100  C103  1.562544 S    
C57   C73   1.429935 A    
C114  H29   1.110602 S    
Zn5   O17   1.900630 S    
C104  N32   1.474016 S    
C63   C79   1.427792 A    
O39   C13   1.267666 A    
N21   O93   1.302498 A    
C50   C66   1.425747 A    
N2    O56   1.302497 A    
C107  H7    1.105993 S    
C89   N17   1.474401 S    
C120  H47   1.110202 S    
C38   C54   1.388748 A    
C119  H43   1.106014 S    
C76   C79   1.436151 A    
C110  H16   1.109258 S    
N1    O54   1.301981 A    
C5    C30   1.434020 S    
Zn10  O28   1.941175 S    
O34   C26   1.271317 A    
Zn10  O8    1.900409 S    
Zn11  O5    1.900129 S    
O52   C26   1.269291 A    
O41   C19   1.271748 A    
O43   C17   1.273331 A    
C111  H19   1.109313 S    
Zn1   O41   1.939789 S    
N16   O84   1.301313 A    
C48   C64   1.386658 A    
C118  H42   1.110071 S    
O47   C21   1.268837 A    
N13   O77   1.301749 A    
C102  N14   1.469555 S    
N23   O98   1.301443 A    
N32   O116  1.301451 A    
C41   C46   1.347480 A    
C42   C58   1.385077 A    
N19   O90   1.301353 A    
C83   C87   1.205089 T    
O6    C6    1.282448 A    
C46   C97   1.501029 S    
C90   N2    1.472636 S    
C33   C38   1.362813 A    
N30   O111  1.301885 A    
O40   C14   1.269904 A    
C72   C112  1.518701 S    
C108  H11   1.109994 S    
C38   C89   1.506992 S    
Zn1   O1    1.937280 S    
Zn2   O14   1.900350 S    
Zn1   O39   1.940050 S    
C103  N15   1.469529 S    
Zn2   O40   1.939065 S    
Zn3   O37   1.940155 S    
C4    C82   1.411168 S    
O19   C11   1.283018 A    
C106  H5    1.109991 S    
N9    O69   1.301352 A    
N4    O60   1.302500 A    
Zn7   O51   1.939438 S    
O49   C27   1.269219 A    
O13   C9    1.283067 A    
O32   C24   1.269735 A    
C107  H9    1.110217 S    
Zn8   O46   1.939402 S    
O51   C25   1.270423 A    
C66   C106  1.516337 S    
C91   C96   1.555843 S    
C95   N7    1.469910 S    
C47   C100  1.501049 S    
C1    C29   1.205001 T    
O24   C16   1.273884 A    
N23   O97   1.302499 A    
C39   C55   1.386487 A    
C96   N24   1.474132 S    
N18   O87   1.301144 A    
C66   C69   1.433021 A    
O38   C16   1.267791 A    
C39   C92   1.506989 S    
N27   O105  1.301222 A    
Zn14  O30   1.940911 S    
C40   C91   1.506984 S    
Zn15  O3    1.938422 S    
C35   C96   1.507894 S    
C33   C94   1.510688 S    
Zn16  O34   1.941277 S    
C19   C49   1.451902 S    
C111  H21   1.110590 S    
N12   O76   1.302379 A    
C110  H18   1.110591 S    
Zn5   O47   1.940050 S    
C34   C37   1.364052 A    
Zn8   O20   1.900742 S    
Zn6   O48   1.939065 S    
C117  H38   1.110193 S    
Zn7   O45   1.940155 S    
C93   N5    1.469913 S    
C90   C93   1.555927 S    
C43   C48   1.362378 A    
C99   N11   1.472572 S    
C20   C52   1.453112 S    
O29   C21   1.268722 A    
C94   N22   1.471828 S    
N8    O67   1.301768 A    
C65   C70   1.432285 A    
C105  H1    1.106138 S    
O22   C14   1.272446 A    
C74   C77   1.436206 A    
C68   C71   1.432965 A    
C75   C115  1.518652 S    
C113  H26   1.110603 S    
Zn16  O10   1.900102 S    
C67   C72   1.432827 A    
Zn13  O3    1.937653 S    
Zn14  O4    1.936980 S    
C54   C70   1.427059 A    
C10   C86   1.434230 S    
C115  H31   1.109254 S    
C58   C74   1.429919 A    
C51   C67   1.425644 A    
Zn6   O18   1.900350 S    
C52   C68   1.425701 A    
N7    O66   1.301314 A    
N28   O107  1.301798 A    
C97   N9    1.472402 S    
N24   O99   1.302497 A    
C18   C50   1.453216 S    
Zn9   O1    1.937653 S    
C68   C108  1.516331 S    
C73   C78   1.435989 A    
N14   O80   1.301075 A    
N25   O102  1.301172 A    
O12   C8    1.282514 A    
N26   O103  1.301812 A    
O50   C28   1.268826 A    
C97   C102  1.562496 S    
Zn11  O1    1.938422 S    
C90   N18   1.472821 S    
C67   C107  1.516337 S    
O31   C23   1.269132 A    
C56   C72   1.426801 A    
O17   C11   1.283068 A    
C91   N3    1.472653 S    
C99   C104  1.556571 S    
Zn5   O3    1.937280 S    
Zn6   O4    1.938720 S    
O37   C15   1.268059 A    
C33   C49   1.389714 A    
O23   C15   1.274131 A    
C94   N6    1.471030 S    
C120  H48   1.110061 S    
C116  H34   1.109210 S    
C3    C81   1.411071 S    
N22   O96   1.301231 A    
N20   O91   1.301132 A    
C44   C60   1.384993 A    
N5    O62   1.301316 A    
N3    O57   1.301430 A    
C22   C62   1.445732 S    
C103  N31   1.471059 S    
C111  H20   1.104825 S    
C114  H28   1.109209 S    
C105  H3    1.110209 S    
C110  H17   1.104887 S    
O9    C7    1.282928 A    
C89   N1    1.471523 S    
C36   C52   1.390415 A    
N11   O73   1.301416 A    
Zn8   O50   1.939712 S    
C55   C71   1.426938 A    
Zn2   O2    1.938720 S    
C112  H22   1.109314 S    
Zn15  O31   1.940857 S    
Zn16  O32   1.940563 S    
C36   C95   1.507830 S    
C47   C63   1.381754 A    
N1    O53   1.301236 A    
C8    C31   1.433934 S    
Zn8   O4    1.937954 S    
C45   C61   1.381665 A    
C109  H15   1.110588 S    
C76   C116  1.518968 S    
N15   O82   1.301076 A    
N27   O106  1.301360 A    
C99   N27   1.472296 S    
C17   C51   1.452743 S    
O18   C12   1.283470 A    
C37   C90   1.506927 S    
N10   O71   1.301358 A    
C118  H41   1.110192 S    
O46   C24   1.270545 A    
O10   C8    1.282470 A    
C48   C99   1.504684 S    
Zn11  O27   1.940191 S    
C35   C40   1.364042 A    
C91   N19   1.472855 S    
C34   C50   1.390463 A    
Zn6   O52   1.939734 S    
C101  N29   1.471025 S    
O7    C5    1.282981 A    
C92   N4    1.472645 S    
C12   C88   1.434225 S    
C6    C29   1.433907 S    
C26   C58   1.450334 S    
O5    C5    1.282929 A    
C74   C114  1.518953 S    
Zn12  O26   1.941277 S    
C64   C80   1.425398 A    
C2    C84   1.411163 S    
N30   O112  1.301011 A    
C71   C111  1.518709 S    
C116  H36   1.104821 S    
C108  H10   1.106002 S    
N6    O63   1.302107 A    
N29   O110  1.301013 A    
C119  H45   1.110068 S    
N20   O92   1.301363 A    
C25   C59   1.455110 S    
C27   C57   1.450057 S    
C65   C105  1.516447 S    
C69   C109  1.518704 S    
C114  H30   1.104824 S    
C101  N13   1.469485 S    
Zn9   O21   1.940838 S    
C106  H4    1.106003 S    
C37   C53   1.386426 A    
C15   C53   1.454306 S    
Zn11  O23   1.940857 S    
N21   O94   1.301431 A    
C42   C45   1.347683 A    
C98   C101  1.562574 S    
Zn13  O33   1.940524 S    
C41   C57   1.385083 A    
N2    O55   1.301434 A    
C107  H8    1.109996 S    
C43   C59   1.389648 A    
C112  H24   1.110592 S    
C100  N12   1.472369 S    
C41   C102  1.508431 S    
C4    C32   1.205056 T    
C115  H33   1.104885 S    
Zn4   O38   1.939402 S    
Zn7   O19   1.900323 S    
C35   C51   1.390446 A    
N18   O88   1.301363 A    
C109  H13   1.109310 S    
C16   C56   1.453798 S    
O25   C17   1.267860 A    
O27   C19   1.268991 A    
N17   O86   1.301440 A    
O8    C6    1.282521 A    
N16   O83   1.301819 A    
C7    C32   1.434009 S    
N13   O78   1.301081 A    
O36   C28   1.270924 A    
C117  H37   1.106013 S    
C98   N10   1.472390 S    
N32   O115  1.302489 A    
O16   C10   1.283543 A    
O14   C10   1.283469 A    
C2    C30   1.205056 T    
Zn15  O9    1.900129 S    
C82   C86   1.205139 T    
Zn12  O2    1.937582 S    
Zn13  O11   1.900521 S    
C102  N30   1.471035 S    
Zn14  O12   1.900409 S    
O28   C20   1.267716 A    
C44   C47   1.347640 A    
O45   C23   1.269209 A    
N3    O58   1.302494 A    
Zn3   O43   1.939438 S    
