data_mof_unit_9644.cif
_audit_creation_date              2012-12-11T16:37:27-0500
_audit_creation_method            fapswitch 2.2
_symmetry_space_group_name_H-M    P1
_symmetry_Int_Tables_number       1
_space_group_crystal_system       triclinic
_cell_length_a                    19.529215
_cell_length_b                    6.931232
_cell_length_c                    17.698441
_cell_angle_alpha                 90.105087
_cell_angle_beta                  108.984346
_cell_angle_gamma                 90.115154
_cell_volume                      2265.36798156

loop_
_atom_site_label
_atom_site_type_symbol
_atom_type_description
_atom_site_fract_x
_atom_site_fract_y
_atom_site_fract_z
_atom_type_partial_charge
O1    O     O_R   0.561710 0.369960 0.440200 -0.541229
O2    O     O_R   0.061710 0.630040 0.940200 -0.544370
O3    O     O_R   0.412630 0.033330 0.406330 -0.546621
O4    O     O_R   0.912630 0.966670 0.906330 -0.546773
O5    O     O_R   0.438290 0.869790 0.559800 -0.539721
O6    O     O_R   0.938290 0.130210 0.059800 -0.538251
C1    C     C_R   0.385164 0.202925 0.383117 0.687295
C2    C     C_R   0.886579 0.796123 0.880918 0.691762
O7    O     O_R   0.559570 0.039810 0.430640 -0.541397
O8    O     O_R   0.059570 0.960190 0.930640 -0.544004
O9    O     O_R   0.586280 0.876320 0.584290 -0.537364
O10   O     O_R   0.086280 0.123680 0.084290 -0.537242
C3    C     C_R   0.580774 0.208998 0.415223 0.684737
C4    C     C_R   0.081565 0.791194 0.916147 0.683451
O11   O     O_R   0.413720 0.363440 0.415710 -0.540384
O12   O     O_R   0.913720 0.636560 0.915710 -0.542004
O13   O     O_3   0.508590 0.205630 0.550380 -0.366313
O14   O     O_3   0.008590 0.794370 0.050380 -0.363893
V1    V     V_3+5 0.498410 0.928130 0.490650 1.384919
V2    V     V_3+5 0.998410 0.071870 0.990650 1.371297
O15   O     O_R   0.587370 0.546990 0.593670 -0.538524
O16   O     O_R   0.087370 0.453010 0.093670 -0.537725
C5    C     C_R   0.614340 0.717401 0.617933 0.703248
C6    C     C_R   0.114908 0.283480 0.117093 0.708045
O17   O     O_R   0.440430 0.540520 0.569360 -0.541861
O18   O     O_R   0.940430 0.459480 0.069360 -0.540485
C7    C     C_R   0.418919 0.709296 0.584452 0.686880
C8    C     C_R   0.918738 0.290695 0.084271 0.691795
V3    V     V_3+5 0.501590 0.428960 0.509350 1.392220
V4    V     V_3+5 0.001590 0.571040 0.009350 1.385099
O19   O     O_3   0.491410 0.701330 0.449620 -0.371464
O20   O     O_3   0.991410 0.298670 0.949620 -0.383904
C9    C     C_R   0.282247 0.898617 0.677778 -0.145235
C10   C     C_R   0.781737 0.099456 0.176932 -0.145884
H1    H     H_    0.250006 0.027595 0.672996 0.104858
H2    H     H_    0.750514 0.968490 0.173048 0.103869
C11   C     C_R   0.328886 0.887428 0.632319 -0.161013
C12   C     C_R   0.829186 0.110486 0.132435 -0.161539
H3    H     H_    0.331743 0.008882 0.595019 0.121182
H4    H     H_    0.833575 0.987046 0.096683 0.121842
C13   C     C_R   0.370105 0.720588 0.633629 -0.053007
C14   C     C_R   0.869273 0.279459 0.132738 -0.054469
C15   C     C_R   0.363951 0.565656 0.682123 -0.165321
C16   C     C_R   0.861027 0.436864 0.179177 -0.164678
H5    H     H_    0.395294 0.435518 0.684970 0.122548
H6    H     H_    0.891339 0.568871 0.181139 0.123255
C17   C     C_R   0.318297 0.578114 0.728811 -0.142865
C18   C     C_R   0.814466 0.424768 0.224840 -0.142612
H7    H     H_    0.316872 0.457580 0.767027 0.101604
H8    H     H_    0.811344 0.547420 0.261476 0.101325
C19   C     C_R   0.276344 0.744542 0.727143 0.088371
C20   C     C_R   0.773780 0.256015 0.224253 0.089089
C21   C     C_R   0.193353 0.590526 0.793908 -0.144685
C22   C     C_R   0.688028 0.408405 0.287714 -0.144999
H9    H     H_    0.202004 0.450464 0.771547 0.099152
H10   H     H_    0.694937 0.547133 0.263158 0.099972
C23   C     C_R   0.147408 0.602014 0.840112 -0.166526
C24   C     C_R   0.642193 0.397062 0.334101 -0.168028
H11   H     H_    0.124232 0.470402 0.853944 0.125061
H12   H     H_    0.616687 0.527719 0.345160 0.117369
C25   C     C_R   0.131303 0.780619 0.867933 -0.047085
C26   C     C_R   0.629086 0.219677 0.365382 -0.051044
C27   C     C_R   0.164338 0.947405 0.850497 -0.166553
C28   C     C_R   0.663454 0.053815 0.349470 -0.163960
H13   H     H_    0.154579 0.087001 0.872533 0.114674
H14   H     H_    0.655091 0.914934 0.373074 0.118475
C29   C     C_R   0.211667 0.935765 0.805743 -0.142057
C30   C     C_R   0.710474 0.065630 0.304386 -0.142720
H15   H     H_    0.237353 0.067129 0.795577 0.096506
H16   H     H_    0.737552 0.935412 0.295833 0.097551
C31   C     C_R   0.226557 0.757151 0.776102 0.093169
C32   C     C_R   0.723485 0.243166 0.272585 0.091799
C33   C     C_R   0.807799 0.633964 0.751930 0.079392
C34   C     C_R   0.300050 0.382461 0.267360 0.076234
C35   C     C_R   0.820382 0.783306 0.809419 -0.121854
C36   C     C_R   0.317145 0.217747 0.315104 -0.124606
C37   C     C_R   0.765813 0.925267 0.795904 -0.177105
C38   C     C_R   0.263394 0.072170 0.297023 -0.187953
H17   H     H_    0.773413 0.048155 0.835654 0.119732
H18   H     H_    0.271491 0.943199 0.333128 0.119783
C39   C     C_R   0.698654 0.903649 0.734039 -0.176834
C40   C     C_R   0.196993 0.095712 0.233564 -0.178566
H19   H     H_    0.657537 0.012962 0.726914 0.125265
H20   H     H_    0.156798 0.982069 0.222416 0.128812
C41   C     C_R   0.683238 0.737190 0.685088 -0.103418
C42   C     C_R   0.182162 0.265399 0.186129 -0.106405
C43   C     C_R   0.740142 0.609289 0.695130 0.072869
C44   C     C_R   0.236233 0.405283 0.206675 0.075424
C45   C     C_3   0.744247 0.396440 0.694737 -0.436841
C46   C     C_3   0.255548 0.600655 0.185329 -0.441655
C47   C     C_3   0.822026 0.419675 0.752209 -0.089690
C48   C     C_3   0.327199 0.577793 0.255595 -0.092669
H21   H     H_    0.738501 0.339020 0.634239 0.167839
H22   H     H_    0.261498 0.602903 0.124951 0.168087
H23   H     H_    0.707169 0.330547 0.723550 0.161179
H24   H     H_    0.219216 0.712490 0.195708 0.167436
H25   H     H_    0.831152 0.349603 0.811129 0.149995
H26   H     H_    0.331888 0.673568 0.307420 0.146144
C49   C     C_3   0.876327 0.364024 0.708835 -0.359532
C50   C     C_3   0.953360 0.336382 0.765484 -0.279823
C51   C     C_3   0.004478 0.286311 0.718860 -0.796110
H27   H     H_    0.010466 0.411551 0.682419 0.234289
H28   H     H_    0.058449 0.247633 0.760762 0.216144
H29   H     H_    0.983602 0.160356 0.679044 0.230895
H30   H     H_    0.972534 0.470002 0.800810 0.207133
H31   H     H_    0.953625 0.214684 0.806149 0.222939
H32   H     H_    0.858712 0.224597 0.677040 0.185735
H33   H     H_    0.876042 0.474259 0.663035 0.186626
C52   C     C_3   0.395722 0.572720 0.231048 -0.312477
C53   C     C_3   0.416804 0.777226 0.213746 -0.298734
C54   C     C_3   0.486772 0.777127 0.193053 -0.771815
H34   H     H_    0.532243 0.722541 0.244194 0.224422
H35   H     H_    0.480714 0.685254 0.139770 0.229832
H36   H     H_    0.499836 0.926641 0.179760 0.220229
H37   H     H_    0.372784 0.839862 0.162953 0.198186
H38   H     H_    0.424554 0.870580 0.267037 0.204314
H39   H     H_    0.440689 0.510193 0.280902 0.179468
H40   H     H_    0.387096 0.479420 0.177489 0.173071

loop_
_geom_bond_atom_site_label_1
_geom_bond_atom_site_label_2
_ccdc_geom_bond_type
C24   C26   A    
V4    O20   S    
C27   H13   S    
C51   H27   S    
O11   V3    S    
C38   C40   A    
O13   V3    S    
C54   H34   S    
O4    C2    A    
V1    O19   S    
C52   H39   S    
C17   H7    S    
C49   H33   S    
O9    V1    S    
C50   H30   S    
C19   C31   S    
C11   C13   A    
C28   C30   A    
C36   C38   A    
C12   C14   A    
O3    C1    A    
C22   C24   A    
C38   H18   S    
C48   C52   S    
C23   H11   S    
C24   H12   S    
C34   C48   S    
C25   C27   A    
O7    C3    A    
C53   C54   S    
C33   C43   A    
C26   C28   A    
O13   V1    S    
O5    C7    A    
O7    V1    S    
O6    C8    A    
C3    C26   S    
O8    V2    S    
O3    V1    S    
O14   V4    S    
C45   C47   S    
C13   C15   A    
C29   C31   A    
C21   H9    S    
C2    O12   A    
V3    O19   S    
C33   C35   A    
C14   C16   A    
O18   C8    A    
C39   H19   S    
C16   H6    S    
C52   H40   S    
C46   H22   S    
C27   C29   A    
C37   H17   S    
O17   V3    S    
C22   H10   S    
C42   C44   A    
C48   H26   S    
C33   C47   S    
O8    C4    A    
C21   C23   A    
C17   C19   A    
C1    O11   A    
C40   C42   A    
C4    C25   S    
O15   V3    S    
C2    C35   S    
C9    C11   A    
C9    C19   A    
C29   H15   S    
C28   H14   S    
C45   H23   S    
C20   C32   S    
C15   H5    S    
C7    C13   S    
C46   C48   S    
C49   C50   S    
C37   C39   A    
C30   C32   A    
O10   V2    S    
O1    V3    S    
C54   H35   S    
C47   H25   S    
C46   H24   S    
C18   H8    S    
C35   C37   A    
C34   C36   A    
C30   H16   S    
C44   C46   S    
O18   V4    S    
C51   H29   S    
C40   H20   S    
O15   C5    A    
O16   C6    A    
O1    C3    A    
O12   V4    S    
C21   C31   A    
C53   H38   S    
O6    V2    S    
V2    O20   S    
O16   V4    S    
C10   C12   A    
C50   H31   S    
C23   C25   A    
C1    C36   S    
O5    V1    S    
O17   C7    A    
C49   H32   S    
O10   C6    A    
C10   C20   A    
O2    V4    S    
C47   C49   S    
C43   C45   S    
C11   H3    S    
C52   C53   S    
C12   H4    S    
C15   C17   A    
O9    C5    A    
C50   C51   S    
C9    H1    S    
C10   H2    S    
C54   H36   S    
O14   V2    S    
C45   H21   S    
O2    C4    A    
O4    V2    S    
C41   C43   A    
C18   C20   A    
C22   C32   A    
C51   H28   S    
C5    C41   S    
C34   C44   A    
C6    C42   S    
C53   H37   S    
C39   C41   A    
C16   C18   A    
C8    C14   S    
