data_mof_unit_43772.cif
_audit_creation_date              2012-12-10T20:30:13-0500
_audit_creation_method            fapswitch 2.2
_symmetry_space_group_name_H-M    P1
_symmetry_Int_Tables_number       1
_space_group_crystal_system       triclinic
_cell_length_a                    9.878588
_cell_length_b                    10.697828
_cell_length_c                    13.092072
_cell_angle_alpha                 90.395656
_cell_angle_beta                  71.608959
_cell_angle_gamma                 90.401626
_cell_volume                      1312.8494823

loop_
_atom_site_label
_atom_site_type_symbol
_atom_type_description
_atom_site_fract_x
_atom_site_fract_y
_atom_site_fract_z
_atom_type_partial_charge
C1    C     C_R   0.502229 0.739492 0.495074 0.885433
C2    C     C_R   0.382635 0.416303 0.808494 -0.171701
C3    C     C_R   0.379542 0.935231 0.498301 0.099363
C4    C     C_R   0.424721 0.468670 0.697935 0.878387
C5    C     C_R   0.505495 0.871198 0.486869 -0.095917
C6    C     C_R   0.633577 0.936176 0.470983 -0.236546
C7    C     C_R   0.633517 0.064949 0.471234 -0.228307
C8    C     C_R   0.505260 0.128482 0.485772 -0.088078
C9    C     C_R   0.378792 0.062971 0.499419 0.090898
C10   C     C_3   0.275927 0.070807 0.436709 -0.490465
C11   C     C_3   0.276478 0.928568 0.434773 -0.035705
C12   C     C_R   0.443912 0.416683 0.974000 0.085951
C13   C     C_R   0.910549 0.598143 0.545498 0.187639
C14   C     C_R   0.949884 0.410632 0.446357 -0.152764
C15   C     C_R   0.093878 0.411090 0.445810 -0.143345
C16   C     C_R   0.502238 0.260443 0.493864 0.847611
C17   C     C_R   0.052710 0.595500 0.547596 0.168514
C18   C     C_3   0.012985 0.630536 0.663318 -0.502464
C19   C     C_3   0.859741 0.636321 0.662192 -0.160512
C20   C     C_R   0.577812 0.501068 0.295971 0.864791
C21   C     C_R   0.803209 0.456329 0.008282 -0.220570
C22   C     C_R   0.622563 0.488946 0.179376 -0.054210
C23   C     C_R   0.486333 0.403973 0.861359 0.071555
C24   C     C_R   0.240740 0.380766 0.865859 0.115133
C25   C     C_R   0.199005 0.378849 0.978530 -0.181541
C26   C     C_R   0.297195 0.404647 0.032218 -0.234821
C27   C     C_3   0.327770 0.868446 0.320997 -0.346840
C28   C     C_3   0.480071 0.900664 0.250463 -0.816959
C29   C     C_3   0.785292 0.764427 0.689816 -0.333901
C30   C     C_3   0.869595 0.878885 0.631873 -0.347289
C31   C     C_3   0.785037 0.998876 0.669680 -0.899817
C32   C     C_3   0.143903 0.318116 0.811313 -0.447784
C33   C     C_3   0.202983 0.190191 0.766316 -0.306314
C34   C     C_R   0.550825 0.438031 0.023092 0.085497
C35   C     C_3   0.094875 0.117063 0.728094 -0.893616
C36   C     C_R   0.696956 0.427678 0.961670 0.192084
C37   C     C_R   0.734252 0.387383 0.855167 -0.299229
C38   C     C_R   0.629776 0.374522 0.805570 -0.209336
C39   C     C_R   0.516628 0.473148 0.130695 -0.273124
C40   C     C_R   0.766443 0.483795 0.117545 -0.205374
H1    H     H_    0.849901 0.499707 0.153562 0.156294
H2    H     H_    0.792691 0.562502 0.711575 0.190515
H3    H     H_    0.844472 0.370468 0.808662 0.146605
H4    H     H_    0.914231 0.457994 0.960602 0.133224
H5    H     H_    0.407176 0.488395 0.178252 0.159889
H6    H     H_    0.257309 0.402034 0.118941 0.135871
H7    H     H_    0.091138 0.353341 0.025472 0.137636
H8    H     H_    0.662608 0.341486 0.723109 0.183241
H9    H     H_    0.733333 0.887740 0.457089 0.174455
H10   H     H_    0.502891 0.002186 0.250785 0.258909
H11   H     H_    0.559662 0.848592 0.276809 0.246537
H12   H     H_    0.733451 0.114144 0.459605 0.169407
H13   H     H_    0.493771 0.871676 0.166209 0.234049
H14   H     H_    0.318468 0.765210 0.329355 0.215755
H15   H     H_    0.252791 0.897319 0.277742 0.193981
H16   H     H_    0.840107 0.078509 0.619178 0.247480
H17   H     H_    0.675478 0.990089 0.664530 0.275871
H18   H     H_    0.776846 0.019116 0.754733 0.262534
H19   H     H_    0.970965 0.890165 0.649841 0.215635
H20   H     H_    0.895375 0.867820 0.543592 0.208043
H21   H     H_    0.682275 0.758643 0.672599 0.222656
H22   H     H_    0.759349 0.778982 0.778080 0.201873
H23   H     H_    0.171477 0.109751 0.485383 0.175678
H24   H     H_    0.997777 0.097150 0.797012 0.262517
H25   H     H_    0.064332 0.171337 0.666867 0.265122
H26   H     H_    0.142056 0.026806 0.692507 0.243561
H27   H     H_    0.302835 0.202579 0.698382 0.215342
H28   H     H_    0.228052 0.135032 0.829732 0.222007
H29   H     H_    0.037291 0.301234 0.870519 0.193081
H30   H     H_    0.127606 0.376303 0.747032 0.219393
H31   H     H_    0.322041 0.117095 0.357524 0.202253
H32   H     H_    0.172345 0.888913 0.484130 0.117151
H33   H     H_    0.912653 0.337004 0.404683 0.144763
H34   H     H_    0.165203 0.338122 0.403340 0.144838
H35   H     H_    0.029599 0.553441 0.713990 0.183137
H36   H     H_    0.063797 0.719110 0.676125 0.195185
N1    N     N_R   0.856940 0.500860 0.500710 -0.118455
N2    N     N_R   0.142580 0.500820 0.500710 -0.104766
O1    O     O_R   0.385310 0.683210 0.499990 -0.615885
O2    O     O_R   0.614650 0.683240 0.500000 -0.622328
O3    O     O_R   0.328390 0.499940 0.653610 -0.609068
O4    O     O_R   0.557730 0.499980 0.653620 -0.624572
O5    O     O_R   0.385350 0.316760 0.500000 -0.618578
O6    O     O_R   0.614690 0.316790 0.500010 -0.639591
O7    O     O_R   0.442270 0.500020 0.346380 -0.625546
O8    O     O_R   0.671610 0.500060 0.346390 -0.615385
Zn1   Zn    Zn3+2 0.346870 0.499980 0.499990 0.923543
Zn2   Zn    Zn3+2 0.653130 0.500020 0.500010 0.919815

loop_
_geom_bond_atom_site_label_1
_geom_bond_atom_site_label_2
_ccdc_geom_bond_type
N2    Zn1   S    
O5    Zn1   S    
C18   H35   S    
C20   O8    A    
C10   H23   S    
O1    Zn1   S    
C27   H14   S    
C7    C8    A    
C21   C36   A    
C12   C23   A    
C37   C38   A    
C1    C5    S    
C31   H18   S    
C36   C37   A    
C7    H12   S    
C30   C31   S    
C28   H11   S    
C27   H15   S    
C15   N2    A    
C35   H25   S    
C16   O6    A    
C18   C19   S    
C14   N1    A    
C28   H10   S    
C4    O3    A    
N1    Zn2   S    
C8    C9    A    
C30   H20   S    
C35   H24   S    
C31   H16   S    
C9    C10   S    
C25   H7    S    
C38   H8    S    
C19   H2    S    
C39   H5    S    
C10   H31   S    
C8    C16   S    
C20   O7    A    
C13   N1    A    
O7    Zn1   S    
C29   H21   S    
C13   C19   S    
C34   C39   A    
C14   H33   S    
C24   C25   A    
C11   H32   S    
C32   H30   S    
C35   H26   S    
C25   C26   A    
C16   O5    A    
C12   C26   A    
C37   H3    S    
C2    C4    S    
C24   C32   S    
C29   C30   S    
C3    C9    A    
C21   H4    S    
C11   C27   S    
C22   C40   A    
C30   H19   S    
C17   C18   S    
O3    Zn1   S    
C40   H1    S    
C20   C22   S    
C2    C24   A    
C1    O1    A    
C12   C34   A    
C19   C29   S    
C2    C23   A    
C33   H27   S    
C29   H22   S    
C18   H36   S    
C32   H29   S    
O6    Zn2   S    
C3    C5    A    
C28   H13   S    
C6    C7    A    
C23   C38   A    
C13   C17   A    
C32   C33   S    
C31   H17   S    
O2    Zn2   S    
C5    C6    A    
C21   C40   A    
O4    Zn2   S    
C22   C39   A    
C17   N2    A    
C33   C35   S    
C34   C36   A    
O8    Zn2   S    
C6    H9    S    
C3    C11   S    
C10   C11   S    
C26   H6    S    
C15   H34   S    
C4    O4    A    
C27   C28   S    
C1    O2    A    
C14   C15   A    
C33   H28   S    
