data_mof_unit_45280.cif
_audit_creation_date              2012-12-10T18:21:19-0500
_audit_creation_method            fapswitch 2.2
_symmetry_space_group_name_H-M    P1
_symmetry_Int_Tables_number       1
_space_group_crystal_system       triclinic
_cell_length_a                    15.010181
_cell_length_b                    14.114506
_cell_length_c                    10.614988
_cell_angle_alpha                 89.991264
_cell_angle_beta                  88.27987
_cell_angle_gamma                 90.019045
_cell_volume                      2247.89148348

loop_
_atom_site_label
_atom_site_type_symbol
_atom_type_description
_atom_site_fract_x
_atom_site_fract_y
_atom_site_fract_z
_atom_type_partial_charge
C1    C     C_R   0.326692 0.499964 0.498546 0.929855
C2    C     C_3   0.555859 0.410815 0.925647 -0.380248
C3    C     C_R   0.815538 0.585246 0.493529 -0.247015
C4    C     C_R   0.769379 0.499527 0.497332 -0.111031
C5    C     C_R   0.814602 0.412996 0.498190 -0.156929
C6    C     C_R   0.907243 0.410499 0.495460 -0.039975
C7    C     C_R   0.953734 0.497938 0.492505 0.009729
C8    C     C_R   0.907555 0.585215 0.491285 0.143864
C9    C     C_R   0.954741 0.323707 0.496163 0.458611
C10   C     C_R   0.047636 0.325917 0.495050 -0.277951
C11   C     C_R   0.093174 0.412197 0.493278 0.029300
C12   C     C_R   0.504623 0.500005 0.257811 0.823687
C13   C     C_R   0.046471 0.498560 0.491572 0.066573
C14   C     C_R   0.092704 0.585744 0.489656 0.128703
C15   C     C_R   0.046304 0.671568 0.487548 -0.193360
C16   C     C_R   0.953884 0.671301 0.488321 -0.204174
C17   C     C_R   0.185300 0.413338 0.494152 -0.188524
C18   C     C_R   0.230862 0.499708 0.494623 -0.086786
C19   C     C_R   0.184827 0.585643 0.490879 -0.231735
C20   C     C_R   0.556694 0.798487 0.419459 -0.106479
C21   C     C_R   0.556737 0.201578 0.419498 -0.084945
C22   C     C_R   0.443115 0.798726 0.581175 0.233313
C23   C     C_R   0.443165 0.201213 0.581236 0.233970
C24   C     C_R   0.442606 0.899125 0.582614 -0.019033
C25   C     C_R   0.442635 0.100818 0.582646 -0.017883
C26   C     C_R   0.673377 0.499962 0.499455 0.872738
C27   C     C_R   0.500527 0.949456 0.499987 0.074006
C28   C     C_R   0.500541 0.050553 0.499999 0.074142
C29   C     C_R   0.558169 0.898953 0.417465 0.017510
C30   C     C_R   0.558175 0.101117 0.417459 0.019298
C31   C     C_R   0.385604 0.950784 0.664534 -0.172399
C32   C     C_R   0.385616 0.049098 0.664548 -0.168391
C33   C     C_R   0.615537 0.050009 0.335066 -0.184908
C34   C     C_R   0.615604 0.950118 0.335158 -0.178791
C35   C     C_R   0.503635 0.499997 0.742080 0.867564
C36   C     C_3   0.555991 0.589382 0.069671 -0.398692
C37   C     C_3   0.409654 0.499836 0.076949 -0.400031
C38   C     C_3   0.555677 0.589330 0.925622 -0.386413
C39   C     C_3   0.409291 0.499863 0.932718 -0.377671
C40   C     C_3   0.556210 0.410795 0.069701 -0.394842
C41   C     C_3   0.506779 0.500007 0.121366 0.172222
C42   C     C_3   0.506165 0.499997 0.878577 0.146302
H1    H     H_    0.625893 0.590522 0.101900 0.164483
H2    H     H_    0.373636 0.436114 0.113723 0.179507
H3    H     H_    0.084935 0.260232 0.496285 0.203255
H4    H     H_    0.221297 0.346788 0.495111 0.186139
H5    H     H_    0.220402 0.652516 0.489406 0.184219
H6    H     H_    0.081442 0.738680 0.485935 0.165746
H7    H     H_    0.918614 0.738284 0.487179 0.160657
H8    H     H_    0.600754 0.758774 0.356473 0.138580
H9    H     H_    0.600868 0.241328 0.356595 0.150043
H10   H     H_    0.339739 0.917047 0.730495 0.184930
H11   H     H_    0.339743 0.082784 0.730500 0.185840
H12   H     H_    0.660324 0.087269 0.270293 0.154113
H13   H     H_    0.660568 0.912895 0.270625 0.147334
H14   H     H_    0.522719 0.655183 0.104799 0.193815
H15   H     H_    0.373464 0.563408 0.113748 0.178662
H16   H     H_    0.522344 0.655147 0.893562 0.210378
H17   H     H_    0.372781 0.563265 0.899835 0.201794
H18   H     H_    0.625429 0.590384 0.886872 0.168093
H19   H     H_    0.372878 0.436387 0.899826 0.201774
H20   H     H_    0.626124 0.409916 0.101898 0.171394
H21   H     H_    0.523123 0.344878 0.104887 0.194400
H22   H     H_    0.625605 0.409953 0.886861 0.174775
H23   H     H_    0.522644 0.344900 0.893637 0.211709
H24   H     H_    0.780008 0.652148 0.492520 0.164458
H25   H     H_    0.776684 0.348015 0.501345 0.230293
N1    N     N_R   0.500070 0.750030 0.500050 -0.115965
N2    N     N_R   0.500070 0.249970 0.500050 -0.118106
O1    O     O_R   0.367860 0.580280 0.500020 -0.597579
O2    O     O_R   0.367860 0.419720 0.500020 -0.601151
O3    O     O_R   0.500000 0.580270 0.314790 -0.629888
O4    O     O_R   0.500000 0.419730 0.314790 -0.630102
O5    O     O_R   0.632160 0.580270 0.499960 -0.627751
O6    O     O_R   0.632160 0.419730 0.499960 -0.623577
O7    O     O_R   0.500030 0.580270 0.685200 -0.601970
O8    O     O_R   0.500030 0.419730 0.685200 -0.600326
Zn1   Zn    Zn3+2 0.500020 0.607200 0.499990 0.968329
Zn2   Zn    Zn3+2 0.500020 0.392800 0.499990 0.977846
I1    I     I_    0.352959 0.725178 0.707289 -0.415597
I2    I     I_    0.353237 0.274651 0.707658 -0.405416
S1    S     S_3+6 0.901004 0.211596 0.499158 0.011231
O9    O     O_2   0.968095 0.132514 0.494033 -0.280253
O10   O     O_2   0.845096 0.203191 0.618544 -0.308745
O11   O     O_3   0.834942 0.202821 0.374473 -0.579370
H26   H     H_    0.799126 0.144850 0.390247 0.378819

loop_
_geom_bond_atom_site_label_1
_geom_bond_atom_site_label_2
_ccdc_geom_bond_type
O1    Zn1   S    
C23   N2    A    
C24   C27   A    
C31   H10   S    
C5    H25   S    
C2    H23   S    
C6    C9    A    
O2    Zn2   S    
C7    C8    A    
O11   H26   S    
C25   C28   A    
C1    C18   S    
C1    O2    A    
C40   H21   S    
O7    Zn1   S    
C38   C42   S    
C5    C6    A    
C19   H5    S    
C27   C29   A    
C15   C16   A    
C40   H20   S    
C18   C19   A    
C35   C42   S    
C20   H8    S    
C38   H16   S    
O3    Zn1   S    
C9    C10   A    
C9    S1    S    
C25   C32   A    
C12   O3    A    
C34   H13   S    
C8    C16   A    
C12   O4    A    
C36   C41   S    
C15   H6    S    
C2    H22   S    
C26   O6    A    
C39   C42   S    
C20   C29   A    
O8    Zn2   S    
N1    Zn1   S    
C39   H19   S    
C35   O7    A    
C16   H7    S    
C3    C8    A    
C29   C34   A    
C35   O8    A    
C21   N2    A    
C12   C41   S    
C36   H14   S    
C31   C32   A    
C39   H17   S    
C10   H3    S    
C17   C18   A    
O4    Zn2   S    
C17   H4    S    
C22   N1    A    
C38   H18   S    
C40   C41   S    
S1    O10   D    
C22   C24   A    
N2    Zn2   S    
C3    H24   S    
C3    C4    A    
C32   H11   S    
C21   H9    S    
C33   H12   S    
C11   C17   A    
C23   I2    S    
C30   C33   A    
C14   C19   A    
C20   N1    A    
C4    C5    A    
C4    C26   S    
C6    C7    A    
S1    O11   S    
C21   C30   A    
C1    O1    A    
C37   H2    S    
C28   C30   A    
C24   C31   A    
C22   I1    S    
C37   C39   S    
C11   C13   A    
C2    C42   S    
C36   C38   S    
C26   O5    A    
C33   C34   A    
C23   C25   A    
C37   C41   S    
C10   C11   A    
C2    C40   S    
C7    C13   A    
S1    O9    D    
O5    Zn1   S    
C27   C28   A    
C14   C15   A    
C36   H1    S    
C13   C14   A    
O6    Zn2   S    
C37   H15   S    
