data_mof_unit_45676.cif
_audit_creation_date              2012-12-11T14:15:37-0500
_audit_creation_method            fapswitch 2.2
_symmetry_space_group_name_H-M    P1
_symmetry_Int_Tables_number       1
_space_group_crystal_system       triclinic
_cell_length_a                    11.167723
_cell_length_b                    12.693183
_cell_length_c                    23.5354
_cell_angle_alpha                 90.660939
_cell_angle_beta                  96.782888
_cell_angle_gamma                 68.486867
_cell_volume                      3080.26427896

loop_
_atom_site_label
_atom_site_type_symbol
_atom_type_description
_atom_site_fract_x
_atom_site_fract_y
_atom_site_fract_z
_atom_type_partial_charge
C1    C     C_R   0.149653 0.616909 0.428958 0.548173
C2    C     C_R   0.668767 0.555741 0.310483 -0.100492
C3    C     C_R   0.694132 0.738613 0.318504 -0.022878
C4    C     C_R   0.690118 0.744616 0.258453 0.037416
C5    C     C_R   0.684601 0.651208 0.225907 0.069729
C6    C     C_R   0.686219 0.654811 0.167147 -0.049816
C7    C     C_R   0.677781 0.847765 0.170268 -0.094656
C8    C     C_R   0.690471 0.841481 0.229705 -0.086338
C9    C     C_1   0.235844 0.161932 0.123125 0.036666
C10   C     C_2   0.179453 0.228967 0.227088 -0.066281
C11   C     C_2   0.159970 0.158742 0.264320 0.252631
C12   C     C_R   0.748215 0.604989 0.404133 0.548804
C13   C     C_1   0.134997 0.194823 0.321583 0.011821
C14   C     C_1   0.210047 0.195509 0.170021 0.034269
C15   C     C_1   0.117211 0.229961 0.368946 -0.003041
C16   C     C_1   0.168269 0.748598 0.123509 0.020716
C17   C     C_2   0.147618 0.679280 0.226681 0.254145
C18   C     C_2   0.231663 0.683455 0.271944 -0.054102
C19   C     C_1   0.216613 0.656024 0.329627 0.010606
C20   C     C_1   0.157807 0.716497 0.170188 0.037492
C21   C     C_1   0.194143 0.636124 0.376494 0.015861
C22   C     C_1   0.627744 0.754698 0.864897 0.048487
C23   C     C_R   0.101318 0.282018 0.423459 0.545908
C24   C     C_2   0.700113 0.699870 0.762057 -0.112156
C25   C     C_2   0.610268 0.708002 0.717461 -0.129710
C26   C     C_1   0.649213 0.672182 0.661896 -0.050069
C27   C     C_1   0.663295 0.731475 0.818329 0.004771
C28   C     C_1   0.689027 0.641052 0.616752 -0.007253
C29   C     C_R   0.193032 0.180780 0.854782 0.008950
C30   C     C_R   0.106043 0.238548 0.642482 0.026865
C31   C     C_R   0.064884 0.120662 0.711090 -0.123734
C32   C     C_R   0.059228 0.154137 0.654371 -0.133949
C33   C     C_R   0.151043 0.294309 0.686559 -0.111404
C34   C     C_R   0.146819 0.615140 0.591776 0.538639
C35   C     C_R   0.156434 0.262220 0.742932 0.029351
C36   C     C_R   0.115367 0.173296 0.755369 0.038870
C37   C     C_R   0.131791 0.134691 0.811533 -0.128704
C38   C     C_R   0.225349 0.275498 0.843331 -0.012728
C39   C     C_R   0.205799 0.315813 0.786754 -0.131254
C40   C     C_R   0.125712 0.740832 0.854541 0.021546
C41   C     C_R   0.176196 0.629954 0.652137 0.016299
C42   C     C_R   0.312469 0.575009 0.742425 -0.143435
C43   C     C_R   0.295938 0.567013 0.683149 -0.143129
C44   C     C_R   0.072428 0.697540 0.680440 -0.122199
C45   C     C_R   0.749576 0.602566 0.565944 0.540970
C46   C     C_R   0.087363 0.704786 0.738935 -0.008330
C47   C     C_R   0.208514 0.644523 0.770289 0.023528
C48   C     C_R   0.225644 0.660474 0.828374 -0.164605
C49   C     C_R   0.000935 0.791836 0.824102 0.222507
C50   C     C_R   0.982954 0.773756 0.766119 -0.123003
C51   C     C_R   0.265717 0.110197 0.069382 0.537824
C52   C     C_R   0.601125 0.774702 0.080847 0.543250
C53   C     C_R   0.189841 0.787746 0.069851 0.553577
C54   C     C_R   0.240371 0.115559 0.908173 0.530317
C55   C     C_R   0.573557 0.776233 0.918095 0.554195
C56   C     C_R   0.099923 0.279386 0.585079 0.534849
C57   C     C_R   0.163191 0.785242 0.907996 0.568410
C58   C     C_R   0.668574 0.756230 0.138872 0.005847
C59   C     C_R   0.692834 0.638932 0.344491 -0.040349
C60   C     C_R   0.668522 0.559292 0.252003 0.217711
Cr1   Cr    Cr6+3 0.189770 0.415650 0.511620 1.029539
Cr2   Cr    Cr6+3 0.930400 0.667320 0.496770 1.031554
Cr3   Cr    Cr6+3 0.879870 0.417010 0.491650 1.032459
Cr4   Cr    Cr6+3 0.149500 0.973980 0.985330 1.084386
Cr5   Cr    Cr6+3 0.457000 0.976510 0.994660 1.075242
Cr6   Cr    Cr6+3 0.411170 0.724270 0.995270 1.012632
H1    H     H_    0.684178 0.583205 0.142215 0.193717
H2    H     H_    0.507729 0.740653 0.722567 0.138493
H3    H     H_    0.802498 0.664893 0.756926 0.140745
H4    H     H_    0.107072 0.062096 0.820855 0.141268
H5    H     H_    0.032258 0.052791 0.720295 0.122831
H6    H     H_    0.231720 0.387244 0.776679 0.115368
H7    H     H_    0.020887 0.113464 0.620045 0.113660
H8    H     H_    0.182286 0.362937 0.676784 0.126948
H9    H     H_    0.321388 0.618943 0.851564 0.140574
H10   H     H_    0.664748 0.927173 0.149048 0.149752
H11   H     H_    0.405949 0.527937 0.766315 0.109630
H12   H     H_    0.888909 0.817564 0.741843 0.139871
H13   H     H_    0.375365 0.511953 0.661701 0.128412
H14   H     H_    0.977636 0.743210 0.657123 0.135770
H15   H     H_    0.692003 0.915717 0.252265 0.134461
H16   H     H_    0.661629 0.481377 0.329643 0.181523
H17   H     H_    0.174200 0.312976 0.239818 0.131695
H18   H     H_    0.309347 0.713068 0.266133 0.121201
O1    O     O_R   0.196340 0.303200 0.448500 -0.509170
O2    O     O_R   0.811960 0.658090 0.547150 -0.501124
O3    O     O_R   0.757930 0.506140 0.547110 -0.505614
O4    O     O_R   0.988670 0.321620 0.556040 -0.499000
O5    O     O_3   0.000020 0.499990 0.500010 -0.249691
O6    O     O_R   0.113660 0.883270 0.047820 -0.480550
O7    O     O_R   0.186930 0.068530 0.043990 -0.486604
O8    O     O_R   0.377770 0.089040 0.054220 -0.506914
O9    O     O_R   0.562800 0.872960 0.056970 -0.495179
O10   O     O_R   0.555390 0.700940 0.062700 -0.515678
O11   O     O_R   0.295020 0.731920 0.049950 -0.504997
O12   O     O_R   0.199310 0.519670 0.454880 -0.489039
O13   O     O_R   0.094290 0.884230 0.921550 -0.447262
O14   O     O_R   0.168980 0.069410 0.926940 -0.508434
O15   O     O_R   0.358400 0.089990 0.927950 -0.491002
O16   O     O_R   0.544850 0.873850 0.939920 -0.466715
O17   O     O_R   0.536020 0.701900 0.936430 -0.531457
O18   O     O_R   0.277070 0.732810 0.932890 -0.527772
O19   O     O_3   0.339220 0.891590 0.991750 -0.263401
O20   O     O_R   0.045660 0.691380 0.441680 -0.511179
O21   O     O_R   0.811930 0.659460 0.430950 -0.481357
O22   O     O_R   0.757900 0.507620 0.421760 -0.519408
O23   O     O_R   0.988630 0.322990 0.439840 -0.489364
O24   O     O_R   0.196380 0.301720 0.573850 -0.517826
O25   O     O_R   0.199350 0.518300 0.571080 -0.503992
O26   O     O_R   0.045700 0.689900 0.567030 -0.523848
Cl1   Cl    Cl    0.020765 0.631113 0.234080 -0.632011
C61   C     C_R   0.278234 0.333548 0.889302 0.047786
C62   C     C_R   0.386848 0.361335 0.882664 -0.092265
C63   C     C_R   0.434351 0.418334 0.925417 -0.112108
C64   C     C_R   0.373598 0.448779 0.974924 -0.074424
C65   C     C_R   0.265468 0.421910 0.981888 -0.103237
C66   C     C_R   0.217782 0.364662 0.939332 -0.077718
H19   H     H_    0.435162 0.338468 0.844564 0.112383
H20   H     H_    0.517893 0.439500 0.919999 0.119711
H21   H     H_    0.410153 0.493387 0.007826 0.140566
H22   H     H_    0.218220 0.445863 0.020186 0.121554
H23   H     H_    0.132840 0.345834 0.945104 0.103658
Cl2   Cl    Cl    0.866248 0.882786 0.855507 -0.601804
Cl3   Cl    Cl    0.648564 0.445134 0.213678 -0.610478
C67   C     C_R   0.700394 0.834637 0.353869 0.038110
C68   C     C_R   0.596457 0.895528 0.383988 -0.085031
C69   C     C_R   0.602830 0.984812 0.418013 -0.107370
C70   C     C_R   0.713086 0.013382 0.422381 -0.103803
C71   C     C_R   0.817213 0.952704 0.392746 -0.091412
C72   C     C_R   0.811200 0.863460 0.358637 -0.051103
H24   H     H_    0.510716 0.873916 0.380987 0.117640
H25   H     H_    0.522349 0.031785 0.441041 0.121160
H26   H     H_    0.717905 0.082429 0.448790 0.112993
H27   H     H_    0.902704 0.974637 0.396302 0.127125
H28   H     H_    0.892700 0.816528 0.336102 0.159654
Cl4   Cl    Cl    0.168943 0.021014 0.246241 -0.612118

loop_
_geom_bond_atom_site_label_1
_geom_bond_atom_site_label_2
_ccdc_geom_bond_type
Cr5   O8    S    
C12   O22   A    
C1    C21   S    
C68   C69   A    
Cr3   O4    S    
C53   O11   A    
C6    C58   A    
C35   C36   A    
C9    C51   S    
C24   C27   S    
Cr4   O6    S    
C4    C8    A    
Cr1   O25   S    
C70   C71   A    
C63   C64   A    
Cr1   O12   S    
C7    C8    A    
Cr2   O21   S    
C57   O18   A    
Cr2   O2    S    
C5    C6    A    
C36   C37   A    
C19   C21   T    
C62   C63   A    
C61   C66   A    
Cr1   O1    S    
C2    C60   A    
C56   O4    A    
C29   C54   S    
C43   H13   S    
C40   C49   A    
C49   Cl2   S    
Cr2   O5    S    
C50   H12   S    
C10   H17   S    
C17   C20   S    
C65   C66   A    
C18   C19   S    
C60   Cl3   S    
Cr1   O24   S    
Cr6   O18   S    
C69   H25   S    
C56   O24   A    
C51   O7    A    
C16   C53   S    
C12   C59   S    
C67   C72   A    
C72   H28   S    
Cr1   O5    S    
C55   O16   A    
C18   H18   S    
C39   H6    S    
C52   O10   A    
Cr4   O14   S    
C7    C58   A    
C63   H20   S    
C30   C33   A    
Cr6   O10   S    
Cr3   O3    S    
C15   C23   S    
C23   O23   A    
C37   H4    S    
C41   C43   A    
C48   H9    S    
C25   H2    S    
C17   Cl1   S    
C61   C62   A    
C44   C46   A    
C24   H3    S    
Cr2   O20   S    
C38   C39   A    
C28   C45   S    
C65   H22   S    
C8    H15   S    
C44   H14   S    
C24   C25   D    
Cr5   O15   S    
C10   C14   S    
C32   H7    S    
C9    C14   T    
C2    C59   A    
C25   C26   S    
C30   C56   S    
C62   H19   S    
C29   C38   A    
C35   C39   A    
C66   H23   S    
C34   C41   S    
C51   O8    A    
C47   C48   A    
Cr2   O26   S    
C16   C20   T    
C57   O13   A    
Cr3   O5    S    
C17   C18   D    
C52   O9    A    
Cr3   O22   S    
C1    O20   A    
C22   C55   S    
C52   C58   S    
C6    H1    S    
C49   C50   A    
C22   C27   T    
C13   C15   T    
C67   C68   A    
C34   O26   A    
C41   C44   A    
C54   O15   A    
C2    H16   S    
C42   C43   A    
Cr5   O19   S    
C38   C61   S    
C3    C4    A    
C71   C72   A    
C40   C48   A    
C46   C50   A    
C46   C47   A    
Cr4   O13   S    
C40   C57   S    
C5    C60   A    
C45   O3    A    
Cr6   O19   S    
C31   C32   A    
Cr5   O16   S    
C4    C5    A    
C3    C67   S    
C7    H10   S    
C55   O17   A    
C26   C28   T    
C45   O2    A    
C11   Cl4   S    
C30   C32   A    
C11   C13   S    
C64   C65   A    
C12   O21   A    
C68   H24   S    
C1    O12   A    
C31   H5    S    
Cr5   O9    S    
C33   C35   A    
Cr6   O17   S    
C42   C47   A    
Cr4   O19   S    
C10   C11   D    
C71   H27   S    
C33   H8    S    
C42   H11   S    
C64   H21   S    
C23   O1    A    
C29   C37   A    
C53   O6    A    
C34   O25   A    
C31   C36   A    
C54   O14   A    
Cr4   O7    S    
C70   H26   S    
Cr3   O23   S    
C69   C70   A    
Cr6   O11   S    
C3    C59   A    
