data_mof_unit_47204.cif
_audit_creation_date              2012-12-11T15:14:53-0500
_audit_creation_method            fapswitch 2.2
_symmetry_space_group_name_H-M    P1
_symmetry_Int_Tables_number       1
_space_group_crystal_system       triclinic
_cell_length_a                    11.002772
_cell_length_b                    11.105182
_cell_length_c                    18.475168
_cell_angle_alpha                 90.184324
_cell_angle_beta                  89.376347
_cell_angle_gamma                 119.755158
_cell_volume                      1959.6834607

loop_
_atom_site_label
_atom_site_type_symbol
_atom_type_description
_atom_site_fract_x
_atom_site_fract_y
_atom_site_fract_z
_atom_type_partial_charge
C1    C     C_R   0.521924 0.454958 0.644027 0.617495
C2    C     C_R   0.455035 0.520316 0.355681 0.550508
C3    C     C_R   0.481141 0.936200 0.144408 0.553615
C4    C     C_R   0.061794 0.543719 0.355005 0.544880
C5    C     C_3   0.446862 0.057400 0.459973 -0.186177
C6    C     C_3   0.613254 0.550670 0.039150 -0.190693
C7    C     C_3   0.913352 0.384014 0.467206 -0.187602
C8    C     C_3   0.483106 0.093369 0.035220 -0.187000
C9    C     C_3   0.582490 0.464313 0.461060 -0.202872
C10   C     C_3   0.881479 0.419784 0.038435 -0.210223
C11   C     C_3   0.954018 0.370727 0.982335 -0.113660
C12   C     C_R   0.934020 0.478241 0.855694 0.607213
C13   C     C_3   0.630236 0.583213 0.517379 -0.102347
C14   C     C_3   0.382254 0.990484 0.978542 -0.053179
C15   C     C_3   0.024068 0.402827 0.523605 -0.048064
C16   C     C_3   0.587977 0.609497 0.968766 -0.072200
C17   C     C_3   0.391463 0.980000 0.532802 -0.073974
C18   C     C_3   0.595089 0.141970 0.492187 -0.225348
C19   C     C_3   0.549549 0.405409 0.003992 -0.224976
C20   C     C_3   0.868019 0.470651 0.515185 -0.208918
C21   C     C_3   0.610328 0.125083 0.985411 -0.202628
C22   C     C_3   0.465451 0.364035 0.513926 -0.168336
C23   C     C_R   0.575753 0.118533 0.636800 0.546197
C24   C     C_3   0.899229 0.535955 0.985576 -0.164200
C25   C     C_3   0.098158 0.471272 0.014433 -0.117128
C26   C     C_3   0.527534 0.625480 0.485857 -0.120571
C27   C     C_3   0.396886 0.872244 0.013690 -0.076411
C28   C     C_3   0.132449 0.538445 0.485539 -0.083136
C29   C     C_3   0.440652 0.573541 0.997218 -0.109201
C30   C     C_3   0.426181 0.867450 0.506688 -0.127539
C31   C     C_3   0.539500 0.062395 0.563637 -0.016088
C32   C     C_3   0.522148 0.463979 0.935240 -0.006901
C33   C     C_3   0.980331 0.490533 0.569897 0.024228
C34   C     C_R   0.542265 0.426202 0.862683 0.549435
C35   C     C_3   0.509292 0.020794 0.930289 0.018577
C36   C     C_3   0.512087 0.483107 0.568712 0.017766
C37   C     C_3   0.972708 0.487989 0.930964 0.025381
C38   C     C_3   0.024473 0.519672 0.068982 -0.015617
C39   C     C_3   0.480458 0.505806 0.431082 -0.014294
C40   C     C_3   0.498383 0.976947 0.068777 -0.032069
C41   C     C_3   0.019902 0.518738 0.430709 -0.025093
C42   C     C_3   0.466952 0.514023 0.065898 -0.032111
C43   C     C_3   0.482465 0.946681 0.435320 -0.030103
C44   C     C_3   0.573446 0.951737 0.537689 0.439226
C45   C     C_R   0.939622 0.480377 0.645543 0.613884
C46   C     C_3   0.377652 0.429049 0.963276 0.440954
C47   C     C_3   0.085667 0.623321 0.532885 0.412115
C48   C     C_3   0.524004 0.905535 0.964365 0.409673
C49   C     C_3   0.411500 0.524402 0.538400 0.366979
C50   C     C_3   0.114013 0.586363 0.961810 0.374177
C51   C     C_3   0.042495 0.634852 0.016658 0.387451
C52   C     C_3   0.364441 0.407027 0.483386 0.392834
C53   C     C_3   0.623725 0.007417 0.019615 0.399927
C54   C     C_3   0.976026 0.604583 0.477960 0.401885
C55   C     C_3   0.403508 0.370167 0.031626 0.403756
C56   C     C_R   0.541066 0.061588 0.854845 0.625193
C57   C     C_3   0.629050 0.030039 0.466886 0.409620
C58   C     C_R   0.429630 0.538993 0.137320 0.523563
C59   C     C_R   0.458500 0.885945 0.363304 0.524907
C60   C     C_R   0.064755 0.544941 0.144432 0.540927
Cr1   Cr    Cr6+3 0.769930 0.543130 0.750000 1.117074
Cr2   Cr    Cr6+3 0.773200 0.230070 0.750000 1.127404
Cr3   Cr    Cr6+3 0.456870 0.226800 0.750000 1.116462
Cr4   Cr    Cr6+3 0.543130 0.769930 0.250000 1.120570
Cr5   Cr    Cr6+3 0.230070 0.773200 0.250000 1.122390
Cr6   Cr    Cr6+3 0.226800 0.456870 0.250000 1.125793
F1    F     F_    0.639993 0.895843 0.577062 -0.554302
F2    F     F_    0.952014 0.707949 0.452778 -0.577140
F3    F     F_    0.303787 0.246662 0.062747 -0.573432
F4    F     F_    0.752396 0.050233 0.435330 -0.569863
F5    F     F_    0.255503 0.365540 0.923694 -0.557603
F6    F     F_    0.161208 0.736280 0.576335 -0.605650
F7    F     F_    0.545606 0.820679 0.917999 -0.590289
F8    F     F_    0.329315 0.552193 0.584901 -0.600878
F9    F     F_    0.225444 0.665670 0.915880 -0.582607
F10   F     F_    0.083337 0.770327 0.035216 -0.590597
F11   F     F_    0.228267 0.313484 0.464487 -0.590622
F12   F     F_    0.747638 0.016771 0.041966 -0.571631
H1    H     H_    0.647148 0.252444 0.481592 0.105287
H2    H     H_    0.235477 0.563172 0.462934 0.127273
H3    H     H_    0.388539 0.635084 0.997017 0.173165
H4    H     H_    0.367067 0.756122 0.515728 0.195164
H5    H     H_    0.393674 0.099707 0.426282 0.191146
H6    H     H_    0.708645 0.600941 0.072926 0.190862
H7    H     H_    0.851756 0.294073 0.432022 0.221111
H8    H     H_    0.467466 0.162726 0.072344 0.211794
H9    H     H_    0.650121 0.441719 0.425151 0.158474
H10   H     H_    0.789789 0.354204 0.073651 0.153116
H11   H     H_    0.921940 0.262963 0.965707 0.228208
H12   H     H_    0.607609 0.350207 0.004560 0.099102
H13   H     H_    0.738465 0.657140 0.534657 0.237183
H14   H     H_    0.284144 0.983587 0.958745 0.240090
H15   H     H_    0.042505 0.320716 0.545917 0.244131
H16   H     H_    0.671051 0.704891 0.942313 0.243831
H17   H     H_    0.297756 0.972758 0.559948 0.246061
H18   H     H_    0.764972 0.444931 0.537943 0.099404
H19   H     H_    0.692190 0.224158 0.963180 0.104294
H20   H     H_    0.434273 0.257213 0.530600 0.140121
H21   H     H_    0.825214 0.569366 0.967900 0.143791
H22   H     H_    0.171935 0.438598 0.033403 0.174926
H23   H     H_    0.558224 0.731502 0.468025 0.172860
H24   H     H_    0.315131 0.772986 0.036217 0.145391
O1    O     O_R   0.913270 0.574260 0.668550 -0.456217
O2    O     O_R   0.574260 0.913270 0.331450 -0.433124
O3    O     O_R   0.086730 0.660990 0.168550 -0.450489
O4    O     O_R   0.339010 0.425740 0.331450 -0.442429
O5    O     O_R   0.640160 0.530400 0.673300 -0.493082
O6    O     O_R   0.890240 0.359840 0.826700 -0.503091
O7    O     O_R   0.469600 0.109760 0.673300 -0.493080
O8    O     O_R   0.640160 0.530400 0.826700 -0.485747
O9    O     O_R   0.890240 0.359840 0.673300 -0.521689
O10   O     O_R   0.469600 0.109760 0.826700 -0.517840
O11   O     O_R   0.530400 0.640160 0.173300 -0.488920
O12   O     O_R   0.660990 0.086730 0.831450 -0.459369
O13   O     O_R   0.359840 0.890240 0.326700 -0.487840
O14   O     O_R   0.109760 0.469600 0.173300 -0.512217
O15   O     O_R   0.530400 0.640160 0.326700 -0.509859
O16   O     O_R   0.359840 0.890240 0.173300 -0.480520
O17   O     O_R   0.109760 0.469600 0.326700 -0.481627
O18   O     O_3   0.666667 0.333333 0.750000 -0.378997
O19   O     O_3   0.333333 0.666667 0.250000 -0.361622
O20   O     O_R   0.425740 0.339010 0.668550 -0.488090
O21   O     O_R   0.913270 0.574260 0.831450 -0.490938
O22   O     O_R   0.660990 0.086730 0.668550 -0.406099
O23   O     O_R   0.425740 0.339010 0.831450 -0.410833
O24   O     O_R   0.574260 0.913270 0.168550 -0.454423
O25   O     O_R   0.086730 0.660990 0.331450 -0.460324
O26   O     O_R   0.339010 0.425740 0.168550 -0.437109

loop_
_geom_bond_atom_site_label_1
_geom_bond_atom_site_label_2
_ccdc_geom_bond_type
C27   C48   S    
C28   C47   S    
C58   O26   A    
C13   C26   S    
C22   H20   S    
C29   C42   S    
C24   H21   S    
C33   C45   S    
C60   O3    A    
C42   C58   S    
Cr2   O22   S    
C3    O24   A    
C6    C19   S    
C10   H10   S    
Cr6   O14   S    
C59   O2    A    
Cr5   O25   S    
Cr1   O1    S    
Cr2   O12   S    
C26   H23   S    
C25   C38   S    
C18   C57   S    
C9    C22   S    
C54   F2    S    
C4    C41   S    
C19   C32   S    
Cr4   O19   S    
C28   C41   S    
C9    C39   S    
Cr3   O10   S    
C11   C37   S    
C9    C13   S    
C1    O20   A    
C45   O1    A    
C25   C50   S    
C2    C39   S    
Cr2   O9    S    
C35   C48   S    
C18   H1    S    
C46   C55   S    
C58   O11   A    
Cr5   O16   S    
C4    O17   A    
C17   H17   S    
Cr5   O19   S    
C14   C27   S    
C44   C57   S    
Cr2   O18   S    
C43   C59   S    
C24   C51   S    
C7    C15   S    
C39   C52   S    
C5    C43   S    
C13   H13   S    
Cr1   O18   S    
C17   C30   S    
Cr5   O13   S    
C30   C44   S    
Cr6   O4    S    
Cr1   O5    S    
Cr1   O8    S    
Cr5   O3    S    
C2    O15   A    
C50   C51   S    
C48   C53   S    
C23   O7    A    
Cr2   O6    S    
C6    H6    S    
C31   C44   S    
C51   F10   S    
C13   C36   S    
C20   C54   S    
C26   C49   S    
C14   C35   S    
C12   O6    A    
C5    C18   S    
C10   C24   S    
C16   C29   S    
C2    O4    A    
Cr4   O15   S    
C32   C34   S    
C30   H4    S    
C29   H3    S    
C3    O16   A    
C42   C55   S    
C21   H19   S    
C26   C39   S    
C11   H11   S    
C25   H22   S    
C27   C40   S    
C49   C52   S    
C24   C37   S    
Cr6   O19   S    
C55   F3    S    
C14   H14   S    
C46   F5    S    
Cr3   O23   S    
C1    O5    A    
C47   C54   S    
C38   C60   S    
C20   C33   S    
C3    C40   S    
C40   C53   S    
Cr4   O24   S    
Cr6   O17   S    
C6    C42   S    
C33   C47   S    
C30   C43   S    
C60   O14   A    
C52   F11   S    
Cr3   O20   S    
C22   C52   S    
C19   C55   S    
Cr4   O2    S    
C8    C14   S    
Cr4   O11   S    
C4    O25   A    
C35   C56   S    
C32   C46   S    
C48   F7    S    
C15   C33   S    
C8    C21   S    
C15   H15   S    
C45   O9    A    
C5    H5    S    
C23   O22   A    
C38   C51   S    
C16   C32   S    
C22   C36   S    
C27   H24   S    
C16   H16   S    
Cr1   O21   S    
C29   C46   S    
C10   C38   S    
C21   C35   S    
C19   H12   S    
C50   F9    S    
C9    H9    S    
C21   C53   S    
Cr3   O18   S    
C15   C28   S    
C7    H7    S    
C12   O21   A    
C34   O23   A    
C17   C31   S    
C37   C50   S    
Cr6   O26   S    
C53   F12   S    
C8    H8    S    
C7    C41   S    
C20   H18   S    
C28   H2    S    
C41   C54   S    
C10   C11   S    
C43   C57   S    
C57   F4    S    
C6    C16   S    
C56   O12   A    
C5    C17   S    
C47   F6    S    
C59   O13   A    
C7    C20   S    
C12   C37   S    
C11   C25   S    
C49   F8    S    
C44   F1    S    
C18   C31   S    
C8    C40   S    
C34   O8    A    
C56   O10   A    
C36   C49   S    
C1    C36   S    
C23   C31   S    
Cr3   O7    S    
