data_mof_unit_49546.cif
_audit_creation_date              2012-12-11T14:40:24-0500
_audit_creation_method            fapswitch 2.2
_symmetry_space_group_name_H-M    P1
_symmetry_Int_Tables_number       1
_space_group_crystal_system       triclinic
_cell_length_a                    19.582404
_cell_length_b                    10.958803
_cell_length_c                    19.423555
_cell_angle_alpha                 89.832195
_cell_angle_beta                  97.862717
_cell_angle_gamma                 89.667439
_cell_volume                      4129.00313447

loop_
_atom_site_label
_atom_site_type_symbol
_atom_type_description
_atom_site_fract_x
_atom_site_fract_y
_atom_site_fract_z
_atom_type_partial_charge
C1    C     C_R   0.726057 0.950383 0.360213 0.567179
C2    C     C_3   0.269372 0.336890 0.559464 0.020562
C3    C     C_2   0.793880 0.689030 0.403271 0.555932
C4    C     C_3   0.232267 0.841552 0.441454 0.028307
C5    C     C_3   0.769373 0.836884 0.559462 0.020625
C6    C     C_3   0.701702 0.455626 0.471193 -0.106174
C7    C     C_3   0.239423 0.461023 0.535127 -0.102405
C8    C     C_3   0.201730 0.955638 0.471187 -0.106179
C9    C     C_3   0.739450 0.961038 0.535134 -0.102411
C10   C     C_3   0.772948 0.478730 0.513881 -0.122506
C11   C     C_3   0.190558 0.396294 0.478600 -0.130958
C12   C     C_3   0.272977 0.978686 0.513883 -0.122462
C13   C     C_R   0.272323 0.945975 0.642037 0.570282
C14   C     C_3   0.690561 0.896345 0.478612 -0.130960
C15   C     C_3   0.803450 0.364833 0.483567 -0.076419
C16   C     C_3   0.220180 0.270977 0.503291 -0.135337
C17   C     C_3   0.303447 0.864751 0.483580 -0.076439
C18   C     C_3   0.720156 0.771007 0.503295 -0.135211
C19   C     C_3   0.781898 0.286845 0.542439 0.047753
C20   C     C_3   0.275607 0.282113 0.454166 0.044847
C21   C     C_3   0.281863 0.786807 0.542452 0.047878
C22   C     C_3   0.775576 0.782106 0.454160 0.044810
C23   C     C_3   0.751644 0.400103 0.572518 0.029070
C24   C     C_R   0.226063 0.450368 0.360208 0.566796
C25   C     C_3   0.246202 0.405896 0.430180 0.029234
C26   C     C_3   0.251640 0.900101 0.572519 0.029067
C27   C     C_3   0.746198 0.905907 0.430184 0.029173
C28   C     C_3   0.533256 0.266929 0.976458 0.266506
C29   C     C_3   0.475877 0.276706 0.021863 0.255434
C30   C     C_3   0.032699 0.767702 0.976453 0.271737
C31   C     C_3   0.975356 0.775971 0.021936 0.278843
C32   C     C_3   0.567953 0.163145 0.022270 -0.134498
C33   C     C_3   0.432886 0.181528 0.977395 -0.148538
C34   C     C_3   0.068233 0.664617 0.022181 -0.141882
C35   C     C_R   0.772323 0.445974 0.642038 0.570191
C36   C     C_3   0.932944 0.680136 0.977475 -0.146886
C37   C     C_3   0.509024 0.173079 0.067511 0.002777
C38   C     C_3   0.491802 0.171532 0.932080 0.001792
C39   C     C_3   0.009290 0.673012 0.067499 -0.001887
C40   C     C_3   0.991823 0.671617 0.932075 -0.001033
C41   C     C_R   0.536128 0.180178 0.338512 0.543072
C42   C     C_R   0.465363 0.179881 0.662587 0.535562
C43   C     C_R   0.036127 0.680178 0.338512 0.543404
C44   C     C_R   0.965363 0.679881 0.662586 0.534414
C45   C     C_3   0.467063 0.076537 0.023727 -0.170724
C46   C     C_3   0.710732 0.261144 0.499779 -0.177156
C47   C     C_3   0.525255 0.066555 0.977088 -0.163325
C48   C     C_3   0.967929 0.575711 0.023727 -0.171992
C49   C     C_3   0.026127 0.567232 0.977002 -0.164858
C50   C     C_1   0.784768 0.479766 0.915903 0.029420
C51   C     C_1   0.235114 0.428125 0.094763 0.050991
C52   C     C_1   0.284587 0.979423 0.915832 0.029618
C53   C     C_1   0.734933 0.928450 0.094648 0.048367
C54   C     C_1   0.762160 0.443144 0.043857 0.011606
C55   C     C_1   0.249431 0.411004 0.963957 0.026664
C56   C     C_1   0.261969 0.942785 0.043754 0.014950
C57   C     C_3   0.325625 0.345611 0.511505 -0.134509
C58   C     C_1   0.749233 0.911368 0.963839 0.002591
C59   C     C_1   0.774973 0.465087 0.975238 0.001135
C60   C     C_1   0.242506 0.418665 0.034711 0.027237
C61   C     C_1   0.274715 0.964646 0.975124 0.003377
C62   C     C_1   0.742256 0.919076 0.034575 0.007514
C63   C     C_1   0.750039 0.414717 0.100869 0.049103
C64   C     C_1   0.255659 0.397024 0.903913 0.042425
C65   C     C_1   0.249950 0.914510 0.100815 0.051485
C66   C     C_1   0.755554 0.897270 0.903828 0.042063
C67   C     C_R   0.724761 0.309408 0.367860 0.551967
C68   C     C_3   0.210695 0.761161 0.499783 -0.177113
C69   C     C_R   0.276179 0.306875 0.633073 0.557283
C70   C     C_R   0.224760 0.809400 0.367859 0.551638
C71   C     C_R   0.776180 0.806870 0.633073 0.556463
C72   C     C_R   0.721488 0.953567 0.163380 0.562863
C73   C     C_R   0.296145 0.998971 0.845398 0.555297
C74   C     C_R   0.221533 0.453471 0.163427 0.561005
C75   C     C_R   0.796192 0.499075 0.845391 0.555540
C76   C     C_R   0.529581 0.179254 0.141240 0.570911
C77   C     C_R   0.470843 0.178539 0.858485 0.567722
C78   C     C_R   0.029631 0.679245 0.141226 0.571696
C79   C     C_3   0.825618 0.845566 0.511493 -0.134597
C80   C     C_R   0.970848 0.678554 0.858482 0.564792
C81   C     C_R   0.736914 0.363406 0.165603 0.552428
C82   C     C_R   0.263751 0.360849 0.835201 0.551621
C83   C     C_R   0.236905 0.863388 0.165603 0.552718
C84   C     C_R   0.763730 0.860906 0.835172 0.554992
C85   C     C_1   0.488744 0.171625 0.596406 -0.004503
C86   C     C_1   0.517182 0.172251 0.406654 0.041378
C87   C     C_1   0.988743 0.671625 0.596405 -0.004417
C88   C     C_1   0.017179 0.672250 0.406653 0.041345
C89   C     C_1   0.508464 0.168525 0.466618 -0.004480
C90   C     C_3   0.732271 0.341577 0.441450 0.028290
C91   C     C_1   0.500079 0.168126 0.537245 -0.040078
C92   C     C_1   0.008461 0.668524 0.466616 -0.004623
C93   C     C_1   0.000076 0.668126 0.537244 -0.040105
C94   C     C_3   0.680504 0.376919 0.530995 -0.145567
C95   C     C_3   0.295133 0.471219 0.486127 -0.130125
C96   C     C_3   0.180499 0.876974 0.530988 -0.145614
C97   C     C_3   0.795152 0.971196 0.486123 -0.130174
C98   C     C_2   0.829912 0.201523 0.586564 0.573540
C99   C     C_2   0.293954 0.189030 0.403298 0.555836
C100  C     C_2   0.329839 0.701468 0.586601 0.573381
Cr1   Cr    Cr6+3 0.765830 0.160660 0.268180 1.058032
Cr2   Cr    Cr6+3 0.384070 0.324050 0.751550 1.104865
Cr3   Cr    Cr6+3 0.115930 0.824050 0.248450 1.105656
Cr4   Cr    Cr6+3 0.884070 0.824050 0.751550 1.113328
Cr5   Cr    Cr6+3 0.234170 0.160660 0.731820 1.053851
Cr6   Cr    Cr6+3 0.265830 0.660660 0.268180 1.063396
Cr7   Cr    Cr6+3 0.734170 0.660660 0.731820 1.053913
Cr8   Cr    Cr6+3 0.612110 0.009150 0.248770 1.058107
Cr9   Cr    Cr6+3 0.387890 0.009150 0.751230 1.062765
Cr10  Cr    Cr6+3 0.112110 0.509150 0.248770 1.056673
Cr11  Cr    Cr6+3 0.887890 0.509150 0.751230 1.065338
Cr12  Cr    Cr6+3 0.615930 0.324050 0.248450 1.107405
H1    H     H_    0.682368 0.174708 0.489150 0.093126
H2    H     H_    0.221639 0.528826 0.570994 0.170571
H3    H     H_    0.168309 0.023112 0.439733 0.166567
H4    H     H_    0.721693 0.028852 0.571012 0.170535
H5    H     H_    0.301353 0.065107 0.524530 0.123185
H6    H     H_    0.635020 0.918707 0.464303 0.141144
H7    H     H_    0.801303 0.565170 0.524530 0.123040
H8    H     H_    0.135013 0.418614 0.464281 0.141153
H9    H     H_    0.853968 0.361040 0.463693 0.181483
H10   H     H_    0.188215 0.191843 0.513678 0.127330
H11   H     H_    0.353967 0.860893 0.463718 0.181490
H12   H     H_    0.381025 0.324731 0.526857 0.139394
H13   H     H_    0.688179 0.691890 0.513680 0.127395
H14   H     H_    0.623758 0.156199 0.042386 0.133260
H15   H     H_    0.377164 0.190522 0.957417 0.115073
H16   H     H_    0.124099 0.658910 0.042210 0.134441
H17   H     H_    0.877154 0.688153 0.957622 0.115077
H18   H     H_    0.439299 0.999823 0.044690 0.149527
H19   H     H_    0.546254 0.981434 0.957060 0.151772
H20   H     H_    0.940761 0.498268 0.044714 0.148526
H21   H     H_    0.047640 0.482649 0.956882 0.153129
H22   H     H_    0.923739 0.121765 0.603662 0.346898
H23   H     H_    0.182307 0.674743 0.489162 0.093137
H24   H     H_    0.262021 0.086185 0.319376 0.355380
H25   H     H_    0.423634 0.621625 0.603740 0.346775
H26   H     H_    0.761885 0.586226 0.319349 0.355598
H27   H     H_    0.624656 0.555679 0.992608 0.360768
H28   H     H_    0.432460 0.548183 0.968273 0.383884
H29   H     H_    0.123504 0.056966 0.993751 0.360853
H30   H     H_    0.884519 0.068773 0.001899 0.363773
H31   H     H_    0.881010 0.824637 0.526830 0.139325
H32   H     H_    0.630824 0.382259 0.552365 0.136092
H33   H     H_    0.325065 0.552320 0.474402 0.168525
H34   H     H_    0.130818 0.882382 0.552350 0.136019
H35   H     H_    0.825099 0.052276 0.474396 0.168512
H36   H     H_    0.668259 0.523084 0.439744 0.166675
O1    O     O_R   0.783230 0.287800 0.346510 -0.512713
O2    O     O_R   0.454570 0.285140 0.836900 -0.443312
O3    O     O_R   0.045430 0.785140 0.163100 -0.436633
O4    O     O_R   0.954570 0.785140 0.836900 -0.438757
O5    O     O_R   0.677850 0.374730 0.185500 -0.461386
O6    O     O_R   0.322150 0.374730 0.814500 -0.464924
O7    O     O_R   0.177850 0.874730 0.185500 -0.463439
O8    O     O_R   0.822150 0.874730 0.814500 -0.458597
O9    O     O_3   0.664630 0.164620 0.255130 -0.309297
O10   O     O_3   0.335370 0.164620 0.744870 -0.335755
O11   O     O_3   0.164630 0.664620 0.255130 -0.309541
O12   O     O_R   0.216770 0.287800 0.653490 -0.502939
O13   O     O_3   0.835370 0.664620 0.744870 -0.337359
O14   O     O_R   0.760130 0.037060 0.338610 -0.525725
O15   O     O_R   0.239870 0.037060 0.661390 -0.525363
O16   O     O_R   0.260130 0.537060 0.338610 -0.526131
O17   O     O_R   0.739870 0.537060 0.661390 -0.525512
O18   O     O_R   0.666620 0.921370 0.332440 -0.488126
O19   O     O_R   0.333380 0.921370 0.667560 -0.475245
O20   O     O_R   0.166620 0.421370 0.332440 -0.488424
O21   O     O_R   0.833380 0.421370 0.667560 -0.474945
O22   O     O_R   0.557170 0.082420 0.312350 -0.504297
O23   O     O_R   0.283230 0.787800 0.346510 -0.513070
O24   O     O_R   0.442830 0.082420 0.687650 -0.492248
O25   O     O_R   0.057170 0.582420 0.312350 -0.504384
O26   O     O_R   0.942830 0.582420 0.687650 -0.492418
O27   O     O_R   0.548310 0.285980 0.316250 -0.506318
O28   O     O_R   0.451690 0.285980 0.683750 -0.511915
O29   O     O_R   0.048310 0.785980 0.316250 -0.506465
O30   O     O_R   0.951690 0.785980 0.683750 -0.513034
O31   O     O_R   0.680520 0.375500 0.327470 -0.489924
O32   O     O_R   0.319480 0.375500 0.672530 -0.455338
O33   O     O_R   0.180520 0.875500 0.327470 -0.490204
O34   O     O_R   0.716770 0.787800 0.653490 -0.503383
O35   O     O_R   0.819480 0.875500 0.672530 -0.455795
O36   O     O_R   0.780350 0.286970 0.193350 -0.507063
O37   O     O_R   0.219650 0.286970 0.806650 -0.515282
O38   O     O_R   0.280350 0.786970 0.193350 -0.501670
O39   O     O_R   0.719650 0.786970 0.806650 -0.515823
O40   O     O_R   0.757460 0.036290 0.196640 -0.476245
O41   O     O_R   0.242540 0.036290 0.803360 -0.462639
O42   O     O_R   0.257460 0.536290 0.196640 -0.471768
O43   O     O_R   0.742540 0.536290 0.803360 -0.462171
O44   O     O_R   0.663740 0.920540 0.179290 -0.498754
O45   O     O_R   0.554500 0.081650 0.170370 -0.506749
O46   O     O_R   0.336260 0.920540 0.820710 -0.477783
O47   O     O_R   0.163740 0.420540 0.179290 -0.500871
O48   O     O_R   0.836260 0.420540 0.820710 -0.476252
O49   O     O_2   0.811942 0.155032 0.638411 -0.493783
O50   O     O_R   0.896160 0.180270 0.569963 -0.710986
O51   O     O_2   0.352923 0.150045 0.407526 -0.537478
O52   O     O_R   0.243417 0.148193 0.350816 -0.680540
O53   O     O_2   0.311838 0.655027 0.638443 -0.494548
O54   O     O_R   0.396085 0.680141 0.570028 -0.711048
O55   O     O_2   0.852855 0.650099 0.407422 -0.537385
O56   O     O_R   0.445500 0.081650 0.829630 -0.527143
O57   O     O_R   0.743299 0.648158 0.350846 -0.680218
O58   O     O_2   0.636615 0.342617 0.909532 -0.285750
O59   O     O_2   0.531740 0.468805 0.895748 -0.266292
O60   O     O_3   0.611557 0.478069 0.013398 -0.500019
O61   O     O_2   0.392039 0.383815 0.102138 -0.280983
O62   O     O_2   0.497297 0.493494 0.087473 -0.215987
O63   O     O_3   0.398289 0.491580 0.983641 -0.513783
O64   O     O_2   0.131912 0.849674 0.905490 -0.292042
O65   O     O_2   0.026586 0.974090 0.899495 -0.218178
O66   O     O_3   0.111738 0.977852 0.013797 -0.496644
O67   O     O_R   0.054500 0.581650 0.170370 -0.506458
O68   O     O_2   0.890685 0.883178 0.101241 -0.311904
O69   O     O_2   0.996741 0.992327 0.087333 -0.208018
O70   O     O_3   0.899095 0.990628 0.982614 -0.497270
O71   O     O_R   0.945500 0.581650 0.829630 -0.526802
O72   O     O_R   0.545430 0.285140 0.163100 -0.435743
S1    S     S_3+6 0.579189 0.391646 0.945630 0.033123
S2    S     S_3+6 0.440814 0.414777 0.051515 0.060969
S3    S     S_3+6 0.076570 0.894995 0.945629 0.059021
S4    S     S_3+6 0.940144 0.914046 0.051277 0.058761

loop_
_geom_bond_atom_site_label_1
_geom_bond_atom_site_label_2
_ccdc_geom_bond_type
C58   C62   S    
C21   C26   S    
Cr7   O17   S    
O62   S2    D    
Cr8   O22   S    
C67   O1    A    
Cr11  O26   S    
C33   C45   S    
Cr6   O23   S    
C14   C18   S    
C19   C23   S    
C2    C7    S    
Cr11  O13   S    
C51   C74   S    
C4    C8    S    
C5    C18   S    
Cr2   O10   S    
C80   O71   A    
C4    C70   S    
C85   C91   T    
C19   C46   S    
C81   O5    A    
Cr8   O45   S    
C7    C11   S    
C41   C86   S    
C68   C96   S    
C63   C81   S    
C50   C59   T    
C7    H2    S    
C28   C29   S    
C24   O20   A    
C44   O26   A    
C22   C79   S    
C52   C61   T    
C18   H13   S    
C30   C31   S    
C65   C83   S    
Cr5   O12   S    
C83   O7    A    
C54   C63   T    
C11   C25   S    
O58   S1    D    
Cr2   O28   S    
Cr6   O11   S    
Cr7   O39   S    
C33   H15   S    
C69   O12   A    
C3    O55   D    
C80   O4    A    
C100  O53   D    
C32   H14   S    
H27   O60   S    
C16   H10   S    
H30   O70   S    
Cr8   O18   S    
C10   H7    S    
Cr9   O19   S    
C8    H3    S    
C15   C19   S    
Cr10  O20   S    
C58   C66   T    
C72   O40   A    
C88   C92   T    
C29   C33   S    
O65   S3    D    
C28   S1    S    
C14   H6    S    
C95   H33   S    
C99   O52   S    
Cr5   O15   S    
C83   O38   A    
Cr6   O16   S    
C14   C27   S    
C89   C91   S    
C2    C69   S    
C2    C16   S    
Cr2   O6    S    
C98   O49   D    
Cr9   O24   S    
Cr3   O3    S    
Cr11  O48   S    
C75   O48   A    
H29   O66   S    
O69   S4    D    
C41   O27   A    
Cr1   O9    S    
C45   H18   S    
C74   O42   A    
C55   C60   S    
O61   S2    D    
H25   O54   S    
C71   O34   A    
C24   O16   A    
Cr11  O71   S    
C11   H8    S    
C19   C98   S    
C17   H11   S    
C78   O3    A    
C13   O15   A    
C54   C59   S    
C45   C47   S    
C26   C96   S    
C29   S2    S    
C79   H31   S    
C2    C57   S    
Cr12  O9    S    
C98   O50   S    
C82   O37   A    
C34   C39   S    
C3    O57   S    
C39   C78   S    
Cr5   O41   S    
C36   C40   S    
C42   O28   A    
C24   C25   S    
Cr6   O38   S    
C43   O29   A    
C52   C73   S    
O66   S3    S    
C44   O30   A    
Cr4   O13   S    
C4    C68   S    
C21   C100  S    
C30   C34   S    
Cr8   O9    S    
Cr7   O34   S    
C6    C94   S    
O60   S1    S    
C6    C90   S    
O63   S2    S    
C67   C90   S    
C17   C21   S    
C31   S4    S    
C12   C26   S    
Cr11  O21   S    
C12   C17   S    
C75   O43   A    
C9    C14   S    
O68   S4    D    
C5    C9    S    
C71   O35   A    
C8    C96   S    
C6    H36   S    
C53   C62   T    
C70   O33   A    
Cr5   O10   S    
C46   C94   S    
C28   C32   S    
C8    C12   S    
H26   O57   S    
C55   C64   T    
Cr12  O27   S    
C40   C80   S    
Cr12  O72   S    
C30   C40   S    
Cr9   O46   S    
C56   C61   S    
C42   C85   S    
C16   C20   S    
C32   C37   S    
Cr4   O8    S    
O70   S4    S    
C64   C82   S    
C38   C47   S    
Cr1   O36   S    
C42   O24   A    
Cr2   O2    S    
Cr12  O31   S    
C4    C17   S    
Cr3   O7    S    
C48   C49   S    
C37   C76   S    
C1    O14   A    
C25   C95   S    
C23   C35   S    
C22   C27   S    
C21   C68   S    
C57   C95   S    
C35   O21   A    
C32   C47   S    
Cr9   O10   S    
C13   C26   S    
Cr7   O43   S    
C5    C79   S    
C43   C88   S    
C56   C65   T    
C29   C37   S    
C44   C87   S    
C77   O56   A    
Cr7   O13   S    
C7    C95   S    
Cr10  O25   S    
C50   C75   S    
H22   O50   S    
C49   H21   S    
C74   O47   A    
Cr1   O14   S    
C34   C49   S    
C9    C97   S    
C15   H9    S    
C46   H1    S    
C10   C15   S    
Cr3   O33   S    
C9    H4    S    
C79   C97   S    
Cr9   O56   S    
C48   H20   S    
C3    C22   S    
C86   C89   T    
C77   O2    A    
C6    C10   S    
C76   O72   A    
C34   H16   S    
O59   S1    D    
C30   S3    S    
C46   C90   S    
C38   C77   S    
C10   C23   S    
C96   H34   S    
C41   O22   A    
Cr5   O37   S    
C33   C38   S    
C81   O36   A    
C23   C94   S    
Cr2   O32   S    
Cr12  O5    S    
C94   H32   S    
Cr4   O4    S    
C18   C22   S    
Cr10  O67   S    
C20   C57   S    
C100  O54   S    
C69   O32   A    
C67   O31   A    
C36   H17   S    
C15   C90   S    
C27   C97   S    
C84   O8    A    
Cr3   O11   S    
C43   O25   A    
C20   C99   S    
C99   O51   D    
C1    O18   A    
C68   H23   S    
C97   H35   S    
C87   C93   T    
Cr1   O1    S    
C92   C93   S    
C35   O17   A    
C31   C39   S    
C36   C48   S    
C70   O23   A    
H24   O52   S    
C11   C16   S    
C13   O19   A    
C76   O45   A    
C66   C84   S    
C12   H5    S    
C82   O6    A    
Cr4   O35   S    
C5    C71   S    
C20   C25   S    
C78   O67   A    
C47   H19   S    
Cr10  O47   S    
C1    C27   S    
Cr6   O42   S    
C31   C36   S    
Cr8   O44   S    
C84   O39   A    
Cr4   O30   S    
C51   C60   T    
Cr1   O40   S    
Cr3   O29   S    
C28   C38   S    
C73   O46   A    
C53   C72   S    
C37   C45   S    
C72   O44   A    
C73   O41   A    
Cr10  O11   S    
C40   C49   S    
H28   O63   S    
C39   C48   S    
C57   H12   S    
O64   S3    D    
