data_mof_unit_16208.cif
_audit_creation_date              2013-03-05T15:51:39-0500
_audit_creation_method            fapswitch 2.2
_symmetry_space_group_name_H-M    P1
_symmetry_Int_Tables_number       1
_space_group_crystal_system       triclinic
_cell_length_a                    10.722574
_cell_length_b                    10.889605
_cell_length_c                    9.685071
_cell_angle_alpha                 88.062136
_cell_angle_beta                  86.825408
_cell_angle_gamma                 96.404518
_cell_volume                      1121.17934297

loop_
_atom_site_label
_atom_site_type_symbol
_atom_site_description
_atom_site_fract_x
_atom_site_fract_y
_atom_site_fract_z
_atom_type_partial_charge
O1    O     O_R   0.499990 0.319640 0.618810 -0.556442
O2    O     O_R   0.500000 0.319660 0.381240 -0.577603
C1    C     C_R   0.502723 0.261566 0.503506 0.869278
O3    O     O_R   0.316850 0.499960 0.618770 -0.533153
O4    O     O_R   0.316860 0.499980 0.381190 -0.580476
C2    C     C_R   0.259694 0.494937 0.503514 0.837637
Cu1   Cu    Cu3+1 0.499990 0.499990 0.640660 1.047273
Cu2   Cu    Cu3+1 0.500010 0.500010 0.359340 1.085307
O5    O     O_R   0.500000 0.680340 0.618760 -0.621381
O6    O     O_R   0.500010 0.680360 0.381190 -0.524464
O7    O     O_R   0.683140 0.500020 0.618810 -0.604719
O8    O     O_R   0.683150 0.500040 0.381230 -0.519239
C3    C     C_R   0.484327 0.734563 0.499270 0.867524
C4    C     C_R   0.740027 0.496279 0.496564 0.936134
C5    C     C_3   0.028866 0.499122 0.632267 -0.163949
C6    C     C_3   0.940394 0.393536 0.575752 -0.181854
C7    C     C_3   0.876539 0.488707 0.489912 -0.165423
C8    C     C_3   0.966809 0.592732 0.545279 0.247077
C9    C     C_3   0.062068 0.584625 0.421825 -0.205386
C10   C     C_3   0.973876 0.477141 0.368979 0.411157
C11   C     C_3   0.036944 0.381316 0.452808 -0.226942
C12   C     C_3   0.123081 0.489139 0.508896 -0.135918
H1    H     H_    0.111984 0.664365 0.359150 0.222875
H2    H     H_    0.067105 0.293771 0.414150 0.197307
C13   C     C_R   0.441177 0.096798 0.766938 -0.094588
H3    H     H_    0.486865 0.184577 0.793951 0.219739
C14   C     C_R   0.369551 0.028317 0.874520 0.342512
C15   C     C_R   0.326272 0.903926 0.855853 -0.127793
C16   C     C_R   0.357097 0.851470 0.730772 -0.152103
H4    H     H_    0.320303 0.756391 0.717062 0.216657
C17   C     C_R   0.426768 0.921683 0.621404 0.021581
C18   C     C_R   0.456805 0.050144 0.633202 0.039138
C19   C     C_R   0.504338 0.124477 0.512324 -0.096574
C20   C     C_R   0.534651 0.065413 0.388839 -0.120016
C21   C     C_R   0.491943 0.939706 0.377197 0.300910
C22   C     C_R   0.462076 0.866204 0.498334 -0.141863
H5    H     H_    0.350995 0.361672 0.147712 0.197501
C23   C     C_R   0.653264 0.698590 0.116862 0.351770
C24   C     C_R   0.697277 0.800519 0.028751 -0.173872
H6    H     H_    0.746384 0.881779 0.071372 0.225215
C25   C     C_R   0.696296 0.794157 0.887576 0.277723
C26   C     C_R   0.651928 0.682634 0.834079 -0.163271
H7    H     H_    0.673950 0.675746 0.726906 0.242011
C27   C     C_R   0.578596 0.588467 0.915604 0.063722
C28   C     C_R   0.578387 0.592011 0.064959 0.093962
N1    N     N_R   0.501210 0.501210 0.147910 -0.230028
C29   C     C_R   0.418434 0.423268 0.083730 0.045107
C30   C     C_R   0.412290 0.426601 0.937255 0.448308
N2    N     N_R   0.501250 0.501290 0.852040 -0.238839
C31   C     C_2   0.879689 0.282837 0.660423 0.498341
H8    H     H_    0.937844 0.226059 0.717335 0.129912
O9    O     O_2   0.766070 0.255590 0.665593 -0.498493
C32   C     C_2   0.258469 0.824438 0.968893 0.634120
H9    H     H_    0.191149 0.860081 0.039953 0.139472
O10   O     O_2   0.280469 0.717624 0.986551 -0.474583
N3    N     N_R   0.453112 0.890888 0.248117 0.130657
O11   O     O_R   0.507051 0.932499 0.130179 -0.410759
O12   O     O_R   0.349861 0.815737 0.248070 -0.357367
N4    N     N_R   0.720604 0.698842 0.239162 0.140437
O13   O     O_R   0.828884 0.656959 0.225848 -0.330913
O14   O     O_R   0.715109 0.792002 0.319122 -0.341947
N5    N     N_R   0.746456 0.898700 0.798358 0.181915
O15   O     O_R   0.807487 0.995579 0.848650 -0.315973
O16   O     O_R   0.722823 0.902031 0.668040 -0.296467
N6    N     N_R   0.300234 0.362741 0.885578 0.133111
O17   O     O_R   0.301876 0.305726 0.770550 -0.376770
O18   O     O_R   0.197053 0.346775 0.964665 -0.316875
C33   C     C_2   0.054088 0.508654 0.781500 0.607822
H10   H     H_    0.998034 0.448742 0.858669 0.113591
O19   O     O_2   0.134898 0.586455 0.817329 -0.466937
N7    N     N_R   0.933184 0.711152 0.591879 0.127397
O20   O     O_R   0.905993 0.793443 0.501441 -0.239354
O21   O     O_R   0.950789 0.742852 0.718153 -0.332545
N8    N     N_R   0.954520 0.461663 0.222517 0.179002
O22   O     O_R   0.027080 0.528439 0.129848 -0.283643
O23   O     O_R   0.876117 0.371810 0.183328 -0.284477
C34   C     C_2   0.632092 0.127707 0.286697 0.554387
H11   H     H_    0.637754 0.105031 0.179207 0.157070
O24   O     O_2   0.714343 0.202994 0.325526 -0.491694
N9    N     N_R   0.345871 0.085980 0.003016 0.144971
O25   O     O_R   0.434830 0.158631 0.053904 -0.407107
O26   O     O_R   0.232032 0.081437 0.058310 -0.317827

loop_
_geom_bond_atom_site_label_1
_geom_bond_atom_site_label_2
_geom_bond_distance
_ccdc_geom_bond_type
C27   N2    1.374208 A    
C5    C8    1.531992 S    
C6    C11   1.553123 S    
C25   C26   1.382245 A    
C9    C10   1.540574 S    
Cu1   Cu2   2.724585 S    
C24   C25   1.371939 A    
C34   H11   1.078041 S    
Cu1   O7    1.963483 S    
N5    O15   1.301738 A    
N8    O23   1.298124 A    
C15   C16   1.395587 A    
C6    C31   1.499427 S    
C8    C9    1.540345 S    
C20   C34   1.487421 S    
O4    C2    1.299985 A    
Cu2   O6    1.982411 S    
O7    C4    1.305489 A    
C1    C19   1.494489 S    
C5    C6    1.542166 S    
C2    C12   1.457110 S    
C7    C10   1.543019 S    
N3    O11   1.295332 A    
C20   C21   1.404500 A    
O5    C3    1.309056 A    
C23   C28   1.456222 A    
N5    O16   1.301112 A    
C5    C12   1.536118 S    
C21   C22   1.399055 A    
C33   H10   1.084102 S    
N6    O18   1.301995 A    
C31   O9    1.219163 D    
C30   N6    1.442743 S    
H5    C29   1.082062 S    
C13   C18   1.415381 A    
C34   O24   1.219701 D    
N4    O13   1.295442 A    
C11   C12   1.543876 S    
C4    C7    1.473225 S    
C26   C27   1.410616 A    
C25   N5    1.441300 S    
O3    Cu1   1.986748 S    
C19   C20   1.416074 A    
C32   O10   1.220678 D    
N4    O14   1.301449 A    
N8    O22   1.300734 A    
C9    C12   1.540739 S    
Cu1   N2    2.048541 S    
C3    C22   1.479071 S    
O3    C2    1.302703 A    
C14   N9    1.435601 S    
C24   H6    1.084205 S    
N7    O21   1.300016 A    
C6    C7    1.548266 S    
C31   H8    1.084435 S    
C13   H3    1.071813 S    
C32   H9    1.082086 S    
O1    C1    1.302357 A    
C9    H1    1.110689 S    
C16   H4    1.081316 S    
C29   C30   1.423222 A    
Cu2   O8    1.986747 S    
C7    C8    1.536749 S    
C10   N8    1.457604 S    
N9    O26   1.300601 A    
C30   N2    1.395297 A    
O8    C4    1.303565 A    
C26   H7    1.058711 S    
C27   C28   1.448221 A    
C8    N7    1.456604 S    
Cu1   O5    1.968203 S    
N1    C29   1.350283 A    
C21   N3    1.439471 S    
O1    Cu1   1.982410 S    
C17   C18   1.409986 A    
O2    Cu2   1.968205 S    
N9    O25   1.299519 A    
O6    C3    1.315679 A    
O4    Cu2   1.963484 S    
C15   C32   1.477760 S    
C13   C14   1.400942 A    
C18   C19   1.436436 A    
O2    C1    1.326864 A    
N7    O20   1.299506 A    
C16   C17   1.412376 A    
C23   C24   1.399089 A    
C5    C33   1.489991 S    
N3    O12   1.301300 A    
Cu2   N1    2.046633 S    
C23   N4    1.420868 S    
C28   N1    1.413516 A    
C10   C11   1.538279 S    
C33   O19   1.215902 D    
N6    O17   1.293809 A    
C11   H2    1.110456 S    
C14   C15   1.403033 A    
C17   C22   1.406696 A    
