data_mof_unit_29496.cif
_audit_creation_date              2012-12-11T19:47:10-0500
_audit_creation_method            fapswitch 2.2
_symmetry_space_group_name_H-M    P1
_symmetry_Int_Tables_number       1
_space_group_crystal_system       triclinic
_cell_length_a                    8.330326
_cell_length_b                    15.170888
_cell_length_c                    18.76399
_cell_angle_alpha                 101.778777
_cell_angle_beta                  90.909507
_cell_angle_gamma                 99.217505
_cell_volume                      2288.55775307

loop_
_atom_site_label
_atom_site_type_symbol
_atom_type_description
_atom_site_fract_x
_atom_site_fract_y
_atom_site_fract_z
_atom_type_partial_charge
Ba1   Ba    Ba6+2 0.853520 0.540910 0.466490 1.661156
Ba2   Ba    Ba6+2 0.336320 0.459170 0.533520 1.634230
C1    C     C_3   0.616538 0.825416 0.226474 -0.106122
C2    C     C_3   0.627897 0.765783 0.282841 0.508545
C3    C     C_3   0.365049 0.207829 0.302238 0.270947
C4    C     C_3   0.381614 0.118053 0.251765 -0.424450
C5    C     C_3   0.081534 0.292383 0.727204 0.363534
C6    C     C_3   0.030977 0.270939 0.801137 -0.158531
C7    C     C_3   0.541244 0.227146 0.701528 0.422553
C8    C     C_3   0.508267 0.143841 0.738076 -0.097910
C9    C     C_R   0.996817 0.460761 0.047795 -0.010354
C10   C     C_R   0.895776 0.425350 0.097626 -0.116612
C11   C     C_R   0.785222 0.407567 0.945714 0.098940
C12   C     C_3   0.160729 0.750679 0.270121 0.302812
C13   C     C_R   0.938489 0.458125 0.975386 -0.010759
C14   C     C_R   0.712579 0.428356 0.885223 0.151473
C15   C     C_R   0.810484 0.467956 0.835340 -0.048006
C16   C     C_R   0.974438 0.508091 0.858531 -0.047321
C17   C     C_R   0.035496 0.507446 0.930431 -0.001830
C18   C     C_R   0.756364 0.462836 0.761853 0.063992
C19   C     C_R   0.865971 0.495423 0.713565 -0.274743
C20   C     C_R   0.023974 0.540187 0.736228 0.059218
C21   C     C_R   0.076933 0.549755 0.810481 -0.032213
C22   C     C_R   0.158807 0.500391 0.071742 0.035876
C23   C     C_3   0.077860 0.743858 0.195169 -0.096401
C24   C     C_R   0.217950 0.497055 0.143475 -0.025652
C25   C     C_R   0.114563 0.452683 0.190361 -0.040736
C26   C     C_R   0.957262 0.408554 0.161677 0.183398
C27   C     C_R   0.228798 0.599898 0.838559 -0.022929
C28   C     C_R   0.287463 0.600604 0.908764 -0.083330
C29   C     C_R   0.196492 0.551212 0.955104 0.023047
C30   C     C_R   0.260722 0.544253 0.024867 0.036391
C31   C     C_R   0.424401 0.578552 0.049308 -0.113876
C32   C     C_R   0.381118 0.536258 0.167177 -0.060010
C33   C     C_R   0.482674 0.574452 0.118432 -0.118781
C34   C     C_3   0.260919 0.747713 0.635309 0.305977
C35   C     C_R   0.440828 0.532222 0.237418 -0.029398
C36   C     C_R   0.341801 0.482492 0.281113 -0.112883
C37   C     C_R   0.173621 0.452881 0.262560 0.043672
C38   C     C_R   0.861374 0.169026 0.540893 0.021798
C39   C     C_R   0.793216 0.074576 0.534803 -0.023761
C40   C     C_R   0.648109 0.886546 0.520862 -0.082793
C41   C     C_R   0.794196 0.923615 0.561255 -0.058725
C42   C     C_R   0.870425 0.013128 0.565012 0.103064
C43   C     C_R   0.584703 0.791808 0.510903 0.082076
C44   C     C_R   0.442720 0.757163 0.465808 -0.110257
C45   C     C_3   0.326083 0.851628 0.664607 0.107150
C46   C     C_R   0.618753 0.193077 0.476932 0.015253
C47   C     C_R   0.552575 0.099931 0.469331 -0.045933
C48   C     C_R   0.637899 0.040119 0.497738 -0.011492
C49   C     C_R   0.400935 0.065701 0.434158 -0.086513
C50   C     C_R   0.332826 0.974466 0.422231 0.117990
C51   C     C_R   0.415066 0.911147 0.448609 -0.009573
C52   C     C_R   0.567621 0.945455 0.488331 -0.005613
C53   C     C_R   0.350368 0.816279 0.438975 -0.039134
C54   C     C_R   0.769504 0.226399 0.514301 -0.299972
C55   C     C_3   0.944828 0.255979 0.371114 0.307176
C56   C     C_3   0.891409 0.153125 0.345008 -0.419068
C57   C     C_3   0.743904 0.730345 0.710494 0.553295
C58   C     C_3   0.769444 0.804389 0.781593 -0.016436
H1    H     H_    0.986814 0.122721 0.312612 0.109197
H2    H     H_    0.740534 0.851695 0.210765 0.086398
H3    H     H_    0.845363 0.867067 0.770427 0.064807
H4    H     H_    0.837450 0.780891 0.823826 0.053520
H5    H     H_    0.501966 0.736424 0.293885 -0.076118
H6    H     H_    0.266020 0.194851 0.339011 0.034282
H7    H     H_    0.326212 0.253518 0.268435 0.027854
H8    H     H_    0.470673 0.130359 0.209986 0.127735
H9    H     H_    0.549004 0.782590 0.176581 0.073821
H10   H     H_    0.997065 0.334458 0.710254 -0.031653
H11   H     H_    0.926017 0.304622 0.819946 0.090752
H12   H     H_    0.477993 0.209317 0.646477 0.060153
H13   H     H_    0.192638 0.682860 0.272973 -0.039575
H14   H     H_    0.825582 0.487921 0.657229 0.058951
H15   H     H_    0.304788 0.639705 0.806717 0.091888
H16   H     H_    0.766663 0.406024 0.087045 0.073888
H17   H     H_    0.857607 0.883271 0.589279 0.111182
H18   H     H_    0.818630 0.298256 0.520957 0.056796
H19   H     H_    0.991350 0.678400 0.180081 0.146082
H20   H     H_    0.007436 0.800629 0.197383 0.121546
H21   H     H_    0.359307 0.714310 0.609018 -0.008821
H22   H     H_    0.159919 0.737409 0.593537 0.031497
O1    O     O_2   0.871960 0.437280 0.322960 -0.435023
O2    O     O_3   0.660583 0.762650 0.657682 -0.664382
O3    O     O_3   0.053507 0.778203 0.323701 -0.558970
O4    O     O_2   0.317750 0.562750 0.677090 -0.467435
O5    O     O_3   0.068300 0.555620 0.587560 -0.505486
O6    O     O_3   0.528270 0.392500 0.627460 -0.478001
O7    O     O_3   0.207177 0.707662 0.693199 -0.638824
O8    O     O_3   0.609290 0.386840 0.459690 -0.444368
O9    O     O_3   0.105700 0.342700 0.589730 -0.488593
O10   O     O_2   0.205572 0.184680 0.548612 -0.472548
O11   O     O_3   0.082317 0.210182 0.676449 -0.610779
O12   O     O_3   0.121410 0.444460 0.412450 -0.488304
O13   O     O_3   0.580430 0.613240 0.540320 -0.453995
O14   O     O_2   0.337390 0.273050 0.457610 -0.484922
O15   O     O_3   0.518282 0.248958 0.336676 -0.638800
O16   O     O_2   0.423699 0.466308 0.754093 -0.478609
O17   O     O_3   0.480542 0.300723 0.745397 -0.583032
O18   O     O_3   0.661450 0.607570 0.372550 -0.436246
O19   O     O_2   0.775370 0.535641 0.247620 -0.479866
O20   O     O_3   0.000345 0.291369 0.311510 -0.626026
O21   O     O_3   0.720440 0.698111 0.253644 -0.612789
O22   O     O_2   0.852310 0.726980 0.542430 -0.491595
O23   O     O_3   0.084010 0.657370 0.410280 -0.473202
O24   O     O_2   0.020026 0.818009 0.463402 -0.474228
P1    P     P_3+3 0.039430 0.410940 0.333230 1.022341
P2    P     P_3+3 0.676770 0.715000 0.563590 0.962473
P3    P     P_3+3 0.132118 0.770608 0.408730 0.970526
P4    P     P_3+3 0.150290 0.589140 0.666780 0.970677
P5    P     P_3+3 0.063357 0.226114 0.586801 0.964521
P6    P     P_3+3 0.645860 0.593562 0.277343 0.959827
P7    P     P_3+3 0.518133 0.271567 0.432684 0.942735
P8    P     P_3+3 0.549650 0.406735 0.721873 0.984509
N1    N     N_3   0.708193 0.821904 0.350650 -0.494747
H23   H     H_    0.741778 0.778876 0.382972 0.224938
H24   H     H_    0.815658 0.861402 0.339280 0.201939
H25   H     H_    0.460814 0.863135 0.663232 0.107642
N2    N     N_3   0.263303 0.906920 0.619287 -0.517851
H26   H     H_    0.345615 0.967840 0.624273 0.181348
H27   H     H_    0.260047 0.874236 0.565027 0.139328
N3    N     N_3   0.284612 0.884970 0.739916 -0.444007
H28   H     H_    0.158155 0.875874 0.743172 0.192644
H29   H     H_    0.330661 0.848186 0.774500 0.218554
H30   H     H_    0.840322 0.287438 0.392777 0.032159
H31   H     H_    0.043563 0.268840 0.414151 0.048498
H32   H     H_    0.777140 0.139199 0.310348 0.134428
H33   H     H_    0.870713 0.119030 0.391583 0.061243
N4    N     N_3   0.902959 0.715675 0.688146 -0.497898
H34   H     H_    0.956941 0.773251 0.669542 0.166962
H35   H     H_    0.888092 0.659267 0.645130 0.168863
N5    N     N_3   0.652283 0.645856 0.724812 -0.508294
H36   H     H_    0.625962 0.598532 0.675548 0.188186
H37   H     H_    0.541732 0.659212 0.745651 0.202897
N6    N     N_3   0.615372 0.827515 0.809304 -0.495457
H38   H     H_    0.639902 0.891840 0.844192 0.175497
H39   H     H_    0.569890 0.781874 0.841927 0.156603
N7    N     N_3   0.533126 0.901996 0.254710 -0.533754
H40   H     H_    0.611916 0.950453 0.292613 0.188517
H41   H     H_    0.512789 0.933346 0.211451 0.170990
H42   H     H_    0.424684 0.071724 0.283682 0.113160
H43   H     H_    0.261866 0.085021 0.224080 0.082672
N8    N     N_3   0.195677 0.748196 0.138791 -0.523766
H44   H     H_    0.275439 0.702991 0.143170 0.178888
H45   H     H_    0.264007 0.813960 0.148677 0.183161
H46   H     H_    0.203372 0.334157 0.732071 0.129125
N9    N     N_3   0.165380 0.301335 0.855935 -0.512202
H47   H     H_    0.122293 0.288351 0.905450 0.180856
H48   H     H_    0.197561 0.372103 0.863222 0.196116
H49   H     H_    0.989942 0.196289 0.795665 0.139256
N10   N     N_3   0.716592 0.249048 0.695097 -0.530034
H50   H     H_    0.737891 0.286697 0.654526 0.114028
H51   H     H_    0.762368 0.188769 0.676439 0.140191
H52   H     H_    0.555560 0.085114 0.704509 0.064118
N11   N     N_3   0.335752 0.115240 0.747032 -0.479010
H53   H     H_    0.274342 0.106583 0.696694 0.224675
H54   H     H_    0.293332 0.166963 0.783507 0.243814
H55   H     H_    0.574223 0.160608 0.792422 0.127444
N12   N     N_3   0.538613 0.410670 0.877264 -0.451222
H56   H     H_    0.496920 0.342305 0.878482 0.227848
H57   H     H_    0.493742 0.450403 0.922266 0.155191
N13   N     N_3   0.863823 0.337809 0.191145 -0.444066
H58   H     H_    0.855987 0.276404 0.152875 0.147325
H59   H     H_    0.745281 0.351587 0.198130 0.187770
H60   H     H_    0.610153 0.600280 0.132333 0.105820
N14   N     N_3   0.415901 0.458803 0.343124 -0.421786
H61   H     H_    0.353598 0.396935 0.351542 0.162396
H62   H     H_    0.527888 0.439876 0.328268 0.202339
N15   N     N_3   0.717128 0.321774 0.963512 -0.522768
H63   H     H_    0.804075 0.292895 0.987554 0.176933
H64   H     H_    0.616196 0.329004 0.995259 0.167848
H65   H     H_    0.405502 0.641207 0.925319 0.056278
H66   H     H_    0.272122 0.802829 0.277484 0.042714
H67   H     H_    0.512398 0.607841 0.015567 0.069402
N16   N     N_3   0.030591 0.038211 0.597857 -0.457054
H68   H     H_    0.031187 0.017845 0.647854 0.187786
H69   H     H_    0.106674 0.003582 0.562834 0.201804
N17   N     N_3   0.179511 0.949430 0.381965 -0.467981
H70   H     H_    0.095749 0.986391 0.410056 0.174121
H71   H     H_    0.193238 0.967236 0.331140 0.159696
H72   H     H_    0.329368 0.109207 0.414475 0.079730
N18   N     N_3   0.393541 0.660369 0.448176 -0.427725
H73   H     H_    0.300825 0.640933 0.481380 0.198458
H74   H     H_    0.360951 0.638828 0.392652 0.160206

loop_
_geom_bond_atom_site_label_1
_geom_bond_atom_site_label_2
_ccdc_geom_bond_type
C34   O7    S    
Ba1   O5    S    
C56   H33   S    
Ba1   O8    S    
N11   H54   S    
C23   H20   S    
C38   C54   A    
N15   H63   S    
C2    N1    S    
N9    H47   S    
C7    H12   S    
C46   C54   A    
C3    H7    S    
C17   C29   A    
C8    H52   S    
C5    H10   S    
N17   H70   S    
C26   N13   S    
N6    H38   S    
N16   H69   S    
O5    P4    S    
C51   C52   A    
O19   P6    D    
C13   C17   A    
C55   O20   S    
C24   C25   A    
C48   C52   A    
C10   C26   A    
C58   H3    S    
C21   C27   A    
Ba2   O13   S    
C1    H9    S    
C35   C36   A    
C22   C24   A    
Ba1   Ba2   S    
C12   H66   S    
O3    P3    S    
C55   H30   S    
C3    C4    S    
O16   P8    D    
N8    H44   S    
C32   C35   A    
C2    O21   S    
N8    H45   S    
C9    C22   A    
C15   C18   A    
C54   H18   S    
C34   C45   S    
C36   N14   S    
C32   C33   A    
O8    P7    S    
O9    P5    S    
Ba2   O8    S    
N18   H73   S    
C35   P6    S    
C31   C33   A    
C9    C13   A    
C24   C32   A    
C45   H25   S    
Ba2   P4    S    
N16   H68   S    
C25   C37   A    
C14   C15   A    
C20   P4    S    
C44   C53   A    
N10   H50   S    
N12   H57   S    
Ba2   O6    S    
C4    H43   S    
C7    C8    S    
C8    H55   S    
C43   P2    S    
C5    H46   S    
C56   H1    S    
C45   N2    S    
C56   H32   S    
C7    O17   S    
C19   C20   A    
C53   P3    S    
C14   N12   S    
N14   H62   S    
N15   H64   S    
C23   N8    S    
O17   P8    S    
C50   N17   S    
Ba1   O18   S    
C38   P5    S    
N13   H59   S    
C51   C53   A    
C5    O11   S    
O12   P1    S    
N9    H48   S    
C16   C21   A    
C12   H13   S    
Ba2   O12   S    
C57   O2    S    
N7    H40   S    
C34   H22   S    
C55   H31   S    
C16   C17   A    
C45   N3    S    
N1    H24   S    
C43   C44   A    
O7    P4    S    
C47   C49   A    
O21   P6    S    
C40   C43   A    
C6    H49   S    
C41   C42   A    
C22   C30   A    
C27   C28   A    
N12   H56   S    
Ba1   O22   S    
Ba2   O14   S    
C34   H21   S    
Ba1   O13   S    
C42   N16   S    
C4    H8    S    
C15   C16   A    
O20   P1    S    
C1    N7    S    
C4    H42   S    
C31   H67   S    
C58   N6    S    
C28   H65   S    
N2    H27   S    
N7    H41   S    
O11   P5    S    
C38   C39   A    
C3    O15   S    
O18   P6    S    
C11   C13   A    
N14   H61   S    
C39   C42   A    
O14   P7    D    
C6    N9    S    
C41   H17   S    
C40   C41   A    
O15   P7    S    
C1    C2    S    
C19   H14   S    
C39   C48   A    
O22   P2    D    
C50   C51   A    
N13   H58   S    
C1    H2    S    
N6    H39   S    
O23   P3    S    
C57   N4    S    
C6    H11   S    
O4    P4    D    
C23   H19   S    
C29   C30   A    
C12   O3    S    
C3    H6    S    
C49   H72   S    
C8    N11   S    
Ba1   O12   S    
N17   H71   S    
N2    H26   S    
O10   P5    D    
Ba2   O4    S    
C27   H15   S    
Ba1   O1    S    
C7    N10   S    
C58   H4    S    
C30   C31   A    
C44   N18   S    
C10   H16   S    
N4    H34   S    
C49   C50   A    
C40   C52   A    
C18   P8    S    
C28   C29   A    
C55   C56   S    
C36   C37   A    
C46   C47   A    
C57   N5    S    
C2    H5    S    
C11   N15   S    
O2    P2    S    
O1    P1    D    
N5    H36   S    
N10   H51   S    
C12   C23   S    
O6    P8    S    
Ba2   O9    S    
C37   P1    S    
N18   H74   S    
C5    C6    S    
O13   P2    S    
Ba1   P2    S    
Ba1   P1    S    
Ba2   O5    S    
C57   C58   S    
C18   C19   A    
N5    H37   S    
C47   C48   A    
C11   C14   A    
C25   C26   A    
C20   C21   A    
C33   H60   S    
N3    H28   S    
N11   H53   S    
N3    H29   S    
N1    H23   S    
C9    C10   A    
Ba1   O23   S    
C46   P7    S    
N4    H35   S    
O24   P3    D    
