data_mof_unit_40398.cif
_audit_creation_date              2012-12-10T20:43:40-0500
_audit_creation_method            fapswitch 2.2
_symmetry_space_group_name_H-M    P1
_symmetry_Int_Tables_number       1
_space_group_crystal_system       triclinic
_cell_length_a                    18.728547
_cell_length_b                    18.564867
_cell_length_c                    18.824747
_cell_angle_alpha                 109.416044
_cell_angle_beta                  109.520466
_cell_angle_gamma                 109.088434
_cell_volume                      5062.49051317

loop_
_atom_site_label
_atom_site_type_symbol
_atom_type_description
_atom_site_fract_x
_atom_site_fract_y
_atom_site_fract_z
_atom_type_partial_charge
C1    C     C_R   0.382780 0.503943 0.380608 0.878745
C2    C     C_R   0.269064 0.490631 0.039789 -0.143165
C3    C     C_R   0.120103 0.118623 0.498464 0.872654
C4    C     C_R   0.000733 0.379702 0.880389 0.871354
C5    C     C_R   0.119364 0.496278 0.117111 0.873306
C6    C     C_R   0.999817 0.620391 0.119613 0.877618
C7    C     C_R   0.879971 0.498382 0.878146 0.868531
C8    C     C_R   0.084473 0.761321 0.546956 -0.124699
C9    C     C_R   0.082632 0.776474 0.478557 -0.049065
C10   C     C_R   0.006856 0.725046 0.396678 0.106741
C11   C     C_R   0.935195 0.654573 0.382969 -0.190269
C12   C     C_R   0.937217 0.639578 0.451473 -0.115350
C13   C     C_R   0.314820 0.559219 0.030000 0.073198
C14   C     C_R   0.773647 0.725379 0.771923 -0.116468
C15   C     C_R   0.011615 0.693272 0.533568 -0.105141
C16   C     C_R   0.001943 0.676488 0.256114 -0.236520
C17   C     C_R   0.000808 0.687245 0.186007 -0.084335
C18   C     C_R   0.002953 0.761982 0.181469 0.016273
C19   C     C_R   0.001989 0.823643 0.246626 -0.260557
C20   C     C_R   0.002053 0.812610 0.316504 -0.104996
C21   C     C_R   0.004639 0.739728 0.323296 -0.018822
C22   C     C_R   0.072372 0.840822 0.115308 -0.001894
C23   C     C_R   0.067087 0.848201 0.041623 0.015771
C24   C     C_R   0.077759 0.259339 0.750608 -0.161890
C25   C     C_R   0.991797 0.788620 0.960687 -0.160148
C26   C     C_1   0.525220 0.938849 0.606086 0.206168
C27   C     C_2   0.495369 0.898322 0.426422 0.882418
C28   C     C_1   0.001979 0.332972 0.157413 0.159371
C29   C     C_1   0.177988 0.593171 0.463810 0.128602
C30   C     C_1   0.157105 0.306172 0.324768 0.138010
C31   C     C_1   0.152455 0.898645 0.197721 0.153250
C32   C     C_1   0.138591 0.915496 0.047302 0.153892
C33   C     C_1   0.385215 0.641137 0.105603 0.119302
C34   C     C_2   0.193621 0.467471 0.787013 0.862597
C35   C     C_R   0.824883 0.819836 0.577184 -0.250250
C36   C     C_R   0.998030 0.185269 0.684795 -0.087520
C37   C     C_R   0.919418 0.174415 0.682860 -0.019422
C38   C     C_R   0.922359 0.238366 0.749554 -0.259754
C39   C     C_R   0.001888 0.313899 0.814451 -0.096009
C40   C     C_R   0.080516 0.326612 0.813975 0.045679
C41   C     C_R   0.790923 0.084937 0.532794 -0.090333
C42   C     C_R   0.787444 0.805217 0.830161 -0.118148
C43   C     C_R   0.718669 0.004263 0.464769 -0.074092
C44   C     C_R   0.689142 0.933679 0.479012 -0.060966
C45   C     C_R   0.729503 0.944610 0.561924 -0.144277
C46   C     C_R   0.803078 0.024531 0.629648 -0.169392
C47   C     C_R   0.814025 0.810467 0.496976 -0.060863
C48   C     C_R   0.835212 0.094465 0.614869 0.114407
C49   C     C_R   0.739145 0.739966 0.418406 -0.002681
C50   C     C_R   0.677777 0.677854 0.422802 -0.250405
C51   C     C_R   0.688644 0.687141 0.502952 -0.072604
C52   C     C_R   0.761628 0.759781 0.581586 -0.013564
C53   C     C_R   0.921960 0.722417 0.952729 -0.146777
C54   C     C_R   0.644269 0.712053 0.270469 -0.148637
C55   C     C_R   0.628250 0.695692 0.187003 -0.124250
C56   C     C_R   0.690895 0.693601 0.163176 -0.128396
C57   C     C_R   0.621286 0.620491 0.501393 0.864132
C58   C     C_R   0.769813 0.708147 0.222818 -0.117898
C59   C     C_R   0.786284 0.725135 0.306447 -0.109933
C60   C     C_R   0.723764 0.727079 0.331147 0.119864
C61   C     C_R   0.434695 0.782731 0.548630 -0.225089
C62   C     C_R   0.384154 0.695799 0.481585 -0.078563
C63   C     C_R   0.378302 0.673257 0.400243 0.086479
C64   C     C_R   0.925566 0.715603 0.025117 -0.165019
C65   C     C_R   0.419507 0.740861 0.385768 -0.256377
C66   C     C_R   0.464961 0.829789 0.450526 -0.029662
C67   C     C_R   0.475268 0.850110 0.534180 -0.005480
C68   C     C_R   0.248312 0.576809 0.256545 -0.232227
C69   C     C_R   0.617446 0.496968 0.619758 0.858220
C70   C     C_R   0.183054 0.495536 0.184713 -0.089900
C71   C     C_R   0.179714 0.416926 0.180184 -0.016003
C72   C     C_R   0.248767 0.423416 0.244712 -0.243428
C73   C     C_R   0.315276 0.504977 0.316449 -0.093823
C74   C     C_R   0.314043 0.583307 0.324717 0.011946
C75   C     C_R   0.000516 0.774076 0.106789 0.071099
C76   C     C_R   0.024916 0.288729 0.097117 0.095240
C77   C     C_R   0.961703 0.203777 0.027905 -0.170358
C78   C     C_R   0.982341 0.155858 0.971212 -0.119870
C79   C     C_R   0.066811 0.191486 0.984521 -0.115898
C80   C     C_R   0.130282 0.275936 0.053268 -0.207857
C81   C     C_R   0.378595 0.379751 0.498584 0.880208
C82   C     C_R   0.109393 0.327341 0.107741 0.066432
C83   C     C_R   0.228555 0.529350 0.552269 -0.208929
C84   C     C_R   0.243045 0.462080 0.559054 -0.137449
C85   C     C_R   0.221335 0.388671 0.484765 0.073728
C86   C     C_R   0.289663 0.549548 0.947106 -0.243155
C87   C     C_R   0.184159 0.382740 0.402990 0.008037
C88   C     C_R   0.171193 0.451092 0.396969 -0.196233
C89   C     C_R   0.192558 0.523889 0.471189 0.065853
C90   C     C_R   0.174590 0.252420 0.492381 -0.213161
C91   C     C_R   0.186273 0.183152 0.496725 -0.088160
C92   C     C_R   0.261510 0.178467 0.501936 0.002304
C93   C     C_R   0.795331 0.871241 0.808448 -0.137865
C94   C     C_R   0.323368 0.243906 0.501167 -0.250666
C95   C     C_R   0.311716 0.313227 0.497416 -0.078797
C96   C     C_R   0.237443 0.318385 0.493493 0.004079
C97   C     C_R   0.216207 0.472347 0.872926 0.014661
C98   C     C_R   0.353926 0.125281 0.574565 -0.156463
C99   C     C_R   0.370420 0.057734 0.577306 -0.105330
C100  C     C_R   0.310763 0.970791 0.511706 -0.120570
C101  C     C_R   0.234460 0.951288 0.443381 -0.113743
C102  C     C_R   0.217439 0.018593 0.440628 -0.070686
C103  C     C_R   0.277035 0.106176 0.506292 0.126099
C104  C     C_R   0.550339 0.569493 0.858343 -0.138056
C105  C     C_R   0.787911 0.856702 0.727931 -0.160804
C106  C     C_R   0.619099 0.568478 0.844789 -0.157715
C107  C     C_R   0.603264 0.497398 0.772101 0.141203
C108  C     C_R   0.166619 0.404704 0.884338 0.051495
C109  C     C_R   0.517999 0.426956 0.713877 -0.123779
C110  C     C_R   0.449482 0.428041 0.727960 -0.127655
C111  C     C_R   0.465570 0.499388 0.799898 -0.106990
C112  C     C_R   0.742624 0.496710 0.820697 -0.258969
C113  C     C_R   0.813286 0.496620 0.810716 -0.079343
C114  C     C_R   0.818773 0.495497 0.737653 -0.000095
C115  C     C_R   0.751964 0.493549 0.674879 -0.251857
C116  C     C_R   0.681692 0.494086 0.684996 -0.087968
C117  C     C_R   0.773149 0.776011 0.668507 0.126596
C118  C     C_R   0.676460 0.496204 0.758533 -0.011314
C119  C     C_R   0.195452 0.414667 0.967694 -0.194067
C120  C     C_R   0.941588 0.558481 0.712469 -0.152910
C121  C     C_R   0.001668 0.550154 0.686769 -0.149558
C122  C     C_R   0.009848 0.474933 0.669350 -0.066268
C123  C     C_R   0.959601 0.408872 0.679707 -0.112364
C124  C     C_R   0.899930 0.417262 0.706138 -0.153003
C125  C     C_R   0.889965 0.491794 0.721808 0.140370
C126  C     C_R   0.999171 0.878197 0.380566 0.860379
C127  C     C_R   0.879983 0.878224 0.498391 0.875196
C128  C     C_R   0.998986 0.119374 0.619597 0.894292
C129  C     C_R   0.768699 0.711387 0.692402 -0.102410
H1    H     H_    0.791582 0.815667 0.891815 0.130911
H2    H     H_    0.805935 0.933202 0.853442 0.126628
H3    H     H_    0.896504 0.174089 0.018353 0.127188
H4    H     H_    0.933238 0.090388 0.917897 0.124640
H5    H     H_    0.083284 0.153502 0.941746 0.139164
H6    H     H_    0.195933 0.301935 0.063475 0.141579
H7    H     H_    0.245684 0.585673 0.610176 0.137706
H8    H     H_    0.271519 0.467216 0.622187 0.150003
H9    H     H_    0.144526 0.447800 0.334647 0.165342
H10   H     H_    0.792422 0.907920 0.711619 0.114758
H11   H     H_    0.116705 0.255491 0.488874 0.167686
H12   H     H_    0.678181 0.680478 0.098440 0.123556
H13   H     H_    0.381278 0.241278 0.504130 0.157870
H14   H     H_    0.400970 0.192450 0.625634 0.127643
H15   H     H_    0.429664 0.072859 0.630092 0.150634
H16   H     H_    0.323832 0.918601 0.513599 0.136907
H17   H     H_    0.188909 0.884029 0.392127 0.146821
H18   H     H_    0.158621 0.002730 0.386730 0.105732
H19   H     H_    0.412411 0.500169 0.810536 0.137711
H20   H     H_    0.562804 0.624554 0.914256 0.126399
H21   H     H_    0.684530 0.623204 0.890515 0.115827
H22   H     H_    0.759391 0.649561 0.648649 0.094619
H23   H     H_    0.817992 0.705887 0.204021 0.143547
H24   H     H_    0.504893 0.371166 0.658179 0.101701
H25   H     H_    0.383923 0.373508 0.683359 0.142364
H26   H     H_    0.739646 0.498267 0.877749 0.155430
H27   H     H_    0.755134 0.492471 0.618025 0.156274
H28   H     H_    0.933959 0.615943 0.723414 0.122576
H29   H     H_    0.040672 0.601204 0.678722 0.129578
H30   H     H_    0.054408 0.467480 0.646825 0.157953
H31   H     H_    0.965641 0.350396 0.665543 0.171391
H32   H     H_    0.859491 0.364543 0.711477 0.117782
H33   H     H_    0.013130 0.681571 0.586534 0.117469
H34   H     H_    0.847591 0.736729 0.352104 0.106355
H35   H     H_    0.765042 0.673632 0.787624 0.130501
H36   H     H_    0.142652 0.801913 0.610162 0.120439
H37   H     H_    0.140216 0.828200 0.489449 0.129060
H38   H     H_    0.877390 0.611974 0.319452 0.138937
H39   H     H_    0.881192 0.586168 0.440841 0.137009
H40   H     H_    0.002487 0.619293 0.259211 0.170986
H41   H     H_    0.001181 0.880486 0.242894 0.158304
H42   H     H_    0.987351 0.792806 0.903428 0.140485
H43   H     H_    0.865211 0.675330 0.890105 0.140068
H44   H     H_    0.881913 0.875828 0.636809 0.154832
H45   H     H_    0.439588 0.797808 0.611422 0.138878
H46   H     H_    0.870326 0.663603 0.017281 0.112764
H47   H     H_    0.327228 0.603206 0.940916 0.182484
H48   H     H_    0.157712 0.364417 0.976746 0.135046
H49   H     H_    0.288509 0.497076 0.103579 0.141649
H50   H     H_    0.137720 0.265518 0.751381 0.158521
H51   H     H_    0.862417 0.230151 0.749896 0.171035
H52   H     H_    0.814805 0.138625 0.520651 0.124525
H53   H     H_    0.686382 0.996067 0.400761 0.122776
H54   H     H_    0.620513 0.622017 0.363253 0.154595
H55   H     H_    0.634601 0.870585 0.425971 0.137842
H56   H     H_    0.347813 0.646620 0.493012 0.158843
H57   H     H_    0.704737 0.890340 0.572881 0.144788
H58   H     H_    0.836481 0.031523 0.692880 0.122632
H59   H     H_    0.594836 0.713010 0.287823 0.139584
H60   H     H_    0.567133 0.684056 0.140401 0.146959
H61   H     H_    0.505486 0.925284 0.333580 0.347211
H62   H     H_    0.214731 0.532038 0.721915 0.328230
H63   H     H_    0.411255 0.723700 0.321540 0.198307
H64   H     H_    0.246614 0.635812 0.260218 0.165160
H65   H     H_    0.249541 0.363862 0.239979 0.180356
N1    N     N_1   0.565307 0.009906 0.663864 -0.198175
N2    N     N_1   0.982807 0.368066 0.205121 -0.213584
N3    N     N_1   0.166508 0.648839 0.457523 -0.210536
N4    N     N_1   0.135218 0.244536 0.262194 -0.194961
N5    N     N_1   0.217005 0.944920 0.263107 -0.185553
N6    N     N_1   0.195854 0.969418 0.051846 -0.194036
N7    N     N_1   0.441179 0.707179 0.166552 -0.194308
O1    O     O_R   0.408360 0.551710 0.460090 -0.630860
O2    O     O_R   0.948290 0.356630 0.908390 -0.625137
O3    O     O_R   0.143340 0.551690 0.091580 -0.613383
O4    O     O_R   0.408400 0.448280 0.356670 -0.621830
O5    O     O_R   0.039900 0.448270 0.091610 -0.621480
O6    O     O_R   0.051710 0.643320 0.091560 -0.608587
O7    O     O_R   0.948270 0.539900 0.091590 -0.624992
O8    O     O_R   0.960100 0.551680 0.908340 -0.605192
O9    O     O_R   0.856660 0.448270 0.908370 -0.625309
O10   O     O_R   0.591600 0.643340 0.551710 -0.609003
O11   O     O_R   0.591630 0.539900 0.448290 -0.626756
O12   O     O_R   0.948280 0.908380 0.356650 -0.617055
O13   O     O_R   0.591600 0.551720 0.643330 -0.610626
O14   O     O_R   0.591640 0.448290 0.539910 -0.621963
O15   O     O_R   0.408370 0.460100 0.551710 -0.613510
O16   O     O_R   0.408400 0.356660 0.448290 -0.614531
O17   O     O_R   0.051730 0.908360 0.460060 -0.628680
O18   O     O_2   0.530883 0.976321 0.478832 -0.615198
O19   O     O_R   0.482184 0.873263 0.342310 -0.814790
O20   O     O_2   0.142061 0.397891 0.719432 -0.677151
O21   O     O_R   0.233703 0.543395 0.783477 -0.829380
O22   O     O_R   0.960110 0.908350 0.551690 -0.623475
O23   O     O_R   0.856660 0.908370 0.448270 -0.609119
O24   O     O_R   0.051720 0.091580 0.643310 -0.629686
O25   O     O_R   0.948270 0.091600 0.539890 -0.619784
O26   O     O_R   0.143340 0.091590 0.551680 -0.615742
O27   O     O_R   0.039890 0.091610 0.448270 -0.621560
O28   O     O_R   0.051730 0.460050 0.908360 -0.606658
Zn1   Zn    Zn3+2 0.499980 0.569060 0.569060 0.975505
Zn2   Zn    Zn3+2 0.500020 0.430940 0.430940 0.969840
Zn3   Zn    Zn3+2 0.069070 0.999960 0.569030 0.954096
Zn4   Zn    Zn3+2 0.930930 0.999990 0.430930 0.966944
Zn5   Zn    Zn3+2 0.069070 0.569030 0.999960 1.005373
Zn6   Zn    Zn3+2 0.930930 0.430930 0.000000 0.965855

loop_
_geom_bond_atom_site_label_1
_geom_bond_atom_site_label_2
_ccdc_geom_bond_type
C55   C56   A    
C57   O10   A    
C69   C116  S    
C27   O18   D    
C18   C75   S    
C106  H21   S    
O10   Zn1   S    
C115  H27   S    
C42   C93   A    
C107  C109  A    
C73   C74   A    
C15   H33   S    
C95   C96   A    
C69   O14   A    
C19   H41   S    
C43   C44   A    
C35   C47   A    
C5    O3    A    
C63   C65   A    
C114  C115  A    
C123  C124  A    
C47   C49   A    
C54   C60   A    
C77   C78   A    
O22   Zn3   S    
O2    Zn6   S    
C101  C102  A    
C80   H6    S    
C83   C84   A    
O14   Zn2   S    
C26   C67   S    
C55   H60   S    
C9    H37   S    
C25   C53   A    
C129  H22   S    
C88   C89   A    
C72   H65   S    
C38   C39   A    
C98   H14   S    
C53   C64   A    
C45   H57   S    
C81   O15   A    
C123  H31   S    
C1    O1    A    
C68   C74   A    
C98   C103  A    
C34   C97   S    
C3    C91   S    
C18   C19   A    
O28   Zn5   S    
C79   H5    S    
C2    C13   A    
C110  C111  A    
C100  C101  A    
O3    Zn5   S    
C92   C103  S    
C93   C105  A    
C5    O5    A    
O8    Zn5   S    
C97   C108  A    
C16   H40   S    
C41   C48   A    
C62   C63   A    
C50   H54   S    
C116  C118  A    
C128  O24   A    
C112  H26   S    
C13   C86   A    
C44   C45   A    
O15   Zn1   S    
C122  H30   S    
C65   H63   S    
C31   N5    T    
C51   C57   S    
C46   H58   S    
C109  H24   S    
C9    C10   A    
C44   H55   S    
C107  C118  S    
C6    O7    A    
C53   H43   S    
C34   O20   D    
C127  O22   A    
O1    Zn1   S    
C71   C82   S    
C52   C117  S    
C25   H42   S    
C66   C67   A    
C57   O11   A    
C59   C60   A    
C54   H59   S    
C11   H38   S    
C41   C43   A    
C108  C119  A    
C105  C117  A    
C36   C128  S    
C22   C75   A    
O12   Zn4   S    
C26   N1    T    
C104  C106  A    
C112  C113  A    
C7    O8    A    
C111  H19   S    
C58   H23   S    
C50   C51   A    
C85   C87   A    
C10   C21   S    
C83   C89   A    
C46   C48   A    
C101  H17   S    
O24   Zn3   S    
C38   H51   S    
C22   C31   S    
C61   H45   S    
C102  C103  A    
C35   H44   S    
C99   H15   S    
C84   C85   A    
C80   C82   A    
C10   C11   A    
C76   C82   A    
C91   C92   A    
C114  C125  S    
C29   C89   S    
C8    C9    A    
C4    O2    A    
C58   C59   A    
C45   C46   A    
C51   C52   A    
O5    Zn6   S    
C64   H46   S    
C77   H3    S    
C94   H13   S    
C104  H20   S    
O23   Zn4   S    
C13   C33   S    
C37   C38   A    
C110  H25   S    
C126  O12   A    
C102  H18   S    
C105  H10   S    
C61   C67   A    
C83   H7    S    
C99   C100  A    
O7    Zn6   S    
C4    C39   S    
C100  H16   S    
C11   C12   A    
C81   O16   A    
C24   H50   S    
C92   C94   A    
C17   C18   A    
O27   Zn4   S    
C49   C60   S    
C94   C95   A    
C42   H1    S    
C24   C36   A    
O9    Zn6   S    
C76   C77   A    
C37   C48   S    
C47   C127  S    
C41   H52   S    
H62   O21   S    
O17   Zn3   S    
C6    O6    A    
C70   C71   A    
C127  O23   A    
C62   H56   S    
C56   H12   S    
C68   C70   A    
C30   N4    T    
C84   H8    S    
C49   C50   A    
C8    C15   A    
C29   N3    T    
C121  H29   S    
C120  H28   S    
O4    Zn2   S    
C65   C66   A    
C28   C76   S    
C3    O26   A    
C39   C40   A    
C7    O9    A    
C1    O4    A    
C120  C121  A    
C113  C114  A    
O11   Zn2   S    
C6    C17   S    
C54   C55   A    
C36   C37   A    
C78   C79   A    
C69   O13   A    
C72   C73   A    
C5    C70   S    
H61   O19   S    
C12   H39   S    
C104  C111  A    
C90   H11   S    
C2    C119  A    
C121  C122  A    
C16   C21   A    
C90   C96   A    
C63   C74   S    
C2    H49   S    
C124  H32   S    
C43   H53   S    
C14   C42   A    
C1    C73   S    
C4    O28   A    
C7    C113  S    
C19   C20   A    
C12   C15   A    
C122  C123  A    
C71   C72   A    
C32   N6    T    
C27   C66   S    
C109  C110  A    
C23   C32   S    
C112  C118  A    
C28   N2    T    
C90   C91   A    
C16   C17   A    
C85   C96   S    
C88   H9    S    
C81   C95   S    
C68   H64   S    
C33   N7    T    
C86   C97   A    
C24   C40   A    
C64   C75   A    
C56   C58   A    
C20   C126  S    
O26   Zn3   S    
C86   H47   S    
C23   C25   A    
C120  C125  A    
C14   H35   S    
C61   C62   A    
C78   H4    S    
C59   H34   S    
C8    H36   S    
C79   C80   A    
C34   O21   S    
C40   C108  S    
C27   O19   S    
C20   C21   A    
C87   C88   A    
C128  O25   A    
C98   C99   A    
C106  C107  A    
O25   Zn4   S    
C35   C52   A    
C22   C23   A    
C119  H48   S    
C115  C116  A    
C30   C87   S    
C93   H2    S    
C3    O27   A    
O16   Zn2   S    
C126  O17   A    
O6    Zn5   S    
C117  C129  A    
C124  C125  A    
C14   C129  A    
O13   Zn1   S    
