data_mof_unit_35471.cif
_audit_creation_date              2012-12-11T21:06:15-0500
_audit_creation_method            fapswitch 2.2
_symmetry_space_group_name_H-M    P1
_symmetry_Int_Tables_number       1
_space_group_crystal_system       triclinic
_cell_length_a                    36.614465
_cell_length_b                    39.610009
_cell_length_c                    8.517991
_cell_angle_alpha                 88.853696
_cell_angle_beta                  93.232522
_cell_angle_gamma                 89.551201
_cell_volume                      12331.0153547

loop_
_atom_site_label
_atom_site_type_symbol
_atom_type_description
_atom_site_fract_x
_atom_site_fract_y
_atom_site_fract_z
_atom_type_partial_charge
Ba1   Ba    Ba6+2 0.000060 0.523150 0.844950 1.661905
Ba2   Ba    Ba6+2 0.000060 0.476850 0.344950 1.668773
Ba3   Ba    Ba6+2 0.500060 0.023150 0.844950 1.661929
Ba4   Ba    Ba6+2 0.500060 0.976850 0.344950 1.669099
C1    C     C_3   0.020570 0.699804 0.564433 0.038769
C2    C     C_2   0.894573 0.626246 0.248700 0.025412
C3    C     C_R   0.648272 0.819442 0.816586 0.571873
C4    C     C_2   0.104563 0.621652 0.425748 -0.129998
C5    C     C_2   0.104713 0.375638 0.938701 -0.117633
C6    C     C_2   0.604482 0.121551 0.425541 -0.129632
C7    C     C_2   0.604583 0.875662 0.939281 -0.117585
C8    C     C_3   0.065734 0.609157 0.428775 -0.083611
C9    C     C_3   0.066363 0.389990 0.939389 -0.059170
C10   C     C_3   0.565597 0.109204 0.428595 -0.084146
C11   C     C_3   0.566242 0.889981 0.939542 -0.058914
C12   C     C_1   0.080420 0.575637 0.203512 0.025927
C13   C     C_2   0.411770 0.863449 0.815519 0.041368
C14   C     C_1   0.081978 0.424648 0.711771 0.032099
C15   C     C_1   0.580244 0.075620 0.203443 0.026449
C16   C     C_1   0.581968 0.924642 0.711997 0.031590
C17   C     C_2   0.103892 0.599583 0.161988 -0.131563
C18   C     C_2   0.108126 0.402561 0.679086 -0.131733
C19   C     C_2   0.603705 0.099529 0.161736 -0.131161
C20   C     C_2   0.608067 0.902476 0.679478 -0.131626
C21   C     C_2   0.120753 0.623172 0.285149 0.192080
C22   C     C_2   0.122755 0.377521 0.803664 0.198135
C23   C     C_2   0.620647 0.123030 0.284867 0.191380
C24   C     C_2   0.393583 0.125328 0.247843 0.024700
C25   C     C_2   0.622637 0.877441 0.804309 0.197937
C26   C     C_R   0.757145 0.278108 0.191048 -0.011392
C27   C     C_R   0.749267 0.719057 0.650017 -0.012604
C28   C     C_R   0.256723 0.778794 0.190690 -0.011488
C29   C     C_R   0.247727 0.219326 0.632722 -0.013052
C30   C     C_R   0.771955 0.278897 0.040897 0.058728
C31   C     C_R   0.782379 0.728423 0.584005 0.054735
C32   C     C_R   0.271567 0.779532 0.040591 0.058775
C33   C     C_R   0.281419 0.228611 0.572076 0.055612
C34   C     C_R   0.761883 0.253928 0.929399 0.041266
C35   C     C_3   0.943967 0.387156 0.791461 -0.083558
C36   C     C_R   0.790455 0.763204 0.560271 0.034272
C37   C     C_R   0.261532 0.754518 0.929226 0.041275
C38   C     C_R   0.290018 0.263396 0.552738 0.034033
C39   C     C_3   0.892886 0.522509 0.130764 0.308839
C40   C     C_3   0.891451 0.477532 0.605705 0.283477
C41   C     C_3   0.391824 0.021559 0.138549 0.289717
C42   C     C_3   0.390996 0.977575 0.601809 0.283942
C43   C     C_R   0.766323 0.304557 0.293866 -0.113541
C44   C     C_R   0.741321 0.684328 0.663442 -0.108529
C45   C     C_R   0.265808 0.805359 0.293194 -0.113549
C46   C     C_3   0.920530 0.597281 0.211099 -0.101226
C47   C     C_R   0.238443 0.184852 0.635069 -0.109593
C48   C     C_R   0.797061 0.284643 0.736217 -0.054906
C49   C     C_R   0.850361 0.746461 0.472714 -0.034924
C50   C     C_R   0.296631 0.785237 0.735790 -0.055178
C51   C     C_R   0.350155 0.246417 0.468494 -0.034799
C52   C     C_R   0.231507 0.699290 0.875376 -0.104501
C53   C     C_R   0.268109 0.323328 0.546790 -0.101675
C54   C     C_R   0.731659 0.198806 0.875204 -0.104413
C55   C     C_R   0.767946 0.822900 0.549062 -0.101576
C56   C     C_R   0.209538 0.672302 0.919313 0.233789
C57   C     C_3   0.444020 0.887074 0.791225 -0.083982
C58   C     C_R   0.242418 0.348161 0.581143 0.218222
C59   C     C_R   0.709583 0.171886 0.919005 0.233578
C60   C     C_R   0.742135 0.847722 0.581750 0.218448
C61   C     C_R   0.774373 0.257986 0.775797 -0.101158
C62   C     C_R   0.825273 0.771416 0.507706 -0.093561
C63   C     C_R   0.273969 0.758577 0.775535 -0.101106
C64   C     C_R   0.325123 0.271481 0.503116 -0.093212
C65   C     C_3   0.856655 0.541155 0.158391 -0.223044
C66   C     C_3   0.855166 0.459022 0.570538 -0.207820
C67   C     C_3   0.355845 0.041633 0.115026 -0.234250
C68   C     C_3   0.419393 0.096264 0.209236 -0.106166
C69   C     C_3   0.354668 0.959823 0.559363 -0.202373
C70   C     C_3   0.107701 0.479235 0.029934 0.297713
C71   C     C_3   0.107353 0.520308 0.522196 0.302860
C72   C     C_3   0.607723 0.979253 0.030018 0.297900
C73   C     C_3   0.607302 0.020319 0.522119 0.302803
C74   C     C_3   0.144522 0.461583 0.005682 -0.223608
C75   C     C_3   0.144161 0.536303 0.487652 -0.231521
C76   C     C_3   0.644539 0.961570 0.005985 -0.224268
C77   C     C_3   0.644095 0.036295 0.487282 -0.231469
C78   C     C_3   0.008962 0.662296 0.590307 0.521598
C79   C     C_1   0.916693 0.426585 0.970182 0.056068
C80   C     C_3   0.001390 0.343974 0.089692 0.550489
C81   C     C_3   0.508872 0.162416 0.591333 0.518013
C82   C     C_3   0.501151 0.844016 0.089735 0.550693
C83   C     C_R   0.837816 0.351003 0.079508 0.626133
C84   C     C_R   0.823643 0.643708 0.500247 0.603502
C85   C     C_R   0.337553 0.851536 0.078929 0.626219
C86   C     C_R   0.323130 0.143647 0.495502 0.596766
C87   C     C_3   0.823217 0.529831 0.055395 -0.186571
C88   C     C_3   0.827409 0.536721 0.880330 -0.335047
C89   C     C_3   0.832660 0.476584 0.433551 -0.197544
C90   C     C_1   0.918802 0.576135 0.479857 0.054933
C91   C     C_3   0.798544 0.457604 0.379517 -0.378287
C92   C     C_3   0.348758 0.053207 0.942511 -0.209741
C93   C     C_3   0.308271 0.060069 0.901436 -0.378967
C94   C     C_3   0.335218 0.976389 0.411887 -0.203243
C95   C     C_3   0.299262 0.959800 0.361517 -0.365143
C96   C     C_3   0.157201 0.436814 0.139048 -0.235432
C97   C     C_3   0.166046 0.454179 0.294343 -0.309418
C98   C     C_3   0.160852 0.557179 0.622627 -0.202677
C99   C     C_3   0.169674 0.536505 0.773023 -0.300690
C100  C     C_3   0.657131 0.936775 0.139375 -0.235219
C101  C     C_1   0.416981 0.926626 0.969879 0.060893
C102  C     C_3   0.665945 0.954119 0.294735 -0.308923
C103  C     C_3   0.660898 0.057074 0.622330 -0.202473
C104  C     C_3   0.669756 0.036326 0.772485 -0.300390
C105  C     C_3   0.917677 0.327289 0.759190 -0.148245
C106  C     C_3   0.908038 0.298264 0.871674 -0.383836
C107  C     C_3   0.879143 0.649700 0.116128 -0.167880
C108  C     C_3   0.852247 0.631836 0.003237 -0.429275
C109  C     C_3   0.417283 0.827371 0.758546 -0.149205
C110  C     C_3   0.407596 0.798428 0.871374 -0.384399
C111  C     C_3   0.376670 0.147817 0.114842 -0.193491
C112  C     C_3   0.006289 0.306310 0.046589 0.054953
C113  C     C_1   0.418610 0.076028 0.480036 0.054449
C114  C     C_3   0.334979 0.145092 0.095601 -0.422361
C115  C     C_3   0.062273 0.703542 0.563940 -0.187956
C116  C     C_3   0.073644 0.735796 0.478317 -0.368007
C117  C     C_3   0.045151 0.296955 0.002974 -0.176576
C118  C     C_3   0.073049 0.293129 0.143134 -0.285583
C119  C     C_3   0.562398 0.203399 0.563214 -0.186546
C120  C     C_3   0.573829 0.235584 0.477152 -0.367800
C121  C     C_3   0.544797 0.796877 0.003405 -0.176824
C122  C     C_3   0.572632 0.793050 0.143803 -0.284573
C123  C     C_3   0.041105 0.694738 0.031973 -0.195200
C124  C     C_2   0.885688 0.409169 0.969120 -0.105463
C125  C     C_3   0.082012 0.687114 0.034770 -0.428142
C126  C     C_3   0.065830 0.315965 0.566108 -0.284649
C127  C     C_3   0.079329 0.279397 0.582944 -0.357614
C128  C     C_3   0.540137 0.194567 0.032853 -0.195591
C129  C     C_3   0.580963 0.186576 0.034773 -0.426685
C130  C     C_3   0.565970 0.816007 0.567147 -0.285259
C131  C     C_3   0.579520 0.779463 0.584553 -0.356481
C132  C     C_2   0.894537 0.599502 0.515362 -0.072352
C133  C     C_2   0.385847 0.909395 0.968547 -0.105587
C134  C     C_2   0.395006 0.099818 0.516967 -0.074687
C135  C     C_2   0.882636 0.374471 0.897472 0.238584
C136  C     C_2   0.882421 0.627196 0.398341 0.241309
C137  C     C_2   0.382571 0.874727 0.896937 0.237631
C138  C     C_2   0.382471 0.127068 0.398897 0.253771
C139  C     C_R   0.796847 0.305117 0.001515 -0.106327
C140  C     C_3   0.520689 0.199856 0.564710 0.038205
C141  C     C_R   0.807621 0.702835 0.541262 -0.110604
C142  C     C_R   0.296462 0.805739 0.001077 -0.106101
C143  C     C_R   0.306665 0.202928 0.530424 -0.111823
C144  C     C_R   0.808607 0.329017 0.113648 -0.066980
C145  C     C_R   0.798814 0.668105 0.554178 -0.064738
C146  C     C_R   0.308230 0.829671 0.113066 -0.067008
C147  C     C_R   0.297310 0.168250 0.539422 -0.064073
C148  C     C_R   0.790893 0.329630 0.256373 0.248905
C149  C     C_R   0.765246 0.659251 0.618294 0.217956
C150  C     C_R   0.290422 0.830431 0.255607 0.248628
C151  C     C_3   0.505939 0.806339 0.046666 0.054655
C152  C     C_R   0.262175 0.159708 0.589108 0.215038
C153  C     C_R   0.809291 0.307954 0.848860 -0.025378
C154  C     C_R   0.841749 0.712128 0.485862 -0.031998
C155  C     C_R   0.308906 0.808537 0.848378 -0.025570
C156  C     C_R   0.341248 0.212099 0.479456 -0.034549
C157  C     C_3   0.007910 0.641675 0.122252 0.395117
C158  C     C_3   0.010763 0.354491 0.575487 0.357234
C159  C     C_3   0.506889 0.141601 0.123689 0.396276
C160  C     C_3   0.510812 0.854468 0.575350 0.358020
C161  C     C_2   0.943301 0.419532 0.878179 -0.242593
C162  C     C_R   0.834080 0.333828 0.812190 0.608446
C163  C     C_2   0.938833 0.581110 0.357721 -0.250295
C164  C     C_2   0.443630 0.919403 0.878464 -0.242015
C165  C     C_2   0.437993 0.080255 0.355540 -0.256884
C166  C     C_2   0.060068 0.578905 0.326534 -0.271388
C167  C     C_2   0.060260 0.420105 0.829907 -0.274160
C168  C     C_2   0.559858 0.078951 0.326342 -0.270685
C169  C     C_2   0.560267 0.920160 0.830294 -0.274134
C170  C     C_R   0.232236 0.752534 0.231395 0.043914
C171  C     C_R   0.223851 0.244687 0.685966 0.036972
C172  C     C_R   0.732591 0.251923 0.231605 0.044014
C173  C     C_R   0.866728 0.686972 0.444505 0.611663
C174  C     C_R   0.724952 0.744537 0.699646 0.037440
C175  C     C_R   0.239097 0.726812 0.974296 -0.013667
C176  C     C_R   0.263479 0.288797 0.584770 -0.012061
C177  C     C_R   0.739361 0.226271 0.974304 -0.013593
C178  C     C_R   0.763765 0.788515 0.591130 -0.011805
C179  C     C_R   0.223992 0.726247 0.123877 0.055370
C180  C     C_R   0.230954 0.279392 0.655545 0.053050
C181  C     C_R   0.724251 0.225712 0.123888 0.055283
C182  C     C_R   0.731504 0.779172 0.664123 0.052728
C183  C     C_R   0.215832 0.751373 0.377626 -0.108798
C184  C     C_R   0.333738 0.834366 0.811608 0.608739
C185  C     C_R   0.193168 0.236416 0.771336 -0.101298
C186  C     C_R   0.716183 0.250790 0.377849 -0.108873
C187  C     C_R   0.694215 0.736529 0.785357 -0.100055
C188  C     C_R   0.191608 0.726158 0.414459 -0.056668
C189  C     C_R   0.168961 0.261060 0.814912 -0.068485
C190  C     C_R   0.691849 0.225681 0.414465 -0.056667
C191  C     C_R   0.669618 0.761199 0.824991 -0.068231
C192  C     C_R   0.183267 0.700099 0.309890 -0.004208
C193  C     C_R   0.174144 0.295147 0.775431 -0.013075
C194  C     C_R   0.683402 0.199702 0.309686 -0.003910
C195  C     C_R   0.366389 0.186856 0.440424 0.619493
C196  C     C_R   0.674464 0.795118 0.781802 -0.013170
C197  C     C_R   0.200207 0.699312 0.166526 -0.113171
C198  C     C_R   0.205225 0.304727 0.696559 -0.110502
C199  C     C_R   0.700358 0.198866 0.166361 -0.113285
C200  C     C_R   0.705503 0.804540 0.702362 -0.110350
C201  C     C_R   0.193351 0.671722 0.066953 -0.061536
C202  C     C_R   0.210433 0.339349 0.659120 -0.066859
C203  C     C_R   0.693395 0.171328 0.066642 -0.061313
C204  C     C_R   0.710370 0.839048 0.661431 -0.066640
C205  C     C_3   0.022150 0.676664 0.165001 -0.218489
C206  C     C_2   0.911893 0.363350 0.815977 0.041905
C207  C     C_3   0.024127 0.318142 0.561954 -0.199739
C208  C     C_3   0.521139 0.176604 0.166012 -0.219387
C209  C     C_3   0.524245 0.818143 0.561503 -0.199825
C210  C     C_R   0.170925 0.644658 0.119473 0.627076
C211  C     C_R   0.183319 0.363464 0.700125 0.619784
C212  C     C_R   0.670865 0.144341 0.119070 0.627261
C213  C     C_R   0.683165 0.863211 0.700904 0.620133
C214  C     C_R   0.157256 0.675625 0.346514 0.602920
C215  C     C_R   0.148264 0.319489 0.813343 0.572195
C216  C     C_R   0.657267 0.175357 0.346076 0.602959
H1    H     H_    0.850445 0.538051 0.283639 0.087221
H2    H     H_    0.092871 0.514911 0.408283 0.018984
H3    H     H_    0.411492 0.969988 0.518965 0.085616
H4    H     H_    0.830786 0.564109 0.856509 0.144032
H5    H     H_    0.851350 0.522776 0.840141 0.168960
H6    H     H_    0.802602 0.528111 0.812068 0.144496
H7    H     H_    0.818024 0.502538 0.075655 0.141279
H8    H     H_    0.798733 0.543863 0.091205 0.138178
H9    H     H_    0.806301 0.437129 0.300963 0.185671
H10   H     H_    0.784173 0.447542 0.481623 0.176805
H11   H     H_    0.779612 0.474935 0.309858 0.124533
H12   H     H_    0.823716 0.501952 0.470664 0.160885
H13   H     H_    0.594718 0.985355 0.912232 0.016834
H14   H     H_    0.850100 0.479436 0.332170 0.146116
H15   H     H_    0.292524 0.036326 0.910759 0.148129
H16   H     H_    0.297106 0.078898 0.980858 0.150464
H17   H     H_    0.304858 0.069905 0.778587 0.193635
H18   H     H_    0.364518 0.076491 0.920296 0.128430
H19   H     H_    0.357906 0.033452 0.862400 0.180906
H20   H     H_    0.304872 0.937654 0.289177 0.184273
H21   H     H_    0.283741 0.952388 0.464913 0.171918
H22   H     H_    0.282227 0.977742 0.286349 0.126599
H23   H     H_    0.329150 0.003371 0.433868 0.158232
H24   H     H_    0.592769 0.014927 0.408313 0.018905
H25   H     H_    0.353533 0.974940 0.313516 0.145149
H26   H     H_    0.187013 0.473912 0.279388 0.139892
H27   H     H_    0.140938 0.465620 0.337674 0.158321
H28   H     H_    0.176797 0.435286 0.383576 0.174287
H29   H     H_    0.136104 0.417496 0.156147 0.131930
H30   H     H_    0.182221 0.423461 0.104316 0.153218
H31   H     H_    0.144002 0.529123 0.826952 0.155269
H32   H     H_    0.185922 0.513636 0.747952 0.137863
H33   H     H_    0.185758 0.552032 0.858688 0.170862
H34   H     H_    0.186654 0.568228 0.583201 0.164988
H35   H     H_    0.089319 0.462317 0.093990 0.047715
H36   H     H_    0.142141 0.578206 0.648382 0.159780
H37   H     H_    0.687005 0.973776 0.280026 0.139832
H38   H     H_    0.640849 0.965645 0.337738 0.158188
H39   H     H_    0.676557 0.935198 0.384103 0.175019
H40   H     H_    0.635988 0.917493 0.156319 0.131965
H41   H     H_    0.682142 0.923385 0.104804 0.153497
H42   H     H_    0.644100 0.029019 0.826758 0.155271
H43   H     H_    0.685884 0.013409 0.747023 0.137783
H44   H     H_    0.685971 0.051771 0.858044 0.170740
H45   H     H_    0.686702 0.068085 0.582729 0.164961
H46   H     H_    0.090390 0.537880 0.587906 0.047833
H47   H     H_    0.642241 0.078119 0.648458 0.160133
H48   H     H_    0.930313 0.279039 0.879697 0.160792
H49   H     H_    0.903559 0.306919 0.991786 0.175467
H50   H     H_    0.883294 0.284993 0.825443 0.131851
H51   H     H_    0.903989 0.324057 0.641101 0.195068
H52   H     H_    0.947149 0.323945 0.739720 0.098193
H53   H     H_    0.865849 0.610908 0.944581 0.148198
H54   H     H_    0.828920 0.621882 0.067507 0.152522
H55   H     H_    0.841390 0.650006 0.910744 0.142486
H56   H     H_    0.864225 0.671647 0.159253 0.127155
H57   H     H_    0.589303 0.962347 0.093949 0.047605
H58   H     H_    0.901766 0.660303 0.049944 0.169980
H59   H     H_    0.429807 0.779137 0.879381 0.160980
H60   H     H_    0.403209 0.807153 0.991457 0.175645
H61   H     H_    0.382768 0.785233 0.825497 0.131531
H62   H     H_    0.403423 0.824196 0.640763 0.194748
H63   H     H_    0.446705 0.823876 0.738379 0.099055
H64   H     H_    0.325933 0.119467 0.129327 0.155770
H65   H     H_    0.321670 0.163815 0.169356 0.133526
H66   H     H_    0.325578 0.150492 0.971248 0.137714
H67   H     H_    0.384480 0.174510 0.131628 0.169231
H68   H     H_    0.590377 0.037902 0.587940 0.048129
H69   H     H_    0.387397 0.140825 0.001274 0.141304
H70   H     H_    0.063001 0.735840 0.353624 0.129969
H71   H     H_    0.063336 0.758560 0.535973 0.171699
H72   H     H_    0.103915 0.737245 0.480921 0.158551
H73   H     H_    0.074181 0.703342 0.686345 0.154884
H74   H     H_    0.073848 0.681770 0.504224 0.136402
H75   H     H_    0.082816 0.318050 0.183195 0.138453
H76   H     H_    0.061481 0.279244 0.241881 0.142861
H77   H     H_    0.097080 0.278370 0.108670 0.148966
H78   H     H_    0.043820 0.272460 0.941671 0.128580
H79   H     H_    0.142099 0.447250 0.895256 0.081755
H80   H     H_    0.054609 0.316215 0.918793 0.122501
H81   H     H_    0.563036 0.235640 0.352665 0.129895
H82   H     H_    0.563722 0.258412 0.534921 0.171633
H83   H     H_    0.604100 0.236914 0.479074 0.158926
H84   H     H_    0.574465 0.203167 0.685374 0.155250
H85   H     H_    0.573762 0.181565 0.503232 0.135745
H86   H     H_    0.582547 0.817964 0.183346 0.138967
H87   H     H_    0.560940 0.779356 0.242806 0.142456
H88   H     H_    0.596582 0.778113 0.109818 0.148055
H89   H     H_    0.543424 0.772359 0.942310 0.128305
H90   H     H_    0.140418 0.553145 0.382561 0.068193
H91   H     H_    0.554338 0.816081 0.919148 0.122479
H92   H     H_    0.095001 0.692283 0.152447 0.139489
H93   H     H_    0.086703 0.660489 0.003817 0.149172
H94   H     H_    0.095122 0.703624 0.948074 0.139832
H95   H     H_    0.028284 0.687281 0.917757 0.206885
H96   H     H_    0.037496 0.722432 0.044176 0.156113
H97   H     H_    0.075647 0.269544 0.703685 0.159245
H98   H     H_    0.064037 0.262924 0.499049 0.146677
H99   H     H_    0.108829 0.278095 0.559821 0.128252
H100  H     H_    0.075717 0.327459 0.456616 0.141891
H101  H     H_    0.642138 0.947247 0.895514 0.081556
H102  H     H_    0.077319 0.330654 0.665668 0.153963
H103  H     H_    0.594131 0.191401 0.152496 0.139309
H104  H     H_    0.585334 0.159975 0.002619 0.149457
H105  H     H_    0.594172 0.203121 0.948527 0.139974
H106  H     H_    0.527096 0.187255 0.918824 0.207126
H107  H     H_    0.536827 0.222280 0.045491 0.156330
H108  H     H_    0.575465 0.769566 0.704906 0.159104
H109  H     H_    0.564545 0.762983 0.499697 0.145415
H110  H     H_    0.609125 0.778228 0.563302 0.128566
H111  H     H_    0.576060 0.827512 0.458048 0.141241
H112  H     H_    0.839009 0.459139 0.677238 0.092692
H113  H     H_    0.640304 0.053195 0.382417 0.068049
H114  H     H_    0.577249 0.830698 0.667103 0.154148
H115  H     H_    0.166145 0.480646 0.989695 0.136700
H116  H     H_    0.164024 0.516459 0.457965 0.134272
H117  H     H_    0.666191 0.980614 0.990205 0.136730
H118  H     H_    0.663911 0.016454 0.457128 0.134077
H119  H     H_    0.007922 0.650342 0.473902 -0.129222
H120  H     H_    0.000731 0.358638 0.976883 -0.153681
H121  H     H_    0.507550 0.150376 0.475118 -0.125263
H122  H     H_    0.500559 0.858673 0.976927 -0.153652
H123  H     H_    0.008560 0.707731 0.447283 0.085221
H124  H     H_    0.333097 0.025332 0.151279 0.130590
H125  H     H_    0.988960 0.303154 0.937079 0.030863
H126  H     H_    0.508584 0.207767 0.447722 0.085277
H127  H     H_    0.488630 0.803222 0.937034 0.031146
H128  H     H_    0.041553 0.674141 0.268867 0.053783
H129  H     H_    0.013420 0.302579 0.658920 0.098263
H130  H     H_    0.540580 0.174102 0.269724 0.052704
H131  H     H_    0.513360 0.802485 0.657751 0.098903
H132  H     H_    0.861772 0.420461 0.017506 0.097347
H133  H     H_    0.884166 0.599560 0.632235 0.116521
H134  H     H_    0.361984 0.920810 0.016825 0.098814
H135  H     H_    0.336711 0.961782 0.659875 0.105905
H136  H     H_    0.384985 0.100169 0.634399 0.116019
H137  H     H_    0.116614 0.631470 0.533689 0.169590
H138  H     H_    0.114738 0.359563 0.036475 0.112611
H139  H     H_    0.616607 0.131305 0.533488 0.169698
H140  H     H_    0.614592 0.859672 0.037393 0.112639
H141  H     H_    0.179529 0.727110 0.527630 0.123845
H142  H     H_    0.145703 0.253084 0.879229 0.117533
H143  H     H_    0.679764 0.226652 0.527626 0.124043
H144  H     H_    0.646346 0.753366 0.889579 0.117119
H145  H     H_    0.220624 0.769716 0.467584 0.070769
H146  H     H_    0.859927 0.568440 0.138750 0.066008
H147  H     H_    0.187582 0.211030 0.810533 0.082391
H148  H     H_    0.721022 0.269074 0.468006 0.070696
H149  H     H_    0.688632 0.711383 0.827396 0.081255
H150  H     H_    0.754177 0.307259 0.404774 0.097967
H151  H     H_    0.715846 0.675559 0.705518 0.106084
H152  H     H_    0.253565 0.808134 0.403872 0.098012
H153  H     H_    0.211816 0.176612 0.666591 0.107380
H154  H     H_    0.805881 0.286353 0.617044 0.127206
H155  H     H_    0.876641 0.754311 0.432972 0.142215
H156  H     H_    0.305420 0.786940 0.616562 0.126893
H157  H     H_    0.860887 0.432332 0.541939 0.147367
H158  H     H_    0.376714 0.254174 0.431563 0.142240
H159  H     H_    0.242998 0.697593 0.762225 0.103863
H160  H     H_    0.291235 0.331830 0.484525 0.106464
H161  H     H_    0.743124 0.197111 0.761999 0.103850
H162  H     H_    0.790800 0.831288 0.484770 0.106390
H163  H     H_    0.107950 0.603641 0.038251 0.153538
H164  H     H_    0.118495 0.402218 0.562248 0.119077
H165  H     H_    0.607722 0.103604 0.037975 0.153641
H166  H     H_    0.618406 0.902052 0.562601 0.119630
H167  H     H_    0.766530 0.241308 0.681712 0.072209
H168  H     H_    0.356156 0.063761 0.192514 0.068493
H169  H     H_    0.834446 0.797081 0.496173 0.088171
H170  H     H_    0.266098 0.741895 0.681497 0.072202
H171  H     H_    0.334553 0.297108 0.493922 0.088122
H172  H     H_    0.965846 0.436664 0.863050 0.068403
H173  H     H_    0.968281 0.577608 0.369258 0.061428
H174  H     H_    0.466402 0.936331 0.864521 0.068861
H175  H     H_    0.467135 0.074799 0.362357 0.062293
H176  H     H_    0.034574 0.565320 0.333060 0.075446
H177  H     H_    0.033781 0.432617 0.828098 0.073357
H178  H     H_    0.534327 0.065419 0.332734 0.075406
H179  H     H_    0.359908 0.932634 0.539214 0.144218
H180  H     H_    0.533865 0.932799 0.828797 0.073401
H181  H     H_    0.026972 0.628963 0.044628 0.065061
H182  H     H_    0.027360 0.371605 0.503491 0.096834
H183  H     H_    0.525787 0.129009 0.044930 0.064891
H184  H     H_    0.527430 0.871636 0.503710 0.096493
H185  H     H_    0.006838 0.626782 0.233601 -0.083462
H186  H     H_    0.014433 0.361499 0.701245 -0.104656
H187  H     H_    0.506159 0.126629 0.234984 -0.083255
H188  H     H_    0.514420 0.861408 0.701219 -0.105219
H189  H     H_    0.998612 0.692419 0.197430 0.142658
H190  H     H_    0.094651 0.485331 0.912228 0.016776
H191  H     H_    0.013243 0.308013 0.449150 0.196742
H192  H     H_    0.497631 0.192412 0.198338 0.144492
H193  H     H_    0.513593 0.808112 0.448121 0.196324
H194  H     H_    0.910227 0.522012 0.242019 -0.029915
H195  H     H_    0.902165 0.471210 0.726849 -0.053898
H196  H     H_    0.399037 0.018490 0.266244 -0.029526
H197  H     H_    0.400914 0.970048 0.722631 -0.047922
H198  H     H_    0.907376 0.536264 0.038828 0.056856
H199  H     H_    0.911516 0.469385 0.521908 0.088290
H200  H     H_    0.414083 0.034887 0.080135 0.049794
I1    I     I_    0.954136 0.659252 0.657007 -0.318304
I2    I     I_    0.747023 0.608977 0.663277 -0.391257
I3    I     I_    0.291597 0.871572 0.410508 -0.408351
I4    I     I_    0.239692 0.110110 0.598152 -0.397731
I5    I     I_    0.201140 0.635865 0.741492 -0.440681
I6    I     I_    0.255966 0.397877 0.503453 -0.376045
I7    I     I_    0.701013 0.135553 0.740943 -0.441929
I8    I     I_    0.755067 0.897155 0.498040 -0.378182
I9    I     I_    0.949407 0.352857 0.181449 -0.318696
I10   I     I_    0.454103 0.159775 0.659478 -0.317999
I11   I     I_    0.449170 0.852992 0.181385 -0.318842
I12   I     I_    0.997609 0.738185 0.709310 -0.415087
I13   I     I_    0.984115 0.267794 0.197620 -0.460979
I14   I     I_    0.498112 0.238548 0.709026 -0.415759
I15   I     I_    0.483614 0.767900 0.197722 -0.460808
I16   I     I_    0.792005 0.370507 0.412020 -0.412532
N1    N     N_R   0.850956 0.352978 0.929532 -0.432851
N2    N     N_R   0.857096 0.653228 0.446791 -0.433176
N3    N     N_R   0.350742 0.853417 0.928984 -0.432551
N4    N     N_R   0.356975 0.153090 0.445726 -0.427564
N5    N     N_R   0.150480 0.647605 0.252255 -0.417915
N6    N     N_R   0.152226 0.353335 0.773743 -0.421715
N7    N     N_R   0.650431 0.147359 0.251855 -0.418016
N8    N     N_R   0.652113 0.853206 0.775073 -0.421694
O1    O     O_2   0.072110 0.546320 0.923350 -0.453106
O2    O     O_3   0.973930 0.356499 0.519306 -0.558811
O3    O     O_3   0.471525 0.144406 0.050886 -0.561211
O4    O     O_3   0.473991 0.856483 0.518930 -0.558638
O5    O     O_3   0.958050 0.483830 0.034350 -0.488083
O6    O     O_3   0.958050 0.516170 0.534350 -0.496155
O7    O     O_3   0.458050 0.983830 0.034350 -0.484339
O8    O     O_3   0.458050 0.016170 0.534350 -0.498652
O9    O     O_2   0.852545 0.367217 0.185178 -0.519811
O10   O     O_2   0.815370 0.613960 0.497698 -0.563410
O11   O     O_2   0.352330 0.867719 0.184588 -0.520602
O12   O     O_2   0.072110 0.453680 0.423350 -0.460549
O13   O     O_2   0.315514 0.113748 0.499403 -0.573729
O14   O     O_2   0.140139 0.680206 0.462507 -0.628337
O15   O     O_2   0.121434 0.310131 0.879472 -0.652782
O16   O     O_2   0.640101 0.180024 0.461854 -0.628642
O17   O     O_2   0.621295 0.810133 0.881792 -0.652817
O18   O     O_2   0.841518 0.338529 0.676065 -0.557883
O19   O     O_2   0.896882 0.695172 0.403120 -0.562923
O20   O     O_2   0.341071 0.839133 0.675373 -0.557890
O21   O     O_2   0.396749 0.194979 0.401444 -0.566685
O22   O     O_2   0.170609 0.618180 0.049357 -0.566872
O23   O     O_2   0.572110 0.046320 0.923350 -0.452984
O24   O     O_2   0.187554 0.393438 0.672678 -0.567394
O25   O     O_2   0.670454 0.117867 0.048907 -0.566927
O26   O     O_2   0.687307 0.893127 0.671762 -0.567674
O27   O     O_3   0.042000 0.516250 0.155330 -0.483716
O28   O     O_3   0.042000 0.483750 0.655330 -0.487775
O29   O     O_3   0.542000 0.016250 0.155330 -0.484162
O30   O     O_3   0.542000 0.983750 0.655330 -0.487611
O31   O     O_3   0.012540 0.574900 0.645500 -0.449965
O32   O     O_3   0.012540 0.425100 0.145500 -0.451020
O33   O     O_3   0.512540 0.074900 0.645500 -0.449467
O34   O     O_2   0.572110 0.953680 0.423350 -0.460646
O35   O     O_3   0.512540 0.925100 0.145500 -0.451308
O36   O     O_2   0.078736 0.595162 0.747602 -0.485380
O37   O     O_2   0.076779 0.401279 0.266406 -0.506459
O38   O     O_2   0.578717 0.095156 0.747234 -0.485260
O39   O     O_2   0.576676 0.901191 0.266645 -0.506439
O40   O     O_3   0.114228 0.508811 0.114436 -0.644026
O41   O     O_3   0.114056 0.490529 0.610344 -0.645286
O42   O     O_3   0.614240 0.008828 0.114546 -0.643973
O43   O     O_3   0.614035 0.990547 0.610280 -0.645336
O44   O     O_3   0.032082 0.644483 0.703554 -0.605050
O45   O     O_3   0.884514 0.512241 0.591702 -0.653090
O46   O     O_3   0.028577 0.355044 0.201039 -0.607428
O47   O     O_3   0.532039 0.144511 0.704137 -0.605543
O48   O     O_3   0.528365 0.855027 0.201123 -0.607398
O49   O     O_2   0.928110 0.546600 0.766510 -0.456916
O50   O     O_2   0.928110 0.453400 0.266510 -0.451968
O51   O     O_2   0.428110 0.046600 0.766510 -0.453147
O52   O     O_2   0.428110 0.953400 0.266510 -0.460462
O53   O     O_3   0.987780 0.574950 0.044470 -0.484497
O54   O     O_3   0.987780 0.425050 0.544470 -0.486290
O55   O     O_3   0.487780 0.074950 0.044470 -0.484472
O56   O     O_3   0.885319 0.489817 0.080990 -0.653206
O57   O     O_3   0.487780 0.925050 0.544470 -0.485996
O58   O     O_2   0.931541 0.603262 0.888104 -0.451571
O59   O     O_2   0.921198 0.400911 0.468693 -0.423881
O60   O     O_2   0.431547 0.102971 0.887185 -0.458349
O61   O     O_2   0.421194 0.900919 0.468759 -0.423629
O62   O     O_3   0.384373 0.012373 0.594776 -0.647851
O63   O     O_3   0.385684 0.990112 0.071954 -0.652116
O64   O     O_3   0.972761 0.644591 0.047510 -0.566550
P1    P     P_3+3 0.075650 0.535480 0.098240 0.986108
P2    P     P_3+3 0.955270 0.394190 0.581486 0.993437
P3    P     P_3+3 0.452025 0.104191 0.050111 0.992207
P4    P     P_3+3 0.455302 0.894155 0.581312 0.994370
P5    P     P_3+3 0.046692 0.393781 0.137690 0.947753
P6    P     P_3+3 0.046967 0.605553 0.629477 0.967498
P7    P     P_3+3 0.546594 0.893724 0.137853 0.947867
P8    P     P_3+3 0.546899 0.105611 0.629466 0.967174
P9    P     P_3+3 0.075650 0.464520 0.598240 0.975383
P10   P     P_3+3 0.575650 0.035480 0.098240 0.986074
P11   P     P_3+3 0.575650 0.964520 0.598240 0.975419
P12   P     P_3+3 0.924520 0.535770 0.591580 0.985809
P13   P     P_3+3 0.924520 0.464230 0.091580 1.013117
P14   P     P_3+3 0.424520 0.035770 0.591580 0.984804
P15   P     P_3+3 0.424520 0.964230 0.091580 1.012435
P16   P     P_3+3 0.952571 0.604667 0.049751 0.992112

loop_
_geom_bond_atom_site_label_1
_geom_bond_atom_site_label_2
_ccdc_geom_bond_type
C44   C149  A    
C73   H24   S    
C211  N6    Am   
C216  O16   D    
C75   H90   S    
C79   C124  D    
C132  C136  S    
C184  N3    Am   
O60   P3    D    
C37   C63   A    
C125  H94   S    
C34   C177  A    
C159  H187  S    
C1    C115  S    
O6    P12   S    
C124  C135  S    
O58   P16   D    
C56   C201  A    
Ba1   P12   S    
O27   P1    S    
C31   C141  A    
C33   C38   A    
C5    C9    S    
C184  O20   D    
O43   P11   S    
C13   C57   S    
C142  C146  A    
C7    C11   S    
O64   P16   S    
C128  H107  S    
C200  C204  A    
C38   C176  A    
C103  H45   S    
C75   C98   S    
C40   C66   S    
C81   H121  S    
Ba4   O35   S    
O7    P15   S    
Ba3   O8    S    
Ba1   O6    S    
C130  H111  S    
C131  H109  S    
O49   P12   D    
C115  H74   S    
C139  C144  A    
C97   H26   S    
C81   C140  S    
C26   C172  A    
C125  H92   S    
C5    C22   D    
Ba4   O57   S    
O57   P4    S    
C30   C139  A    
C167  H177  S    
C83   C144  A    
C11   C169  S    
C1    H123  S    
C88   H4    S    
C66   C89   S    
C108  H53   S    
C94   H25   S    
C162  O18   D    
C205  H128  S    
O3    P3    S    
C210  O22   D    
O51   P14   D    
Ba3   O51   S    
C48   H154  S    
C35   C161  S    
C55   C178  A    
C15   C19   D    
C107  H58   S    
C151  H127  S    
C3    O17   D    
C111  C114  S    
C117  H78   S    
C33   C143  A    
C209  H193  S    
O45   P12   S    
Ba2   O12   S    
C95   H20   S    
C51   C156  A    
C41   H200  S    
C201  C210  A    
C78   H119  S    
C27   C44   A    
C92   H19   S    
Ba2   P9    S    
C121  H89   S    
O63   P15   S    
C19   H165  S    
C168  H178  S    
C84   O10   D    
C204  C213  A    
O29   P10   S    
C112  H125  S    
C91   H11   S    
C42   H197  S    
C53   C176  A    
C159  O3    S    
C50   C63   A    
C89   H14   S    
C93   H17   S    
C211  O24   D    
C57   C164  S    
C99   H31   S    
C124  H132  S    
C126  C127  S    
C122  H87   S    
C105  H51   S    
Ba3   P14   S    
C136  N2    S    
C112  I13   S    
C1    C78   S    
C181  C199  A    
C162  N1    Am   
C203  C212  A    
C104  H44   S    
C65   H1    S    
C85   O11   D    
C88   H5    S    
C174  C182  A    
C43   C148  A    
O61   P4    D    
C94   C95   S    
C212  O25   D    
C127  H98   S    
O2    P2    S    
C74   H115  S    
Ba2   O50   S    
C116  H71   S    
C97   H28   S    
C71   C75   S    
C58   C202  A    
C48   C61   A    
C176  C180  A    
C126  H102  S    
C93   H15   S    
C6    C23   D    
C60   I8    S    
C123  H95   S    
O42   P10   S    
C12   C17   D    
C87   H8    S    
C41   C67   S    
C84   C145  A    
O8    P14   S    
C107  C108  S    
C108  H55   S    
C198  C202  A    
O34   P11   D    
Ba4   O52   S    
C13   C109  S    
C119  C120  S    
Ba1   O31   S    
Ba3   O55   S    
C209  H131  S    
C130  C209  S    
Ba1   O53   S    
C54   C177  A    
C28   C32   A    
C183  H145  S    
C86   N4    Am   
C57   P4    S    
C178  C182  A    
C83   O9    D    
C117  H80   S    
O55   P3    S    
O56   P13   S    
C69   H179  S    
C207  H129  S    
C114  H65   S    
C145  C149  A    
C120  H81   S    
C50   C155  A    
O47   P8    S    
O4    P4    S    
C103  C104  S    
C49   H155  S    
C133  H134  S    
C121  H91   S    
O39   P7    D    
C190  H143  S    
C128  H106  S    
C89   C91   S    
C159  H183  S    
C53   H160  S    
C2    C136  D    
C76   H101  S    
C66   H157  S    
C126  C207  S    
C157  H181  S    
Ba4   O34   S    
C143  C156  A    
C123  C205  S    
C156  C195  A    
C69   C94   S    
C213  N8    Am   
C130  H114  S    
C73   O43   S    
C26   C30   A    
C27   C174  A    
C45   H152  S    
C15   C168  D    
O62   P14   S    
C54   H161  S    
C96   H29   S    
C6    C10   S    
C216  N7    Am   
O38   P8    D    
C87   C88   S    
C106  H50   S    
C129  H105  S    
Ba4   O7    S    
C143  C147  A    
C123  C125  S    
C83   N1    Am   
C214  N5    Am   
C50   H156  S    
C170  C183  A    
C34   C61   A    
C4    C8    S    
C39   H194  S    
C77   H118  S    
C193  C198  A    
C35   P2    S    
C107  H56   S    
C2    C46   S    
C55   H162  S    
C104  H42   S    
C183  C188  A    
C110  H59   S    
C129  H104  S    
C187  H149  S    
C16   P11   S    
C18   C22   S    
C102  H39   S    
O54   P2    S    
C165  H175  S    
C118  H76   S    
Ba3   Ba4   S    
C131  H108  S    
C71   O41   S    
C17   C21   S    
C74   H79   S    
O48   P7    S    
C14   C18   D    
C92   H18   S    
C37   C175  A    
O50   P13   D    
C215  O15   D    
C144  C148  A    
C213  O26   D    
C159  C208  S    
C163  H173  S    
C130  C131  S    
C125  H93   S    
C17   H163  S    
C11   P7    S    
C135  N1    S    
C101  C164  D    
C86   O13   D    
O5    P13   S    
C68   C165  S    
C95   H22   S    
O32   P5    S    
C51   H158  S    
C120  H83   S    
Ba2   O32   S    
Ba2   P13   S    
C190  C194  A    
C41   H196  S    
C96   C97   S    
C61   H167  S    
C98   H36   S    
C98   C99   S    
C187  C191  A    
C28   C45   A    
C59   I7    S    
C101  C133  D    
C113  C165  D    
C3    N8    Am   
C9    C167  S    
C205  H189  S    
C197  C201  A    
C10   P8    S    
C192  C197  A    
C65   C87   S    
C160  H184  S    
C42   C69   S    
Ba3   O7    S    
C173  O19   D    
C195  O21   D    
C202  C211  A    
O46   P5    S    
Ba1   O5    S    
C77   C103  S    
C127  H99   S    
C62   H169  S    
C12   P1    S    
C115  H73   S    
C113  C134  D    
O52   P15   D    
C116  H70   S    
Ba3   P10   S    
C106  H48   S    
C51   C64   A    
C172  C181  A    
C23   N7    S    
C14   C167  D    
C79   C161  D    
C49   C154  A    
C21   N5    S    
C72   H57   S    
C76   C100  S    
C44   H151  S    
C188  C192  A    
C108  H54   S    
C191  C196  A    
C72   O42   S    
C158  C207  S    
C80   I9    S    
C186  H148  S    
C13   C137  D    
C100  H40   S    
C3    C196  A    
C69   H135  S    
C20   C25   S    
C81   O47   S    
C18   H164  S    
C2    C107  S    
C71   H2    S    
C76   H117  S    
C119  C140  S    
C102  H37   S    
C82   H122  S    
C140  H126  S    
C39   O56   S    
C101  P15   S    
O33   P8    S    
C70   H35   S    
Ba2   O5    S    
C88   H6    S    
C36   C62   A    
C100  C102  S    
C91   H10   S    
C4    C21   D    
C32   C37   A    
C24   C68   S    
Ba4   P11   S    
C36   C178  A    
C135  C206  D    
C191  H144  S    
C75   H116  S    
C72   C76   S    
C45   C150  A    
Ba4   O29   S    
C112  C117  S    
C40   H195  S    
C67   C92   S    
C93   H16   S    
C157  C205  S    
C29   C33   A    
C42   H3    S    
C52   C56   A    
C35   C206  S    
C98   H34   S    
C179  C197  A    
C90   C163  D    
C138  N4    S    
C82   C151  S    
C122  H88   S    
C24   C111  S    
C149  I2    S    
Ba2   O54   S    
C110  H61   S    
C172  C186  A    
C73   C77   S    
O53   P16   S    
O31   P6    S    
C157  H185  S    
C147  C152  A    
C208  H192  S    
C94   H23   S    
C56   I5    S    
C89   H12   S    
C126  H100  S    
C131  H110  S    
C127  H97   S    
C74   C96   S    
C121  C122  S    
C99   H33   S    
C27   C31   A    
C100  H41   S    
C152  I4    S    
C105  C206  S    
C97   H27   S    
C78   O44   S    
C210  N5    Am   
C109  C110  S    
C48   C153  A    
C133  C137  S    
C42   O62   S    
C87   H7    S    
C67   H168  S    
C91   H9    S    
C86   C147  A    
C170  C179  A    
C192  C214  A    
C115  C116  S    
C40   H199  S    
C29   C47   A    
C118  H77   S    
O37   P5    D    
C208  H130  S    
C105  C106  S    
C66   H112  S    
C141  C154  A    
C28   C170  A    
C119  H84   S    
Ba3   O23   S    
C58   I6    S    
C114  H66   S    
C120  H82   S    
O40   P1    S    
C185  H147  S    
C52   H159  S    
C12   C166  D    
C79   P13   S    
C63   H170  S    
C77   H113  S    
C70   C74   S    
C194  C199  A    
O1    P1    D    
C80   H120  S    
Ba1   O49   S    
C193  C215  A    
C212  N7    Am   
C141  C145  A    
C171  C180  A    
C137  N3    S    
C71   H46   S    
C164  H174  S    
C148  I16   S    
C169  H180  S    
C80   O46   S    
C65   H146  S    
C84   N2    Am   
C128  C208  S    
Ba1   O28   S    
C81   I10   S    
C53   C58   A    
C60   C204  A    
C55   C60   A    
C99   H32   S    
C154  C173  A    
C140  I14   S    
O28   P9    S    
C122  H86   S    
C105  H52   S    
C96   H30   S    
C1    I12   S    
C150  I3    S    
C68   P3    S    
C166  H176  S    
C158  O2    S    
C104  H43   S    
Ba1   Ba2   S    
Ba4   O8    S    
C160  H188  S    
C64   H171  S    
C16   C20   D    
Ba1   P1    S    
C128  C129  S    
C111  H69   S    
C157  O64   S    
C90   C132  D    
C72   H13   S    
C19   C23   S    
C25   N8    S    
C110  H60   S    
C129  H103  S    
C123  H96   S    
C161  H172  S    
C188  H141  S    
C40   O45   S    
C41   O63   S    
C38   C64   A    
O30   P11   S    
C22   N6    S    
Ba3   O30   S    
C47   H153  S    
C215  N6    Am   
C139  C153  A    
C175  C179  A    
C134  C138  S    
C47   C152  A    
C180  C198  A    
C31   C36   A    
C67   H124  S    
C39   H198  S    
C20   H166  S    
C26   C43   A    
C10   C168  S    
C177  C181  A    
C8    C166  S    
C142  C155  A    
C134  H136  S    
C160  O4    S    
C199  C203  A    
C195  N4    Am   
C59   C203  A    
C78   I1    S    
Ba1   O1    S    
C155  C184  A    
C95   H21   S    
C43   H150  S    
C90   P12   S    
C114  H64   S    
C185  C189  A    
C196  C200  A    
C158  H182  S    
C16   C169  D    
C92   C93   S    
C117  C118  S    
C182  C200  A    
Ba4   P15   S    
C49   C62   A    
C109  H63   S    
C85   N3    Am   
C32   C142  A    
C6    H139  S    
C103  H47   S    
C24   C138  D    
C73   H68   S    
C70   H190  S    
O36   P6    D    
C82   I11   S    
C54   C59   A    
C9    P5    S    
C85   C146  A    
O23   P10   D    
C70   O40   S    
C30   C34   A    
C111  H67   S    
C194  C216  A    
C5    H138  S    
C214  O14   D    
C153  C162  A    
C171  C185  A    
C106  H49   S    
C132  H133  S    
C7    H140  S    
O41   P9    S    
C160  C209  S    
C4    H137  S    
C109  H62   S    
C113  P14   S    
C119  H85   S    
C158  H186  S    
Ba2   O27   S    
Ba3   O33   S    
C82   O48   S    
O35   P7    S    
C174  C187  A    
O12   P9    D    
C8    P6    S    
C189  C193  A    
C151  I15   S    
C29   C171  A    
C46   P16   S    
C207  H191  S    
C186  C190  A    
O59   P2    D    
C121  C151  S    
C189  H142  S    
C7    C25   D    
C14   P9    S    
C80   C112  S    
C146  C150  A    
C46   C163  S    
C102  H38   S    
C116  H72   S    
O44   P6    S    
C118  H75   S    
Ba2   O6    S    
C39   C65   S    
C173  N2    Am   
C15   P10   S    
C52   C175  A    
