data_mof_unit_8467.cif
_audit_creation_date              2012-12-11T15:43:51-0500
_audit_creation_method            fapswitch 2.2
_symmetry_space_group_name_H-M    P1
_symmetry_Int_Tables_number       1
_space_group_crystal_system       triclinic
_cell_length_a                    14.462818
_cell_length_b                    16.387858
_cell_length_c                    6.922893
_cell_angle_alpha                 89.395741
_cell_angle_beta                  98.150917
_cell_angle_gamma                 90.018466
_cell_volume                      1624.1597541

loop_
_atom_site_label
_atom_site_type_symbol
_atom_type_description
_atom_site_fract_x
_atom_site_fract_y
_atom_site_fract_z
_atom_type_partial_charge
O1    O     O_R   0.831700 0.662810 0.581550 -0.540422
O2    O     O_R   0.168300 0.337190 0.418450 -0.539845
O3    O     O_R   0.168300 0.162810 0.418450 -0.537771
O4    O     O_R   0.831700 0.837190 0.581550 -0.533671
O5    O     O_R   0.842890 0.834390 0.255500 -0.567768
O6    O     O_R   0.157110 0.165610 0.744500 -0.572237
O7    O     O_R   0.157110 0.334390 0.744500 -0.553263
O8    O     O_R   0.842890 0.665610 0.255500 -0.569478
O9    O     O_R   0.661690 0.835580 0.024130 -0.504081
O10   O     O_R   0.338310 0.164420 0.975870 -0.513960
O11   O     O_R   0.338310 0.335580 0.975870 -0.493588
O12   O     O_R   0.661690 0.664420 0.024130 -0.522047
C1    C     C_R   0.864654 0.865415 0.429853 0.745607
C2    C     C_R   0.135373 0.134569 0.570164 0.709467
C3    C     C_R   0.133366 0.363853 0.568117 0.807554
C4    C     C_R   0.864718 0.634732 0.430977 0.710875
C5    C     C_R   0.067275 0.064526 0.537161 -0.188165
C6    C     C_R   0.932785 0.935439 0.462902 -0.194024
C7    C     C_R   0.932798 0.564744 0.465043 -0.185757
C8    C     C_R   0.065599 0.434099 0.534764 -0.186030
H1    H     H_    0.019325 0.894199 0.255138 0.148538
H2    H     H_    0.980756 0.105760 0.744945 0.146584
H3    H     H_    0.979975 0.391611 0.745151 0.144146
H4    H     H_    0.018887 0.607603 0.255885 0.149644
C9    C     C_R   0.009324 0.941140 0.359113 -0.338265
C10   C     C_R   0.990751 0.058817 0.640973 -0.338502
C11   C     C_R   0.989862 0.439361 0.640754 -0.348493
C12   C     C_R   0.008815 0.559702 0.359764 -0.340990
O13   O     O_3   0.687240 0.750000 0.366320 -0.292620
O14   O     O_3   0.312760 0.250000 0.633680 -0.276113
V1    V     V_3+5 0.757720 0.750000 0.115230 1.549027
V2    V     V_3+5 0.242280 0.250000 0.884770 1.585522
O15   O     O_R   0.650500 0.664000 0.690740 -0.519652
O16   O     O_R   0.349500 0.336000 0.309260 -0.496609
O17   O     O_R   0.349500 0.164000 0.309260 -0.505738
O18   O     O_R   0.650500 0.836000 0.690740 -0.503112
C13   C     C_R   0.628608 0.636671 0.856149 0.821970
C14   C     C_R   0.369657 0.365402 0.142384 0.820350
C15   C     C_R   0.378269 0.142759 0.147033 0.787574
C16   C     C_R   0.624773 0.860888 0.854776 0.851024
C17   C     C_R   0.075626 0.005105 0.392897 0.491504
C18   C     C_R   0.924466 0.994839 0.607244 0.501671
C19   C     C_R   0.924408 0.504179 0.609271 0.493088
C20   C     C_R   0.074474 0.495070 0.391817 0.516549
V3    V     V_3+5 0.735670 0.750000 0.607790 1.686760
V4    V     V_3+5 0.264330 0.250000 0.392210 1.727317
O19   O     O_3   0.806150 0.750000 0.906560 -0.422311
O20   O     O_3   0.193850 0.250000 0.093440 -0.428161
C21   C     C_2   0.558018 0.929839 0.851562 -0.349620
C22   C     C_2   0.452272 0.080345 0.158741 -0.250852
C23   C     C_2   0.433997 0.436217 0.136488 -0.306999
C24   C     C_2   0.569348 0.563879 0.859496 -0.326362
C25   C     C_2   0.526252 0.963190 0.011267 0.321513
C26   C     C_2   0.488850 0.049551 0.003790 0.235541
C27   C     C_2   0.448357 0.478367 0.970341 0.276879
C28   C     C_2   0.505260 0.552726 0.983708 0.269723
H5    H     H_    0.471498 0.054828 0.303014 0.218727
H6    H     H_    0.541471 0.958721 0.710469 0.191179
H7    H     H_    0.582141 0.515115 0.761384 0.163846
H8    H     H_    0.470396 0.456545 0.275651 0.194621
O21   O     O_3   0.154495 0.004823 0.300332 -0.541752
C29   C     C_3   0.128608 0.021177 0.099530 -0.139076
H9    H     H_    0.193004 0.031434 0.032644 0.158895
H10   H     H_    0.085405 0.077547 0.074118 0.101644
H11   H     H_    0.091585 0.968445 0.024432 0.112331
O22   O     O_3   0.845647 0.995085 0.699972 -0.531474
C30   C     C_3   0.871633 0.978785 0.900774 -0.126919
H12   H     H_    0.914761 0.922372 0.926147 0.097573
H13   H     H_    0.807285 0.968647 0.967890 0.161106
H14   H     H_    0.908771 0.031497 0.975713 0.109896
O23   O     O_3   0.846249 0.503727 0.704015 -0.551145
C31   C     C_3   0.873435 0.519453 0.903883 -0.183758
H15   H     H_    0.809635 0.529043 0.972807 0.147173
H16   H     H_    0.916157 0.576017 0.926151 0.117519
H17   H     H_    0.911429 0.466646 0.979484 0.118625
O24   O     O_3   0.153469 0.496291 0.299847 -0.522444
C32   C     C_3   0.127804 0.481546 0.099187 -0.140552
H18   H     H_    0.084806 0.425270 0.073691 0.093026
H19   H     H_    0.192316 0.471908 0.033235 0.184400
H20   H     H_    0.090909 0.534886 0.023648 0.110870
S1    S     S_3+6 0.496410 0.112731 0.795373 0.033859
O25   O     O_2   0.495678 0.201550 0.847365 -0.286673
O26   O     O_2   0.584054 0.096824 0.708100 -0.311690
O27   O     O_3   0.402555 0.091196 0.632794 -0.485029
H21   H     H_    0.395193 0.031194 0.638001 0.304800
S2    S     S_3+6 0.519479 0.905277 0.229862 0.027336
O28   O     O_2   0.525991 0.815573 0.201305 -0.236242
O29   O     O_2   0.598506 0.932664 0.379269 -0.347845
O30   O     O_3   0.416955 0.921148 0.312491 -0.516532
H22   H     H_    0.423029 0.892627 0.440534 0.361009
S3    S     S_3+6 0.459840 0.634167 0.105199 0.081457
O31   O     O_2   0.526044 0.653877 0.285697 -0.264441
O32   O     O_2   0.447204 0.706657 0.969295 -0.314420
O33   O     O_3   0.355626 0.609216 0.170527 -0.457456
H23   H     H_    0.312570 0.605344 0.046205 0.343499
S4    S     S_3+6 0.389680 0.460688 0.731716 0.016531
O34   O     O_2   0.424448 0.381428 0.663211 -0.285653
O35   O     O_2   0.286442 0.457420 0.734526 -0.371461
O36   O     O_3   0.410548 0.535055 0.574134 -0.467549
H24   H     H_    0.375853 0.583201 0.611293 0.380267

loop_
_geom_bond_atom_site_label_1
_geom_bond_atom_site_label_2
_ccdc_geom_bond_type
O6    V2    S    
C27   C28   S    
O15   V3    S    
C17   O21   S    
S1    O25   D    
C32   H18   S    
O2    V4    S    
C22   C26   D    
C1    C6    S    
C5    C10   A    
O8    V1    S    
C6    C18   A    
S2    O29   D    
S3    O32   D    
C16   C21   S    
S4    O36   S    
O12   C13   A    
O4    C1    A    
C20   O24   S    
C29   H10   S    
C8    C20   A    
C28   S3    S    
S4    O35   D    
C25   S2    S    
O16   V4    S    
H3    C11   S    
O5    C1    A    
C32   H19   S    
O22   C30   S    
O8    C4    A    
V1    O19   S    
V2    O20   S    
C2    C5    S    
O21   C29   S    
C6    C9    A    
C31   H17   S    
S1    O26   D    
C7    C19   A    
O4    V3    S    
V3    O19   S    
C3    C8    S    
V4    O20   S    
C30   H12   S    
O18   C16   A    
O24   C32   S    
C31   H16   S    
C9    C17   A    
S3    O31   D    
C13   C24   S    
S2    O28   D    
C27   S4    S    
C14   C23   S    
C25   C26   S    
C12   C20   A    
O9    C16   A    
O15   C13   A    
C21   H6    S    
O13   V3    S    
O10   C15   A    
C30   H13   S    
O11   C14   A    
O17   C15   A    
C29   H9    S    
O2    C3    A    
C24   H7    S    
O10   V2    S    
O6    C2    A    
O36   H24   S    
S4    O34   D    
O18   V3    S    
O1    C4    A    
O27   H21   S    
C7    C12   A    
O3    C2    A    
O11   V2    S    
O12   V1    S    
S1    O27   S    
C10   C18   A    
C32   H20   S    
H1    C9    S    
C19   O23   S    
O7    V2    S    
C29   H11   S    
O16   C14   A    
C22   H5    S    
O14   V4    S    
H4    C12   S    
C31   H15   S    
S2    O30   S    
C8    C11   A    
O3    V4    S    
C30   H14   S    
O23   C31   S    
O13   V1    S    
S3    O33   S    
O14   V2    S    
O1    V3    S    
C4    C7    S    
C21   C25   D    
O7    C3    A    
C23   C27   D    
O33   H23   S    
C5    C17   A    
O9    V1    S    
C11   C19   A    
C15   C22   S    
H2    C10   S    
C18   O22   S    
C23   H8    S    
O30   H22   S    
O17   V4    S    
C26   S1    S    
C24   C28   D    
O5    V1    S    
