data_mof_unit_30562.cif
_audit_creation_date              2012-12-10T16:37:57-0500
_audit_creation_method            fapswitch 2.2
_symmetry_space_group_name_H-M    P1
_symmetry_Int_Tables_number       1
_space_group_crystal_system       triclinic
_cell_length_a                    28.153551
_cell_length_b                    18.369396
_cell_length_c                    16.991332
_cell_angle_alpha                 89.770282
_cell_angle_beta                  61.521304
_cell_angle_gamma                 89.259119
_cell_volume                      7723.31965084

loop_
_atom_site_label
_atom_site_type_symbol
_atom_type_description
_atom_site_fract_x
_atom_site_fract_y
_atom_site_fract_z
_atom_type_partial_charge
C1    C     C_R   0.708657 0.281241 0.670325 0.899924
C2    C     C_R   0.296487 0.726568 0.324351 0.889719
C3    C     C_R   0.290887 0.281846 0.330198 0.897741
C4    C     C_R   0.703967 0.726174 0.675233 0.882618
C5    C     C_R   0.208657 0.781241 0.670325 0.899924
C6    C     C_R   0.796487 0.226568 0.324351 0.889719
C7    C     C_R   0.790887 0.781846 0.330198 0.897741
C8    C     C_R   0.203967 0.226174 0.675233 0.882618
C9    C     C_R   0.907301 0.503003 0.476609 0.064787
C10   C     C_R   0.093189 0.497117 0.521856 0.068182
C11   C     C_R   0.407301 0.003003 0.476610 0.064787
C12   C     C_R   0.593189 0.997117 0.521856 0.068182
C13   C     C_R   0.070860 0.375350 0.584275 -0.219258
C14   C     C_R   0.929432 0.624860 0.414624 -0.208728
C15   C     C_R   0.882607 0.385686 0.548880 -0.214696
C16   C     C_R   0.117887 0.614657 0.449745 -0.213262
C17   C     C_R   0.570860 0.875350 0.584275 -0.219258
C18   C     C_R   0.429432 0.124860 0.414624 -0.208727
C19   C     C_R   0.382607 0.885686 0.548880 -0.214696
C20   C     C_R   0.617887 0.114657 0.449745 -0.213262
C21   C     C_R   0.723446 0.265612 0.950026 0.015558
C22   C     C_R   0.281918 0.727712 0.042236 0.020886
C23   C     C_R   0.276095 0.268599 0.050590 0.017807
C24   C     C_R   0.718833 0.727688 0.957533 0.023473
C25   C     C_R   0.223446 0.765612 0.950026 0.015558
C26   C     C_R   0.781918 0.227712 0.042236 0.020886
C27   C     C_R   0.776095 0.768599 0.050590 0.017807
C28   C     C_R   0.218833 0.227688 0.957533 0.023473
C29   C     C_R   0.779083 0.245552 0.901894 0.079335
C30   C     C_R   0.225704 0.743981 0.091002 0.054969
C31   C     C_R   0.220713 0.248871 0.098681 0.074423
C32   C     C_R   0.774681 0.744618 0.908912 0.047879
C33   C     C_R   0.279083 0.745552 0.901894 0.079335
C34   C     C_R   0.725704 0.243981 0.091002 0.054969
C35   C     C_R   0.720713 0.748871 0.098681 0.074423
C36   C     C_R   0.274681 0.244618 0.908912 0.047879
C37   C     C_R   0.807674 0.221786 0.947672 0.027268
C38   C     C_R   0.196483 0.767663 0.045212 -0.052505
C39   C     C_R   0.192973 0.223196 0.052403 0.027558
C40   C     C_R   0.803218 0.769404 0.955196 -0.049684
C41   C     C_R   0.307674 0.721786 0.947672 0.027268
C42   C     C_R   0.696483 0.267663 0.045212 -0.052506
C43   C     C_R   0.692973 0.723196 0.052403 0.027558
C44   C     C_R   0.303218 0.269404 0.955196 -0.049684
C45   C     C_R   0.642402 0.314864 0.945977 0.008944
C46   C     C_R   0.366219 0.690611 0.042276 0.063639
C47   C     C_R   0.356765 0.317370 0.054673 0.015061
C48   C     C_R   0.635643 0.687454 0.956746 0.062508
C49   C     C_R   0.142402 0.814864 0.945977 0.008944
C50   C     C_R   0.866219 0.190611 0.042276 0.063639
C51   C     C_R   0.856765 0.817370 0.054673 0.015061
C52   C     C_R   0.135643 0.187454 0.956746 0.062508
C53   C     C_R   0.620704 0.351214 0.894396 -0.173745
C54   C     C_R   0.392949 0.667917 0.091250 -0.225148
C55   C     C_R   0.378724 0.352563 0.106178 -0.179461
C56   C     C_R   0.609153 0.664936 0.907267 -0.216818
C57   C     C_R   0.120704 0.851214 0.894396 -0.173746
C58   C     C_R   0.892949 0.167917 0.091250 -0.225147
C59   C     C_R   0.878725 0.852563 0.106178 -0.179461
C60   C     C_R   0.109153 0.164936 0.907267 -0.216818
C61   C     C_R   0.649842 0.351509 0.801052 -0.141168
C62   C     C_R   0.373902 0.691932 0.178468 -0.082030
C63   C     C_R   0.349767 0.352234 0.199653 -0.145034
C64   C     C_R   0.627716 0.689808 0.820553 -0.073245
C65   C     C_R   0.149842 0.851509 0.801052 -0.141168
C66   C     C_R   0.873902 0.191932 0.178468 -0.082032
C67   C     C_R   0.849768 0.852234 0.199653 -0.145034
C68   C     C_R   0.127716 0.189808 0.820553 -0.073246
C69   C     C_R   0.693520 0.305802 0.760668 -0.148575
C70   C     C_R   0.319047 0.711048 0.228098 -0.160191
C71   C     C_R   0.305655 0.308142 0.240202 -0.143955
C72   C     C_R   0.682119 0.709631 0.771228 -0.161127
C73   C     C_R   0.193520 0.805801 0.760668 -0.148575
C74   C     C_R   0.819047 0.211048 0.228097 -0.160191
C75   C     C_R   0.805655 0.808142 0.240202 -0.143955
C76   C     C_R   0.182119 0.209631 0.771228 -0.161126
C77   C     C_R   0.722350 0.285897 0.807333 0.073999
C78   C     C_R   0.286586 0.715371 0.183441 0.062625
C79   C     C_R   0.276703 0.290237 0.193571 0.064719
C80   C     C_R   0.714648 0.713724 0.815817 0.055430
C81   C     C_R   0.222350 0.785897 0.807333 0.073999
C82   C     C_R   0.786586 0.215371 0.183441 0.062626
C83   C     C_R   0.776703 0.790237 0.193571 0.064718
C84   C     C_R   0.214648 0.213725 0.815817 0.055429
C85   C     C_R   0.694916 0.127417 0.523401 0.934174
C86   C     C_R   0.305183 0.872610 0.476277 0.914011
C87   C     C_R   0.309630 0.130165 0.461067 0.924553
C88   C     C_R   0.690420 0.869912 0.538678 0.901917
C89   C     C_R   0.194916 0.627417 0.523401 0.934174
C90   C     C_R   0.805183 0.372610 0.476277 0.914011
C91   C     C_R   0.809630 0.630165 0.461067 0.924553
C92   C     C_R   0.190420 0.369912 0.538678 0.901917
C93   C     C_R   0.695873 0.288173 0.901523 0.081181
C94   C     C_R   0.311825 0.712750 0.089084 0.080853
C95   C     C_R   0.303362 0.291535 0.099223 0.080013
C96   C     C_R   0.689433 0.711008 0.910295 0.078716
C97   C     C_R   0.195873 0.788173 0.901523 0.081181
C98   C     C_R   0.811825 0.212750 0.089084 0.080853
C99   C     C_R   0.803362 0.791535 0.099223 0.080013
C100  C     C_R   0.189433 0.211008 0.910295 0.078716
C101  C     C_R   0.615024 0.311603 0.039906 -0.161291
C102  C     C_R   0.391064 0.685291 0.948824 -0.258916
C103  C     C_R   0.383941 0.313848 0.960696 -0.160800
C104  C     C_R   0.611088 0.682410 0.050316 -0.258819
C105  C     C_R   0.115024 0.811603 0.039906 -0.161290
C106  C     C_R   0.891064 0.185291 0.948824 -0.258916
C107  C     C_R   0.883941 0.813848 0.960696 -0.160800
C108  C     C_R   0.111088 0.182410 0.050316 -0.258819
C109  C     C_R   0.642234 0.296092 0.089312 -0.006849
C110  C     C_R   0.361259 0.691813 0.903156 -0.027831
C111  C     C_R   0.356993 0.297689 0.911289 -0.018232
C112  C     C_R   0.640316 0.692091 0.096619 -0.032655
C113  C     C_R   0.142234 0.796092 0.089312 -0.006849
C114  C     C_R   0.861259 0.191813 0.903156 -0.027831
C115  C     C_R   0.856993 0.797689 0.911289 -0.018232
C116  C     C_R   0.140316 0.192091 0.096619 -0.032655
C117  C     C_R   0.778062 0.272513 0.762607 -0.155904
C118  C     C_R   0.229866 0.717971 0.228850 -0.156583
C119  C     C_R   0.220781 0.279579 0.238475 -0.147262
C120  C     C_R   0.771428 0.716488 0.770326 -0.146166
C121  C     C_R   0.278062 0.772513 0.762607 -0.155903
C122  C     C_R   0.729866 0.217971 0.228850 -0.156584
C123  C     C_R   0.720781 0.779578 0.238475 -0.147261
C124  C     C_R   0.271428 0.216488 0.770326 -0.146166
C125  C     C_R   0.805995 0.257311 0.809070 -0.133029
C126  C     C_R   0.200249 0.729175 0.183457 -0.238011
C127  C     C_R   0.193266 0.262705 0.191644 -0.132024
C128  C     C_R   0.800612 0.729189 0.816150 -0.234582
C129  C     C_R   0.305995 0.757311 0.809070 -0.133029
C130  C     C_R   0.700250 0.229175 0.183457 -0.238011
C131  C     C_R   0.693266 0.762705 0.191643 -0.132024
C132  C     C_R   0.300612 0.229189 0.816150 -0.234581
C133  C     C_R   0.069780 0.105161 0.938371 0.888054
C134  C     C_R   0.925853 0.899646 0.065962 0.885664
C135  C     C_R   0.931622 0.106478 0.060234 0.887893
C136  C     C_R   0.073806 0.899118 0.934524 0.889271
C137  C     C_R   0.569780 0.605161 0.938371 0.888055
C138  C     C_R   0.425853 0.399646 0.065962 0.885663
C139  C     C_R   0.431622 0.606478 0.060234 0.887894
C140  C     C_R   0.573806 0.399118 0.934524 0.889271
C141  C     C_R   0.571762 0.117014 0.438949 0.101428
C142  C     C_R   0.428864 0.883086 0.559200 0.109474
C143  C     C_R   0.477018 0.122541 0.422013 0.088829
C144  C     C_R   0.523437 0.877566 0.576480 0.109618
C145  C     C_R   0.071762 0.617014 0.438949 0.101428
C146  C     C_R   0.928864 0.383086 0.559200 0.109474
C147  C     C_R   0.977018 0.622541 0.422013 0.088829
C148  C     C_R   0.023437 0.377566 0.576480 0.109618
C149  C     C_R   0.560613 0.177450 0.399174 -0.190192
C150  C     C_R   0.440056 0.822525 0.598681 -0.210900
C151  C     C_R   0.513420 0.180383 0.391293 -0.171567
C152  C     C_R   0.487077 0.819656 0.607032 -0.201394
C153  C     C_R   0.060613 0.677450 0.399174 -0.190193
C154  C     C_R   0.940056 0.322525 0.598681 -0.210900
C155  C     C_R   0.013420 0.680383 0.391293 -0.171567
C156  C     C_R   0.987077 0.319656 0.607032 -0.201394
C157  C     C_R   0.488598 0.061267 0.460583 0.029529
C158  C     C_R   0.511984 0.938793 0.537639 0.025338
C159  C     C_R   0.535647 0.058954 0.470133 0.032695
C160  C     C_R   0.464980 0.941105 0.528006 0.029111
C161  C     C_R   0.988598 0.561267 0.460583 0.029529
C162  C     C_R   0.011984 0.438793 0.537639 0.025338
C163  C     C_R   0.035647 0.558954 0.470133 0.032695
C164  C     C_R   0.964980 0.441105 0.528006 0.029111
C165  C     C_R   0.953476 0.501994 0.488853 -0.037421
C166  C     C_R   0.047111 0.498080 0.509376 -0.038066
C167  C     C_R   0.453476 0.001994 0.488853 -0.037421
C168  C     C_R   0.547111 0.998080 0.509376 -0.038066
C169  C     C_R   0.873629 0.442069 0.500177 0.015096
C170  C     C_R   0.126813 0.558121 0.498515 0.018907
C171  C     C_R   0.106563 0.434631 0.555861 0.024279
C172  C     C_R   0.893762 0.565528 0.442963 0.025851
C173  C     C_R   0.373629 0.942069 0.500177 0.015096
C174  C     C_R   0.626813 0.058121 0.498515 0.018907
C175  C     C_R   0.606563 0.934631 0.555861 0.024279
C176  C     C_R   0.393762 0.065528 0.442963 0.025851
C177  C     C_R   0.833950 0.439030 0.470287 -0.152472
C178  C     C_R   0.166269 0.561077 0.528937 -0.161688
C179  C     C_R   0.155168 0.434464 0.561817 -0.176724
C180  C     C_R   0.844994 0.565679 0.437436 -0.180381
C181  C     C_R   0.333950 0.939030 0.470287 -0.152472
C182  C     C_R   0.666269 0.061077 0.528937 -0.161688
C183  C     C_R   0.655168 0.934464 0.561817 -0.176724
C184  C     C_R   0.344994 0.065679 0.437436 -0.180381
C185  C     C_R   0.823663 0.500124 0.431234 0.095855
C186  C     C_R   0.176440 0.499982 0.568144 0.101017
C187  C     C_R   0.323663 0.000124 0.431234 0.095855
C188  C     C_R   0.676440 0.999982 0.568144 0.101017
H1    H     H_    0.995060 0.272102 0.637055 0.147622
H2    H     H_    0.005291 0.727925 0.361508 0.192236
H3    H     H_    0.913109 0.276585 0.621028 0.142285
H4    H     H_    0.087757 0.723223 0.376094 0.146950
H5    H     H_    0.495060 0.772102 0.637055 0.147622
H6    H     H_    0.505291 0.227925 0.361508 0.192236
H7    H     H_    0.413109 0.776585 0.621028 0.142286
H8    H     H_    0.587757 0.223223 0.376094 0.146950
H9    H     H_    0.078415 0.328825 0.616316 0.167310
H10   H     H_    0.921712 0.671506 0.382969 0.168432
H11   H     H_    0.854159 0.343254 0.580093 0.159283
H12   H     H_    0.146063 0.657662 0.419150 0.159280
H13   H     H_    0.578415 0.828825 0.616316 0.167310
H14   H     H_    0.421712 0.171506 0.382969 0.168432
H15   H     H_    0.354159 0.843254 0.580093 0.159283
H16   H     H_    0.646063 0.157662 0.419150 0.159280
H17   H     H_    0.572700 0.326199 0.076549 0.198511
H18   H     H_    0.433575 0.671239 0.910682 0.152423
H19   H     H_    0.426024 0.328121 0.923805 0.200635
H20   H     H_    0.569037 0.667721 0.088698 0.156529
H21   H     H_    0.072700 0.826200 0.076549 0.198510
H22   H     H_    0.933575 0.171240 0.910682 0.152423
H23   H     H_    0.926024 0.828121 0.923805 0.200635
H24   H     H_    0.069037 0.167721 0.088698 0.156529
H25   H     H_    0.801716 0.279134 0.691709 0.148294
H26   H     H_    0.207354 0.707800 0.299240 0.153937
H27   H     H_    0.196960 0.289786 0.309587 0.169599
H28   H     H_    0.794461 0.705004 0.699537 0.178961
H29   H     H_    0.301716 0.779134 0.691709 0.148294
H30   H     H_    0.707354 0.207800 0.299240 0.153937
H31   H     H_    0.696960 0.789786 0.309587 0.169599
H32   H     H_    0.294461 0.205004 0.699537 0.178961
H33   H     H_    0.849387 0.257595 0.770893 0.133264
H34   H     H_    0.157130 0.723184 0.221851 0.146374
H35   H     H_    0.149748 0.263292 0.229629 0.142195
H36   H     H_    0.843919 0.723730 0.777582 0.159373
H37   H     H_    0.349387 0.757595 0.770893 0.133264
H38   H     H_    0.657130 0.223184 0.221851 0.146374
H39   H     H_    0.649748 0.763292 0.229629 0.142195
H40   H     H_    0.343919 0.223729 0.777582 0.159373
O1    O     O_R   0.746490 0.236330 0.638080 -0.631615
O2    O     O_R   0.253510 0.763670 0.361920 -0.645907
O3    O     O_R   0.253510 0.236330 0.361920 -0.626081
O4    O     O_R   0.746490 0.763670 0.638080 -0.639580
O5    O     O_R   0.246490 0.736330 0.638080 -0.631615
O6    O     O_R   0.753510 0.263670 0.361920 -0.645907
O7    O     O_R   0.753510 0.736330 0.361920 -0.626081
O8    O     O_R   0.246490 0.263670 0.638080 -0.639580
O9    O     O_R   0.674170 0.186160 0.516270 -0.650628
O10   O     O_R   0.325830 0.813840 0.483730 -0.660868
O11   O     O_R   0.325830 0.186160 0.483730 -0.649309
O12   O     O_R   0.674170 0.813840 0.516270 -0.655260
O13   O     O_R   0.174170 0.686160 0.516270 -0.650628
O14   O     O_R   0.825830 0.313840 0.483730 -0.660868
O15   O     O_R   0.825830 0.686160 0.483730 -0.649309
O16   O     O_R   0.174170 0.313840 0.516270 -0.655260
O17   O     O_R   0.739960 0.127620 0.525000 -0.574879
O18   O     O_R   0.260040 0.872380 0.475000 -0.581790
O19   O     O_R   0.260040 0.127620 0.475000 -0.569857
O20   O     O_R   0.739960 0.872380 0.525000 -0.575818
O21   O     O_R   0.239960 0.627620 0.525000 -0.574879
O22   O     O_R   0.760040 0.372380 0.475000 -0.581790
O23   O     O_R   0.760040 0.627620 0.475000 -0.569858
O24   O     O_R   0.239960 0.372380 0.525000 -0.575818
O25   O     O_R   0.680700 0.294870 0.629350 -0.626862
O26   O     O_R   0.319300 0.705130 0.370650 -0.563089
O27   O     O_R   0.319300 0.294870 0.370650 -0.640717
O28   O     O_R   0.680700 0.705130 0.629350 -0.569879
O29   O     O_R   0.180700 0.794870 0.629350 -0.626862
O30   O     O_R   0.819300 0.205130 0.370650 -0.563090
O31   O     O_R   0.819300 0.794870 0.370650 -0.640716
O32   O     O_R   0.180700 0.205130 0.629350 -0.569877
O33   O     O_R   0.062020 0.072840 0.007170 -0.621915
O34   O     O_R   0.937980 0.927160 0.992830 -0.609068
O35   O     O_R   0.937980 0.072840 0.992830 -0.615688
O36   O     O_R   0.062020 0.927160 0.007170 -0.609118
O37   O     O_R   0.562020 0.572840 0.007170 -0.621915
O38   O     O_R   0.437980 0.427160 0.992830 -0.609068
O39   O     O_R   0.437980 0.572840 0.992830 -0.615689
O40   O     O_R   0.562020 0.427160 0.007170 -0.609118
O41   O     O_R   0.947860 0.073950 0.109290 -0.567968
O42   O     O_R   0.052140 0.926050 0.890710 -0.634929
O43   O     O_R   0.052140 0.073950 0.890710 -0.568730
O44   O     O_R   0.947860 0.926050 0.109290 -0.634817
O45   O     O_R   0.447860 0.573950 0.109290 -0.567969
O46   O     O_R   0.552140 0.426050 0.890710 -0.634929
O47   O     O_R   0.552140 0.573950 0.890710 -0.568729
O48   O     O_R   0.447860 0.426050 0.109290 -0.634817
Zn1   Zn    Zn3+2 0.792340 0.208750 0.507670 1.053980
Zn2   Zn    Zn3+2 0.207660 0.791250 0.492330 1.011783
Zn3   Zn    Zn3+2 0.207660 0.208750 0.492330 1.053220
Zn4   Zn    Zn3+2 0.792340 0.791250 0.507670 1.005984
Zn5   Zn    Zn3+2 0.292340 0.708750 0.507670 1.053980
Zn6   Zn    Zn3+2 0.707660 0.291250 0.492330 1.011783
Zn7   Zn    Zn3+2 0.707660 0.708750 0.492330 1.053219
Zn8   Zn    Zn3+2 0.292340 0.291250 0.507670 1.005984
Zn9   Zn    Zn3+2 0.505960 0.500000 0.080520 1.020803
Zn10  Zn    Zn3+2 0.494040 0.500000 0.919480 1.020728
Zn11  Zn    Zn3+2 0.005960 0.000000 0.080520 1.020803
Zn12  Zn    Zn3+2 0.994040 0.000000 0.919480 1.020728
I1    I     I_    0.784864 0.496249 0.348511 -0.270249
I2    I     I_    0.214836 0.503780 0.651501 -0.267985
I3    I     I_    0.284864 0.996249 0.348511 -0.270249
I4    I     I_    0.714836 0.003780 0.651501 -0.267984
C189  C     C_2   0.641372 0.406598 0.743799 0.527302
H41   H     H_    0.606261 0.404132 0.733414 0.096065
O49   O     O_2   0.675067 0.453414 0.705486 -0.560613
C190  C     C_2   0.413021 0.699541 0.213307 0.454328
H42   H     H_    0.440774 0.744777 0.191111 0.014827
O50   O     O_2   0.416087 0.653897 0.263212 -0.517602
C191  C     C_2   0.359302 0.405050 0.257104 0.536212
H43   H     H_    0.395086 0.400329 0.265514 0.088863
O51   O     O_2   0.325769 0.452517 0.297842 -0.556483
C192  C     C_2   0.588320 0.698831 0.786192 0.437087
H44   H     H_    0.561229 0.745711 0.806973 0.006292
O52   O     O_2   0.584727 0.653017 0.737456 -0.520990
C193  C     C_2   0.141372 0.906598 0.743799 0.527302
H45   H     H_    0.106261 0.904132 0.733414 0.096065
O53   O     O_2   0.175067 0.953414 0.705486 -0.560613
C194  C     C_2   0.913020 0.199540 0.213307 0.454329
H46   H     H_    0.940774 0.244777 0.191112 0.014826
O54   O     O_2   0.916087 0.153896 0.263212 -0.517602
C195  C     C_2   0.859302 0.905050 0.257104 0.536212
H47   H     H_    0.895086 0.900329 0.265514 0.088863
O55   O     O_2   0.825769 0.952517 0.297842 -0.556483
C196  C     C_2   0.088320 0.198830 0.786192 0.437089
H48   H     H_    0.061228 0.245709 0.806974 0.006291
O56   O     O_2   0.084727 0.153017 0.737455 -0.520989
C197  C     C_2   0.615776 0.324491 0.182586 0.367803
H49   H     H_    0.639976 0.345590 0.211257 0.097182
O57   O     O_2   0.566609 0.326564 0.227666 -0.598069
C198  C     C_2   0.385113 0.653350 0.815651 0.381601
H50   H     H_    0.428618 0.652291 0.772890 0.061824
O58   O     O_2   0.356792 0.618769 0.793130 -0.536329
C199  C     C_2   0.383192 0.324896 0.817708 0.388089
H51   H     H_    0.358764 0.346420 0.789058 0.094262
O59   O     O_2   0.432343 0.325189 0.772235 -0.566461
C200  C     C_2   0.617083 0.655961 0.185320 0.387259
H52   H     H_    0.573570 0.654626 0.227655 0.070379
O60   O     O_2   0.646018 0.623311 0.209318 -0.534202
C201  C     C_2   0.115776 0.824491 0.182586 0.367803
H53   H     H_    0.139976 0.845590 0.211257 0.097183
O61   O     O_2   0.066609 0.826564 0.227666 -0.598069
C202  C     C_2   0.885113 0.153350 0.815651 0.381602
H54   H     H_    0.928618 0.152291 0.772890 0.061824
O62   O     O_2   0.856792 0.118769 0.793130 -0.536329
C203  C     C_2   0.883192 0.824897 0.817708 0.388090
H55   H     H_    0.858764 0.846420 0.789058 0.094262
O63   O     O_2   0.932343 0.825190 0.772235 -0.566461
C204  C     C_2   0.117083 0.155961 0.185320 0.387260
H56   H     H_    0.073570 0.154626 0.227655 0.070379
O64   O     O_2   0.146018 0.123311 0.209318 -0.534203

loop_
_geom_bond_atom_site_label_1
_geom_bond_atom_site_label_2
_ccdc_geom_bond_type
C154  H3    S    
C124  H32   S    
C85   C182  S    
O45   Zn9   S    
C9    C169  A    
C34   C42   A    
C111  C199  S    
C128  H36   S    
C181  C187  A    
C90   O22   A    
C27   C99   A    
C170  C178  A    
C4    O4    A    
C12   C174  A    
C42   C109  A    
C24   C96   A    
C149  H8    S    
C133  O43   A    
C106  H22   S    
C62   C70   A    
C7    O31   A    
O39   Zn10  S    
O12   Zn7   S    
C62   C190  S    
C200  H52   S    
C147  C155  A    
C143  C151  A    
C90   C177  S    
C11   C167  A    
C82   C98   A    
C76   C84   A    
C2    O26   A    
C73   C81   A    
C161  C163  A    
C162  C164  A    
O48   Zn9   S    
C199  H51   S    
C84   C100  A    
C185  I1    S    
C57   C65   A    
C203  O63   D    
C37   C114  A    
C27   C35   A    
C196  H48   S    
C21   C29   A    
C137  O47   A    
O7    Zn7   S    
C81   C121  A    
C23   C31   A    
C24   C32   A    
C146  C154  A    
O30   Zn1   S    
C19   H15   S    
C117  H25   S    
C89   O21   A    
C14   C172  A    
C190  H42   S    
C63   C71   A    
C36   C44   A    
C175  C183  A    
C176  C184  A    
C139  O39   A    
C48   C96   A    
C87   O19   A    
C115  C203  S    
O3    Zn3   S    
C148  C162  A    
O4    Zn4   S    
C183  C188  A    
C108  C116  A    
C21   C93   A    
C78   C94   A    
O1    Zn1   S    
C86   O10   A    
C23   C95   A    
C114  C202  S    
C49   C97   A    
C203  H55   S    
C40   C115  A    
C107  H23   S    
C130  H38   S    
C51   C107  A    
C24   C43   A    
C101  C109  A    
C82   C122  A    
C161  C165  A    
C17   C175  A    
C198  O58   D    
O33   Zn11  S    
C18   C176  A    
O5    Zn5   S    
C29   C125  A    
C69   C77   A    
C31   C127  A    
C45   C93   A    
C174  C182  A    
C71   C79   A    
C177  C185  A    
O43   Zn12  S    
C179  C186  A    
C133  O33   A    
C30   C38   A    
C11   C176  A    
C13   H9    S    
O2    Zn2   S    
C17   C144  A    
C151  H6    S    
C105  C113  A    
C18   C143  A    
C78   C118  A    
C103  H19   S    
C149  C151  A    
C134  O44   A    
C66   C74   A    
C135  O41   A    
C49   C57   A    
C124  C132  A    
C52   C60   A    
C59   C67   A    
C53   C61   A    
C141  C159  A    
C20   C174  A    
C193  O53   D    
C55   C63   A    
C86   C181  S    
C56   C64   A    
O46   Zn10  S    
C35   C43   A    
C16   H12   S    
O37   Zn9   S    
C156  H1    S    
C6    O6    A    
C45   C53   A    
C85   O17   A    
C22   C94   A    
C171  C179  A    
C66   C194  S    
C169  C177  A    
C108  H24   S    
C194  O54   D    
C92   O24   A    
C192  O52   D    
C50   C98   A    
C87   O11   A    
C202  H54   S    
C3    O3    A    
C104  C112  A    
O32   Zn3   S    
C182  C188  A    
C145  C163  A    
C146  C164  A    
C14   C147  A    
C52   C100  A    
O16   Zn3   S    
C21   C42   A    
C109  C197  S    
C16   C145  A    
C199  O59   D    
C178  C186  A    
C8    O32   A    
C189  H41   S    
C16   C170  A    
C25   C38   A    
C88   O20   A    
C54   C139  S    
C46   C94   A    
C27   C40   A    
C10   C166  A    
C91   C180  S    
C5    O29   A    
O23   Zn7   S    
C89   C178  S    
O9    Zn6   S    
C102  H18   S    
C60   C68   A    
C101  H17   S    
C25   C97   A    
C39   C116  A    
C204  O64   D    
C195  O55   D    
C67   C75   A    
C4    O28   A    
C186  I2    S    
C123  H31   S    
C22   C30   A    
O28   Zn7   S    
C121  H29   S    
O13   Zn2   S    
C15   C146  A    
C125  H33   S    
C58   C135  S    
C68   C76   A    
O11   Zn8   S    
C59   C134  S    
C63   C191  S    
C184  C187  A    
C32   C128  A    
C90   O14   A    
C72   C80   A    
C56   C137  S    
C150  C152  A    
O19   Zn3   S    
C150  H7    S    
O20   Zn4   S    
C2    O2    A    
C13   C171  A    
C129  H37   S    
C139  O45   A    
O17   Zn1   S    
C117  C125  A    
C25   C33   A    
C119  C127  A    
O40   Zn9   S    
O34   Zn12  S    
O8    Zn8   S    
C157  C167  A    
C30   C126  A    
C158  C168  A    
C91   O23   A    
O44   Zn11  S    
C119  H27   S    
O21   Zn5   S    
C110  C198  S    
C164  C165  A    
C132  H40   S    
C22   C41   A    
C136  O36   A    
C196  O56   D    
C88   O12   A    
C105  H21   S    
C103  C111  A    
C197  O57   D    
C188  I4    S    
C162  C166  A    
O6    Zn6   S    
C79   C119  A    
C140  O40   A    
C153  C155  A    
C154  C156  A    
C172  C180  A    
C190  O50   D    
C173  C181  A    
C157  C159  A    
C83   C99   A    
C158  C160  A    
C74   C82   A    
C20   C141  A    
C1    O25   A    
C6    C74   S    
C7    O7    A    
C47   C103  A    
C64   C192  S    
C50   C58   A    
C163  C166  A    
C20   H16   S    
C147  C161  A    
O42   Zn12  S    
C38   C113  A    
C49   C105  A    
C54   C62   A    
C28   C39   A    
C1    C69   S    
C23   C44   A    
C3    C71   S    
C191  H43   S    
C19   C173  A    
C79   C95   A    
C155  H2    S    
C14   H10   S    
O38   Zn10  S    
C46   C54   A    
C18   H14   S    
C45   C101  A    
C8    O8    A    
C19   C142  A    
C61   C189  S    
C102  C110  A    
C84   C124  A    
C35   C131  A    
C4    C72   S    
O25   Zn6   S    
C33   C129  A    
O35   Zn12  S    
C36   C132  A    
C123  C131  A    
C121  C129  A    
O15   Zn4   S    
C120  C128  A    
C26   C37   A    
C10   C170  A    
C136  O42   A    
C6    O30   A    
C33   C41   A    
C142  C150  A    
C9    C165  A    
C10   C171  A    
O10   Zn5   S    
C75   C83   A    
C77   C93   A    
C85   O9    A    
C104  H20   S    
C187  I3    S    
C44   C111  A    
C131  H39   S    
C28   C36   A    
C144  C152  A    
C193  H45   S    
C29   C37   A    
C50   C106  A    
C9    C172  A    
C148  C156  A    
O14   Zn1   S    
C83   C123  A    
C2    C70   S    
O47   Zn10  S    
C60   C133  S    
C195  H47   S    
C80   C120  A    
C135  O35   A    
C70   C78   A    
C53   C140  S    
C201  H53   S    
C8    C76   S    
C141  C149  A    
C46   C102  A    
C55   C138  S    
C81   C97   A    
C152  H5    S    
C106  C114  A    
C92   C179  S    
C202  O62   D    
C77   C117  A    
O24   Zn8   S    
C48   C104  A    
C65   C73   A    
C159  C168  A    
C15   C169  A    
C160  C167  A    
C140  O46   A    
O18   Zn2   S    
C137  O37   A    
C26   C34   A    
O27   Zn8   S    
C57   C136  S    
C80   C96   A    
C127  H35   S    
C145  C153  A    
C28   C100  A    
C32   C40   A    
C52   C108  A    
O29   Zn2   S    
C86   O18   A    
C5    O5    A    
C5    C73   S    
O22   Zn6   S    
O31   Zn4   S    
C58   C66   A    
C143  C157  A    
C51   C99   A    
C11   C173  A    
C118  H26   S    
C87   C184  S    
C88   C183  S    
C7    C75   S    
C138  O38   A    
C138  O48   A    
C17   H13   S    
C113  C201  S    
C15   H11   S    
C201  O61   D    
C68   C196  S    
C191  O51   D    
C107  C115  A    
C65   C193  S    
C26   C98   A    
C12   C175  A    
C112  C200  S    
C91   O15   A    
C41   C110  A    
C89   O13   A    
C51   C59   A    
C43   C112  A    
C144  C158  A    
C194  H46   S    
C47   C55   A    
C61   C69   A    
C48   C56   A    
C192  H44   S    
C122  H30   S    
O36   Zn11  S    
O41   Zn11  S    
C142  C160  A    
C12   C168  A    
C200  O60   D    
C126  H34   S    
C120  H28   S    
C198  H50   S    
C189  O49   D    
C92   O16   A    
C67   C195  S    
C31   C39   A    
C64   C72   A    
C197  H49   S    
C3    O27   A    
C180  C185  A    
O26   Zn5   S    
C1    O1    A    
C34   C130  A    
C134  O34   A    
C204  H56   S    
C47   C95   A    
C116  C204  S    
C118  C126  A    
C13   C148  A    
C122  C130  A    
C153  H4    S    
