data_mof_unit_13342.cif
_audit_creation_date              2012-12-10T17:08:44-0500
_audit_creation_method            fapswitch 2.2
_symmetry_space_group_name_H-M    P1
_symmetry_Int_Tables_number       1
_space_group_crystal_system       triclinic
_cell_length_a                    27.647365
_cell_length_b                    10.791502
_cell_length_c                    9.866657
_cell_angle_alpha                 109.510636
_cell_angle_beta                  98.580822
_cell_angle_gamma                 91.752932
_cell_volume                      2733.45638668

loop_
_atom_site_label
_atom_site_type_symbol
_atom_type_description
_atom_site_fract_x
_atom_site_fract_y
_atom_site_fract_z
_atom_type_partial_charge
C1    C     C_R   0.494692 0.253314 0.442908 0.768308
C2    C     C_R   0.501049 0.746365 0.556860 0.757540
C3    C     C_R   0.098242 0.502288 0.456551 -0.217686
C4    C     C_R   0.892392 0.510765 0.408106 -0.219516
C5    C     C_R   0.120750 0.387684 0.459261 -0.201739
C6    C     C_R   0.870884 0.630640 0.456035 -0.232246
C7    C     C_R   0.091480 0.274851 0.448204 0.583221
C8    C     C_R   0.900995 0.749506 0.515064 0.617912
C9    C     C_R   0.127439 0.616331 0.468266 -0.139881
C10   C     C_R   0.861757 0.393183 0.338437 -0.151348
C11   C     C_R   0.354250 0.497149 0.499339 -0.384707
C12   C     C_R   0.644879 0.499340 0.497660 -0.386628
C13   C     C_R   0.965058 0.386676 0.378980 0.054057
C14   C     C_R   0.024853 0.624223 0.461119 0.032170
C15   C     C_R   0.974097 0.629450 0.469960 -0.107831
C16   C     C_R   0.016836 0.384640 0.412454 -0.076494
C17   C     C_R   0.944009 0.509137 0.419920 0.019802
C18   C     C_R   0.046554 0.503594 0.443689 0.015340
C19   C     C_R   0.933594 0.271614 0.300209 -0.203708
C20   C     C_R   0.054352 0.734190 0.464153 -0.244362
C21   C     C_R   0.882793 0.274546 0.278933 0.658227
C22   C     C_R   0.104678 0.730733 0.467347 0.647023
C23   C     C_R   0.407537 0.499467 0.500285 0.888687
C24   C     C_R   0.592200 0.499979 0.499387 0.916933
C25   C     C_R   0.039861 0.269809 0.418706 0.342421
C26   C     C_R   0.952056 0.749567 0.527375 0.337816
C27   C     C_2   0.487795 0.111915 0.417371 0.323465
C28   C     C_2   0.495670 0.886377 0.580790 0.324265
C29   C     C_2   0.465080 0.067477 0.506520 0.292803
C30   C     C_2   0.464546 0.923746 0.484638 0.318134
C31   C     C_2   0.498850 0.527330 0.084929 0.527635
C32   C     C_2   0.491463 0.501327 0.922701 0.636380
C33   C     C_R   0.172317 0.390068 0.475965 0.698200
C34   C     C_R   0.819514 0.627237 0.447176 0.737047
C35   C     C_R   0.178564 0.611633 0.477841 0.688621
C36   C     C_R   0.810710 0.398916 0.329448 0.646727
C37   C     C_R   0.284154 0.579901 0.614949 0.374584
C38   C     C_R   0.716038 0.380256 0.435318 0.421168
C39   C     C_R   0.335050 0.585101 0.616013 0.281830
C40   C     C_R   0.665646 0.379543 0.442075 0.321124
C41   C     C_R   0.321970 0.408508 0.379030 0.294181
C42   C     C_R   0.675044 0.617386 0.561099 0.293829
C43   C     C_R   0.271285 0.412532 0.373237 0.548298
C44   C     C_R   0.725352 0.616146 0.553130 0.530992
C45   C     C_R   0.252163 0.497189 0.490718 -0.036493
C46   C     C_R   0.744265 0.502317 0.463396 -0.103263
Cu1   Cu    Cu3+1 0.508480 0.521810 0.644910 1.149089
Cu2   Cu    Cu3+1 0.491520 0.478190 0.355090 1.115718
H1    H     H_    0.947584 0.178959 0.247436 0.193479
H2    H     H_    0.038798 0.822678 0.457290 0.218384
N1    N     N_R   0.199853 0.500091 0.482616 -0.433419
N2    N     N_R   0.792123 0.509162 0.415522 -0.450604
N3    N     N_2   0.478780 0.445430 0.137360 0.042040
N4    N     N_2   0.521220 0.554570 0.862640 0.058178
O1    O     O_R   0.504520 0.332330 0.577400 -0.554143
O2    O     O_R   0.495480 0.667670 0.422600 -0.547130
O3    O     O_R   0.490210 0.295500 0.332650 -0.490815
O4    O     O_R   0.509790 0.704500 0.667350 -0.511668
O5    O     O_R   0.437420 0.518430 0.622370 -0.541463
O6    O     O_R   0.562580 0.481570 0.377630 -0.597313
O7    O     O_R   0.423110 0.481600 0.377610 -0.539043
O8    O     O_R   0.576890 0.518400 0.622390 -0.516616
O9    O     O_2   0.194982 0.283314 0.484612 -0.423703
O10   O     O_2   0.797346 0.738843 0.458415 -0.397532
O11   O     O_2   0.780506 0.299882 0.228874 -0.374527
O12   O     O_2   0.206917 0.717068 0.481389 -0.427467
O13   O     O_3   0.339662 0.321609 0.262744 -0.505938
C47   C     C_3   0.347500 0.203713 0.291780 -0.188333
H3    H     H_    0.312517 0.155473 0.300678 0.189919
H4    H     H_    0.375007 0.221098 0.392331 0.116010
H5    H     H_    0.362292 0.134353 0.199545 0.181553
O14   O     O_3   0.655291 0.730491 0.639993 -0.516360
C48   C     C_3   0.662481 0.832302 0.582915 -0.125724
H6    H     H_    0.658454 0.795739 0.461608 0.096171
H7    H     H_    0.698922 0.887725 0.632153 0.240703
H8    H     H_    0.634218 0.902764 0.612836 0.180759
F1    F     F_    0.522993 0.977944 0.700745 -0.633085
F2    F     F_    0.505329 0.026372 0.303027 -0.633563
O15   O     O_3   0.451312 0.419288 0.832591 -0.534391
C49   C     C_3   0.407101 0.465282 0.879158 -0.244653
H9    H     H_    0.408112 0.575009 0.922164 0.172576
H10   H     H_    0.397549 0.424480 0.961954 0.195622
H11   H     H_    0.376895 0.428519 0.784319 0.185916
O16   O     O_3   0.515556 0.654716 0.176395 -0.564134
C50   C     C_3   0.566894 0.666286 0.224993 -0.039556
H12   H     H_    0.584182 0.746342 0.196536 0.227031
H13   H     H_    0.585482 0.574536 0.180279 0.141366
H14   H     H_    0.574597 0.699541 0.345525 0.129467
F3    F     F_    0.563363 0.620623 0.940845 -0.567265
F4    F     F_    0.469553 0.319795 0.048051 -0.540188
F5    F     F_    0.240507 0.333481 0.252580 -0.595685
F6    F     F_    0.755787 0.719028 0.649188 -0.581353
F7    F     F_    0.112847 0.170323 0.471156 -0.574903
F8    F     F_    0.881553 0.866515 0.569669 -0.566617
O17   O     O_3   0.636400 0.261331 0.387155 -0.502379
C51   C     C_3   0.631868 0.213295 0.501700 -0.176141
H15   H     H_    0.620080 0.288470 0.596411 0.141279
H16   H     H_    0.666667 0.175849 0.537408 0.167351
H17   H     H_    0.603356 0.128847 0.460589 0.205737
O18   O     O_3   0.365921 0.673692 0.734089 -0.559441
C52   C     C_3   0.372109 0.792968 0.707256 -0.216699
H18   H     H_    0.336652 0.837819 0.696442 0.200995
H19   H     H_    0.389257 0.778757 0.608560 0.123620
H20   H     H_    0.397161 0.863545 0.801715 0.183115
O19   O     O_3   0.736922 0.261656 0.413329 -0.484420
C53   C     C_3   0.766532 0.265702 0.544768 -0.177491
H21   H     H_    0.746015 0.293934 0.638027 0.122910
H22   H     H_    0.800133 0.334178 0.571203 0.154584
H23   H     H_    0.778462 0.165670 0.531162 0.231274
O20   O     O_3   0.265460 0.663035 0.731383 -0.523396
C54   C     C_3   0.263441 0.598837 0.833800 -0.203892
H24   H     H_    0.300740 0.579115 0.877882 0.157527
H25   H     H_    0.238999 0.505478 0.785984 0.166640
H26   H     H_    0.247882 0.664507 0.926728 0.199678
F9    F     F_    0.854591 0.159609 0.205233 -0.580265
F10   F     F_    0.130740 0.840864 0.470948 -0.572565
O21   O     O_3   0.012066 0.162046 0.422840 -0.544098
C55   C     C_3   0.019931 0.045074 0.311794 -0.166708
H27   H     H_    0.050662 0.995777 0.351742 0.247282
H28   H     H_    0.026258 0.061795 0.209964 0.112188
H29   H     H_    0.986588 0.975474 0.282717 0.177885
O22   O     O_3   0.979646 0.868222 0.603174 -0.542419
C56   C     C_3   0.993505 0.876227 0.749559 -0.185379
H30   H     H_    0.017013 0.796388 0.758238 0.143031
H31   H     H_    0.960797 0.873544 0.802414 0.176207
H32   H     H_    0.015369 0.971813 0.810617 0.201938
O23   O     O_3   0.435887 0.826560 0.364867 -0.565740
C57   C     C_3   0.399299 0.876989 0.286946 -0.252153
H33   H     H_    0.415628 0.930490 0.223970 0.210131
H34   H     H_    0.375927 0.940302 0.359201 0.122445
H35   H     H_    0.374920 0.792663 0.206776 0.192219
O24   O     O_3   0.445738 0.158279 0.619070 -0.556302
C58   C     C_3   0.415875 0.098360 0.687990 -0.155283
H36   H     H_    0.438445 0.052362 0.757840 0.214232
H37   H     H_    0.386868 0.026197 0.608467 0.084751
H38   H     H_    0.396849 0.175778 0.760612 0.218126

loop_
_geom_bond_atom_site_label_1
_geom_bond_atom_site_label_2
_ccdc_geom_bond_type
C52   H18   S    
C27   C29   D    
C8    C26   A    
C48   H6    S    
C14   C18   A    
O17   C51   S    
C21   F9    S    
C27   F2    S    
C57   H33   S    
Cu1   O8    S    
C39   O18   S    
C56   H30   S    
C41   O13   S    
C50   H12   S    
C23   O5    A    
Cu1   O1    S    
C19   C21   A    
C9    C22   A    
C56   H31   S    
C29   O24   S    
C53   H21   S    
C45   N1    S    
C51   H17   S    
C46   N2    S    
C3    C18   A    
Cu2   O2    S    
C55   H27   S    
C20   H2    S    
O20   C54   S    
C31   C32   S    
O24   C58   S    
C51   H16   S    
C58   H38   S    
C12   C42   A    
C36   N2    A    
C24   O6    A    
O14   C48   S    
C1    C27   S    
C22   F10   S    
C52   H19   S    
C41   C43   A    
C42   C44   A    
C49   H11   S    
C32   N4    D    
C44   C46   A    
Cu2   O6    S    
C50   H13   S    
C10   C21   A    
Cu2   N3    S    
C7    F7    S    
C13   C19   A    
O13   C47   S    
C14   C20   A    
Cu2   O3    S    
C8    F8    S    
O16   C50   S    
N4    F3    S    
C49   H10   S    
C5    C7    A    
C36   O11   S    
C47   H3    S    
C15   C26   A    
C6    C8    A    
C35   O12   S    
C3    C5    A    
C43   F5    S    
C31   O16   S    
C6    C34   A    
C5    C33   A    
C55   H29   S    
C12   C40   A    
C29   C30   S    
C3    C9    A    
C1    O3    A    
C19   H1    S    
Cu1   Cu2   S    
C33   O9    S    
C51   H15   S    
C34   O10   S    
C54   H25   S    
C31   N3    D    
C11   C39   A    
C28   F1    S    
C43   C45   A    
C37   O20   S    
Cu1   N4    S    
C4    C17   A    
C4    C6    A    
C20   C22   A    
C44   F6    S    
C52   H20   S    
C35   N1    A    
C58   H36   S    
C48   H8    S    
C48   H7    S    
C40   O17   S    
C4    C10   A    
O23   C57   S    
C57   H35   S    
C58   H37   S    
C50   H14   S    
C25   O21   S    
C16   C25   A    
C15   C17   A    
C30   O23   S    
C24   O8    A    
C54   H24   S    
C49   H9    S    
C56   H32   S    
C57   H34   S    
C10   C36   A    
C2    O4    A    
O22   C56   S    
C33   N1    A    
O19   C53   S    
C12   C24   S    
C34   N2    A    
C7    C25   A    
C13   C17   A    
C38   O19   S    
C28   C30   D    
C1    O1    A    
C37   C39   A    
C2    O2    A    
O21   C55   S    
Cu1   O4    S    
C38   C40   A    
Cu2   O7    S    
C53   H22   S    
C47   H5    S    
C11   C23   S    
O18   C52   S    
C11   C41   A    
C54   H26   S    
C55   H28   S    
C38   C46   A    
Cu1   O5    S    
O15   C49   S    
C23   O7    A    
C16   C18   A    
C13   C16   A    
N3    F4    S    
C9    C35   A    
C47   H4    S    
C14   C15   A    
C2    C28   S    
C26   O22   S    
C42   O14   S    
C37   C45   A    
C32   O15   S    
C53   H23   S    
