data_mof_unit_56610.cif
_audit_creation_date              2012-12-10T18:35:15-0500
_audit_creation_method            fapswitch 2.2
_symmetry_space_group_name_H-M    P1
_symmetry_Int_Tables_number       1
_space_group_crystal_system       triclinic
_cell_length_a                    14.961581
_cell_length_b                    15.473255
_cell_length_c                    16.748393
_cell_angle_alpha                 92.189997
_cell_angle_beta                  100.033638
_cell_angle_gamma                 97.264406
_cell_volume                      3780.16813677

loop_
_atom_site_label
_atom_site_type_symbol
_atom_type_description
_atom_site_fract_x
_atom_site_fract_y
_atom_site_fract_z
_atom_type_partial_charge
C1    C     C_R   0.557164 0.662256 0.509313 0.867821
C2    C     C_R   0.443050 0.337558 0.486769 0.869144
C3    C     C_R   0.591470 0.753764 0.502157 -0.068008
C4    C     C_R   0.410541 0.244971 0.466126 -0.072156
C5    C     C_R   0.714560 0.871844 0.504419 -0.201013
C6    C     C_R   0.292272 0.126143 0.410262 -0.193370
C7    C     C_R   0.685330 0.784725 0.515763 -0.196464
C8    C     C_R   0.318321 0.214152 0.435250 -0.195677
C9    C     C_R   0.527756 0.809519 0.475375 -0.262192
C10   C     C_R   0.475953 0.187874 0.470601 -0.254546
C11   C     C_R   0.555337 0.896141 0.461345 0.092907
C12   C     C_R   0.452351 0.100891 0.441829 0.094520
C13   C     C_R   0.650107 0.928242 0.479093 0.179362
C14   C     C_R   0.358534 0.069014 0.414406 0.162825
C15   C     C_R   0.490202 0.953072 0.436621 0.063889
C16   C     C_R   0.519431 0.043773 0.445293 0.076132
C17   C     C_R   0.614526 0.074115 0.458495 -0.239985
C18   C     C_R   0.396753 0.922710 0.405518 -0.224923
C19   C     C_R   0.678834 0.016602 0.473523 -0.242992
C20   C     C_R   0.332264 0.980376 0.393119 -0.221487
C21   C     C_R   0.169949 0.641516 0.383148 0.476261
C22   C     C_R   0.829767 0.354117 0.608142 0.470266
C23   C     C_R   0.511565 0.499062 0.349403 0.888493
C24   C     C_R   0.490971 0.507380 0.650879 0.886686
C25   C     C_R   0.256987 0.615410 0.402352 -0.130065
C26   C     C_R   0.745284 0.385017 0.597577 -0.120606
C27   C     C_R   0.204867 0.509202 0.487929 0.001568
C28   C     C_R   0.792083 0.487352 0.506396 -0.007876
C29   C     C_R   0.114156 0.526908 0.466925 -0.054824
C30   C     C_R   0.882644 0.468108 0.522544 -0.052576
C31   C     C_R   0.099377 0.599367 0.419495 -0.031213
C32   C     C_R   0.898826 0.395619 0.569782 -0.033557
C33   C     C_R   0.040091 0.479242 0.496358 -0.061667
C34   C     C_R   0.955229 0.514426 0.489735 -0.064494
C35   C     C_R   0.946465 0.594863 0.451566 0.508278
C36   C     C_R   0.048472 0.397487 0.531676 0.509361
C37   C     C_R   0.016520 0.632594 0.413303 -0.253131
C38   C     C_R   0.980078 0.360300 0.572044 -0.268544
C39   C     C_R   0.521988 0.511151 0.265670 -0.098710
C40   C     C_R   0.496960 0.537039 0.735336 -0.094317
C41   C     C_R   0.445429 0.520342 0.206993 -0.307023
C42   C     C_R   0.583053 0.570361 0.780988 -0.314495
C43   C     C_R   0.455915 0.542028 0.128456 0.579666
C44   C     C_R   0.590905 0.605415 0.860680 0.563896
C45   C     C_R   0.544854 0.552016 0.109456 0.055438
C46   C     C_R   0.510390 0.608398 0.892697 0.058387
C47   C     C_R   0.620602 0.539754 0.167490 -0.245630
C48   C     C_R   0.424226 0.580070 0.845365 -0.215862
C49   C     C_R   0.609504 0.520108 0.245384 -0.204075
C50   C     C_R   0.417442 0.544158 0.766987 -0.202383
C51   C     C_2   0.560174 0.566982 0.027326 -0.143570
C52   C     C_2   0.515271 0.620993 0.979982 -0.108068
H1    H     H_    0.377618 0.509635 0.222109 0.166908
H2    H     H_    0.643595 0.571011 0.753767 0.170925
H3    H     H_    0.640890 0.142030 0.456026 0.145507
H4    H     H_    0.372081 0.854698 0.388746 0.152291
H5    H     H_    0.008895 0.693071 0.384130 0.203757
H6    H     H_    0.987100 0.299013 0.599865 0.196062
H7    H     H_    0.768222 0.529022 0.459934 0.192123
H8    H     H_    0.225718 0.465571 0.533837 0.184007
H9    H     H_    0.691362 0.355821 0.627426 0.154158
H10   H     H_    0.314443 0.647783 0.378919 0.143326
H11   H     H_    0.350334 0.521124 0.731487 0.159279
H12   H     H_    0.669652 0.513330 0.289929 0.161030
H13   H     H_    0.468803 0.660229 0.002743 0.166360
H14   H     H_    0.605165 0.526816 0.003282 0.157231
H15   H     H_    0.688646 0.546048 0.152476 0.158883
H16   H     H_    0.362533 0.581089 0.870854 0.175043
H17   H     H_    0.751102 0.041951 0.484587 0.141564
H18   H     H_    0.261140 0.955003 0.370070 0.165011
H19   H     H_    0.545492 0.211834 0.498929 0.155378
H20   H     H_    0.455967 0.785177 0.468675 0.163681
H21   H     H_    0.266716 0.257792 0.430258 0.189190
H22   H     H_    0.735807 0.742023 0.535588 0.195216
H23   H     H_    0.787240 0.895503 0.516896 0.147081
H24   H     H_    0.220515 0.102678 0.388120 0.146318
N1    N     N_R   0.271750 0.551950 0.454510 -0.136908
N2    N     N_R   0.728250 0.448050 0.545490 -0.142931
O1    O     O_R   0.615140 0.606020 0.522930 -0.610894
O2    O     O_R   0.384860 0.393980 0.477070 -0.607610
O3    O     O_R   0.468580 0.639400 0.493740 -0.619228
O4    O     O_R   0.531420 0.360600 0.506260 -0.618878
O5    O     O_R   0.581950 0.481350 0.400520 -0.624696
O6    O     O_R   0.418050 0.518650 0.599480 -0.617166
O7    O     O_R   0.435380 0.514730 0.371330 -0.618514
O8    O     O_R   0.564620 0.485270 0.628670 -0.615361
Zn1   Zn    Zn3+2 0.597860 0.477710 0.519490 0.940201
Zn2   Zn    Zn3+2 0.402140 0.522290 0.480510 0.945247
O9    O     O_3   0.153998 0.712290 0.336296 -0.615900
C53   C     C_3   0.191270 0.707217 0.264621 -0.359889
H25   H     H_    0.180306 0.639599 0.235986 0.154409
H26   H     H_    0.265203 0.733688 0.276818 0.159372
H27   H     H_    0.156228 0.748665 0.219979 0.202908
O10   O     O_3   0.846319 0.286487 0.658122 -0.607670
C54   C     C_3   0.798215 0.207748 0.618595 -0.342653
H28   H     H_    0.815772 0.196428 0.557415 0.154503
H29   H     H_    0.722947 0.206341 0.613702 0.164368
H30   H     H_    0.818431 0.152863 0.655282 0.206771
O11   O     O_3   0.877243 0.643479 0.463278 -0.620428
C55   C     C_3   0.832060 0.670341 0.388730 -0.390108
H31   H     H_    0.826801 0.621238 0.337051 0.152599
H32   H     H_    0.866331 0.734525 0.374957 0.193080
H33   H     H_    0.761057 0.679041 0.394867 0.202346
O12   O     O_3   0.114766 0.347941 0.513711 -0.618224
C56   C     C_3   0.158602 0.310805 0.583386 -0.379760
H34   H     H_    0.120502 0.246327 0.591536 0.188704
H35   H     H_    0.168178 0.354572 0.639519 0.156983
H36   H     H_    0.227797 0.299371 0.573818 0.198590
O13   O     O_3   0.674353 0.641685 0.907728 -0.605297
C57   C     C_3   0.744333 0.589761 0.901709 -0.339348
H37   H     H_    0.775269 0.605033 0.847391 0.181200
H38   H     H_    0.719916 0.518602 0.901142 0.151116
H39   H     H_    0.799271 0.606132 0.955781 0.199301
O14   O     O_3   0.380257 0.543062 0.067384 -0.611082
C58   C     C_3   0.321529 0.600323 0.090508 -0.387590
H40   H     H_    0.359804 0.662064 0.122490 0.151399
H41   H     H_    0.275122 0.567339 0.128354 0.177107
H42   H     H_    0.277886 0.618452 0.034771 0.200200

loop_
_geom_bond_atom_site_label_1
_geom_bond_atom_site_label_2
_ccdc_geom_bond_type
N2    Zn1   S    
C15   C18   A    
O5    Zn1   S    
C29   C33   A    
C27   C29   A    
C22   O10   S    
C54   H28   S    
C9    H20   S    
C4    C8    A    
O1    Zn1   S    
O14   C58   S    
C54   H30   S    
C47   C49   A    
C21   O9    S    
C56   H35   S    
C26   N2    A    
C22   C32   A    
C25   N1    A    
C35   C37   A    
C26   H9    S    
C3    C7    A    
C27   H8    S    
C43   O14   S    
C23   C39   S    
O7    Zn2   S    
C45   C51   S    
C1    O3    A    
O4    Zn1   S    
C46   C52   S    
C33   C36   A    
C34   C35   A    
C23   O5    A    
C57   H37   S    
C8    H21   S    
C24   C40   S    
C38   H6    S    
C11   C15   A    
C12   C16   A    
N1    Zn2   S    
C16   C17   A    
C58   H41   S    
C32   C38   A    
C28   N2    A    
C17   H3    S    
C5    C13   A    
C18   H4    S    
C44   O13   S    
C40   C42   A    
C49   H12   S    
C50   H11   S    
C41   C43   A    
C20   H18   S    
C42   C44   A    
C35   O11   S    
C47   H15   S    
O12   C56   S    
C44   C46   A    
C7    H22   S    
C45   C47   A    
C37   H5    S    
C56   H36   S    
C46   C48   A    
C15   C16   A    
C30   C34   A    
C51   C52   D    
C14   C20   A    
C2    O2    A    
C39   C41   A    
C5    C7    A    
C13   C19   A    
O8    Zn1   S    
C6    C8    A    
C55   H33   S    
C31   C37   A    
C1    C3    S    
C51   H14   S    
C5    H23   S    
C2    C4    S    
C3    C9    A    
C6    C14   A    
C21   C31   A    
C53   H26   S    
O11   C55   S    
C58   H42   S    
C55   H32   S    
C33   C34   A    
C48   H16   S    
C48   C50   A    
C43   C45   A    
C57   H39   S    
C41   H1    S    
C10   C12   A    
C39   C49   A    
C12   C14   A    
C9    C11   A    
C23   O7    A    
C1    O1    A    
C2    O4    A    
C4    C10   A    
C53   H27   S    
C28   H7    S    
C21   C25   A    
O6    Zn2   S    
C27   N1    A    
C54   H29   S    
C6    H24   S    
C56   H34   S    
C36   O12   S    
C36   C38   A    
C24   O6    A    
O2    Zn2   S    
O13   C57   S    
C10   H19   S    
C30   C32   A    
C11   C13   A    
C53   H25   S    
C40   C50   A    
C28   C30   A    
C55   H31   S    
C17   C19   A    
C18   C20   A    
C25   H10   S    
O10   C54   S    
C57   H38   S    
O3    Zn2   S    
C19   H17   S    
C29   C31   A    
C22   C26   A    
O9    C53   S    
C24   O8    A    
C42   H2    S    
C52   H13   S    
C58   H40   S    
