data_mof_unit_9786.cif
_audit_creation_date              2012-10-26T20:58:16-0400
_audit_creation_method            fapswitch 2.2
_symmetry_space_group_name_H-M    P1
_symmetry_Int_Tables_number       1
_space_group_crystal_system       triclinic
_cell_length_a                    10.605229
_cell_length_b                    14.691631
_cell_length_c                    14.852613
_cell_angle_alpha                 65.436454
_cell_angle_beta                  102.286356
_cell_angle_gamma                 102.982218
_cell_volume                      2032.22941814

loop_
_atom_site_label
_atom_site_type_symbol
_atom_type_description
_atom_site_fract_x
_atom_site_fract_y
_atom_site_fract_z
_atom_type_partial_charge
C1    C     C_R   0.480686 0.119698 0.313202 0.543034
C2    C     C_R   0.462672 0.537555 0.964721 0.026006
C3    C     C_R   0.327342 0.508699 0.943599 -0.126682
C4    C     C_R   0.672658 0.491301 0.056401 -0.126682
C5    C     C_R   0.273495 0.407607 0.970355 -0.134815
C6    C     C_R   0.726505 0.592394 0.029645 -0.134815
C7    C     C_R   0.703614 0.279931 0.674200 -0.164256
C8    C     C_R   0.296386 0.720069 0.325800 -0.164256
C9    C     C_R   0.677049 0.201402 0.640650 0.036613
C10   C     C_R   0.322951 0.798598 0.359349 0.036613
C11   C     C_R   0.521013 0.285515 0.509377 0.046529
C12   C     C_R   0.519314 0.880302 0.686798 0.543034
C13   C     C_R   0.478986 0.714485 0.490623 0.046529
C14   C     C_R   0.546963 0.370383 0.537269 -0.013947
C15   C     C_R   0.453036 0.629617 0.462731 -0.013946
C16   C     C_R   0.259522 0.000002 0.500427 0.549468
C17   C     C_R   0.740478 0.999998 0.499573 0.549469
C18   C     C_R   0.636779 0.364135 0.624632 0.030511
C19   C     C_R   0.363221 0.635865 0.375368 0.030511
C20   C     C_R   0.486163 0.459657 0.482574 -0.003579
C21   C     C_R   0.513836 0.540342 0.517426 -0.003579
C22   C     C_R   0.598788 0.528213 0.607257 -0.148929
C23   C     C_R   0.525504 0.288300 0.172641 -0.040925
C24   C     C_R   0.401211 0.471787 0.392743 -0.148929
C25   C     C_R   0.658269 0.441888 0.660812 -0.011439
C26   C     C_R   0.341731 0.558112 0.339188 -0.011439
C27   C     C_3   0.010182 0.924474 0.474678 -0.113654
C28   C     C_3   0.989818 0.075526 0.525322 -0.113654
C29   C     C_3   0.935620 0.013986 0.408005 -0.126869
C30   C     C_3   0.064380 0.986014 0.591995 -0.126869
C31   C     C_3   0.877455 0.000195 0.499560 0.049770
C32   C     C_3   0.122545 0.999805 0.500440 0.049769
C33   C     C_3   0.949752 0.910870 0.566284 -0.132340
C34   C     C_R   0.474496 0.711700 0.827359 -0.040925
C35   C     C_3   0.050248 0.089130 0.433716 -0.132340
C36   C     C_R   0.456856 0.187861 0.208100 -0.005398
C37   C     C_R   0.543144 0.812139 0.791899 -0.005398
C38   C     C_R   0.288524 0.231671 0.066772 -0.144777
C39   C     C_R   0.711476 0.768329 0.933228 -0.144777
C40   C     C_R   0.345938 0.158883 0.150055 -0.152366
C41   C     C_R   0.654062 0.841117 0.849945 -0.152366
C42   C     C_R   0.365674 0.680212 0.759078 0.042043
C43   C     C_R   0.377599 0.606654 0.725110 -0.076131
C44   C     C_R   0.275899 0.576963 0.661172 -0.106118
C45   C     C_R   0.474073 0.360747 0.080521 0.021449
C46   C     C_R   0.162498 0.621357 0.629475 -0.100770
C47   C     C_R   0.150166 0.694932 0.662308 -0.106662
C48   C     C_R   0.251293 0.724735 0.726595 -0.084616
C49   C     C_R   0.634326 0.319788 0.240922 0.042043
C50   C     C_R   0.748707 0.275264 0.273405 -0.084616
C51   C     C_R   0.849834 0.305067 0.337693 -0.106662
C52   C     C_R   0.837502 0.378642 0.370525 -0.100770
C53   C     C_R   0.724101 0.423037 0.338829 -0.106118
C54   C     C_R   0.622401 0.393345 0.274890 -0.076130
C55   C     C_R   0.739007 0.433687 0.757435 0.022853
C56   C     C_R   0.525927 0.639253 0.919479 0.021448
C57   C     C_R   0.858105 0.498160 0.759740 -0.097030
C58   C     C_R   0.935678 0.488799 0.850874 -0.117416
C59   C     C_R   0.894180 0.415728 0.940117 -0.117590
C60   C     C_R   0.774012 0.352990 0.938489 -0.113683
C61   C     C_R   0.696350 0.361877 0.847397 -0.096085
C62   C     C_R   0.260993 0.566313 0.242565 0.022853
C63   C     C_R   0.303650 0.638123 0.152603 -0.096085
C64   C     C_R   0.225988 0.647010 0.061511 -0.113683
C65   C     C_R   0.105820 0.584272 0.059884 -0.117590
C66   C     C_R   0.064321 0.511202 0.149127 -0.117416
C67   C     C_R   0.346668 0.332988 0.036700 0.039167
C68   C     C_R   0.141895 0.501840 0.240260 -0.097030
C69   C     C_R   0.653332 0.667013 0.963300 0.039167
C70   C     C_R   0.537328 0.462445 0.035279 0.026006
Cu1   Cu    Cu3+1 0.465750 0.918270 0.475680 0.935666
Cu2   Cu    Cu3+1 0.534250 0.081730 0.524320 0.935666
H1    H     H_    0.879657 0.025538 0.332864 0.103039
H2    H     H_    0.380829 0.415893 0.360276 0.093134
H3    H     H_    0.021158 0.862586 0.453840 0.117605
H4    H     H_    0.978842 0.137414 0.546160 0.117605
H5    H     H_    0.904532 0.838363 0.620346 0.099283
H6    H     H_    0.095468 0.161637 0.379653 0.099283
H7    H     H_    0.171619 0.387902 0.944552 0.113938
H8    H     H_    0.828381 0.612098 0.055449 0.113938
H9    H     H_    0.706373 0.917778 0.823691 0.120454
H10   H     H_    0.293627 0.082222 0.176309 0.120454
H11   H     H_    0.193898 0.209765 0.030100 0.106114
H12   H     H_    0.120343 0.974462 0.667136 0.103039
H13   H     H_    0.806102 0.790235 0.969900 0.106114
H14   H     H_    0.261611 0.563395 0.905222 0.116609
H15   H     H_    0.738389 0.436605 0.094778 0.116609
H16   H     H_    0.465180 0.571878 0.749014 0.108480
H17   H     H_    0.285266 0.519824 0.635873 0.113621
H18   H     H_    0.083945 0.598494 0.579730 0.100307
H19   H     H_    0.061690 0.728203 0.638478 0.095462
H20   H     H_    0.240368 0.781684 0.751667 0.083501
H21   H     H_    0.759632 0.218317 0.248333 0.083501
H22   H     H_    0.938310 0.271797 0.361522 0.095462
H23   H     H_    0.552256 0.719548 0.551375 0.123132
H24   H     H_    0.916054 0.401505 0.420271 0.100307
H25   H     H_    0.714734 0.480175 0.364129 0.113622
H26   H     H_    0.534820 0.428122 0.250986 0.108480
H27   H     H_    0.891205 0.554564 0.690964 0.100110
H28   H     H_    0.028226 0.537824 0.852027 0.102113
H29   H     H_    0.955189 0.407362 0.010490 0.102904
H30   H     H_    0.741400 0.297203 0.007727 0.103377
H31   H     H_    0.603619 0.312601 0.846738 0.111514
H32   H     H_    0.396381 0.687399 0.153261 0.111514
H33   H     H_    0.258600 0.702797 0.992273 0.103377
H34   H     H_    0.447744 0.280451 0.448625 0.123132
H35   H     H_    0.044811 0.592638 0.989511 0.102904
H36   H     H_    0.971773 0.462177 0.147973 0.102113
H37   H     H_    0.108795 0.445436 0.309036 0.100110
H38   H     H_    0.273038 0.863793 0.319845 0.119434
H39   H     H_    0.726963 0.136207 0.680154 0.119434
H40   H     H_    0.776154 0.273848 0.739021 0.107375
H41   H     H_    0.223847 0.726152 0.260978 0.107375
H42   H     H_    0.619171 0.584107 0.639724 0.093134
N1    N     N_R   0.585750 0.204560 0.560800 -0.227769
N2    N     N_R   0.414250 0.795440 0.439200 -0.227769
O1    O     O_R   0.454850 0.022100 0.338110 -0.515038
O2    O     O_R   0.545150 0.977900 0.661890 -0.515038
O3    O     O_R   0.512700 0.160150 0.379180 -0.493088
O4    O     O_R   0.487300 0.839850 0.620820 -0.493087
O5    O     O_R   0.287930 0.931000 0.479440 -0.504472
O6    O     O_R   0.712070 0.069000 0.520560 -0.504472
O7    O     O_R   0.345780 0.069050 0.520520 -0.508178
O8    O     O_R   0.654220 0.930950 0.479480 -0.508178

loop_
_geom_bond_atom_site_label_1
_geom_bond_atom_site_label_2
_ccdc_geom_bond_type
C9    H39   S    
C6    C69   A    
C66   C68   A    
C34   C56   A    
C23   C45   A    
C38   H11   S    
C27   C29   S    
C34   C37   A    
C14   C18   A    
C34   C42   S    
C5    C67   A    
C33   H5    S    
C4    C70   A    
C64   H33   S    
C39   C41   A    
C4    H15   S    
C53   C54   A    
C27   C33   S    
C15   C19   A    
Cu2   N1    S    
Cu1   O4    S    
C13   H23   S    
C43   H16   S    
C61   H31   S    
C16   O7    A    
C24   C26   A    
C11   C14   A    
C27   H3    S    
C23   C49   S    
C29   H1    S    
C49   C54   A    
C57   H27   S    
C7    H40   S    
C1    O3    A    
C12   C37   S    
C19   C26   A    
C12   O4    A    
C20   C24   A    
C28   C35   S    
C22   C25   A    
C45   C67   A    
C31   C33   S    
C52   H24   S    
C5    H7    S    
C11   N1    A    
C45   C70   A    
C59   C60   A    
C38   C40   A    
C21   C22   A    
C3    H14   S    
C30   H12   S    
C18   C25   A    
C60   H30   S    
C44   C46   A    
C8    C19   A    
Cu1   O1    S    
C51   C52   A    
C59   H29   S    
C32   C35   S    
C14   C20   A    
Cu1   O8    S    
C36   C40   A    
C58   H28   S    
C4    C6    A    
C1    O1    A    
C53   H25   S    
C58   C59   A    
C60   C61   A    
C9    N1    A    
C16   O5    A    
C62   C63   A    
C40   H10   S    
C17   O8    A    
C6    H8    S    
C47   C48   A    
C22   H42   S    
C7    C18   A    
C41   H9    S    
C11   H34   S    
C50   C51   A    
C39   C69   A    
C42   C48   A    
C38   C67   A    
C8    H41   S    
C12   O2    A    
C49   C50   A    
C55   C57   A    
Cu2   O7    S    
C17   C31   S    
C42   C43   A    
C39   H13   S    
C28   H4    S    
C10   N2    A    
C52   C53   A    
C7    C9    A    
C46   C47   A    
C30   C33   S    
Cu2   O6    S    
C27   C32   S    
C47   H19   S    
Cu1   O5    S    
C28   C31   S    
C25   C55   S    
C66   H36   S    
C63   H32   S    
C3    C5    A    
C50   H21   S    
C46   H18   S    
C23   C36   A    
C16   C32   S    
C29   C35   S    
C35   H6    S    
C62   C68   A    
C64   C65   A    
C13   C15   A    
C2    C3    A    
C26   C62   S    
Cu1   Cu2   S    
C29   C31   S    
C2    C56   A    
C30   C32   S    
C24   H2    S    
C57   C58   A    
C43   C44   A    
C55   C61   A    
Cu2   O3    S    
C28   C30   S    
Cu1   N2    S    
C10   H38   S    
C68   H37   S    
C65   C66   A    
C37   C41   A    
C13   N2    A    
C51   H22   S    
C63   C64   A    
C17   O6    A    
C15   C21   A    
C20   C21   A    
C8    C10   A    
C56   C69   A    
C48   H20   S    
Cu2   O2    S    
C54   H26   S    
C2    C70   A    
C65   H35   S    
C44   H17   S    
C1    C36   S    
