data_mof_unit_41465.cif
_audit_creation_date              2012-12-10T18:58:43-0500
_audit_creation_method            fapswitch 2.2
_symmetry_space_group_name_H-M    P1
_symmetry_Int_Tables_number       1
_space_group_crystal_system       triclinic
_cell_length_a                    10.784246
_cell_length_b                    9.800981
_cell_length_c                    17.511461
_cell_angle_alpha                 89.969631
_cell_angle_beta                  89.697906
_cell_angle_gamma                 89.952642
_cell_volume                      1850.86809656

loop_
_atom_site_label
_atom_site_type_symbol
_atom_type_description
_atom_site_fract_x
_atom_site_fract_y
_atom_site_fract_z
_atom_type_partial_charge
C1    C     C_R   0.260083 0.500495 0.498767 0.984317
C2    C     C_R   0.498689 0.499899 0.646579 0.903181
C3    C     C_R   0.873393 0.500893 0.499406 -0.444177
C4    C     C_R   0.128158 0.502510 0.497146 -0.425961
C5    C     C_R   0.513844 0.615086 0.850350 0.457643
C6    C     C_R   0.508203 0.375485 0.151486 0.466219
C7    C     C_R   0.420958 0.606907 0.154725 0.423492
C8    C     C_R   0.424595 0.384989 0.844942 0.424469
C9    C     C_R   0.525975 0.613742 0.770694 -0.334462
C10   C     C_R   0.523444 0.381420 0.230694 -0.333586
C11   C     C_R   0.438539 0.611199 0.233385 -0.318159
C12   C     C_R   0.740487 0.500070 0.500150 0.965409
C13   C     C_R   0.439686 0.384755 0.766032 -0.320608
C14   C     C_R   0.488463 0.499434 0.729008 -0.139066
C15   C     C_R   0.488221 0.498309 0.271190 -0.138279
C16   C     C_R   0.540318 0.071943 0.562270 -0.103630
C17   C     C_R   0.459525 0.928013 0.437801 -0.077564
C18   C     C_R   0.460358 0.071974 0.437642 -0.039510
C19   C     C_R   0.541235 0.927911 0.562053 -0.095313
C20   C     C_R   0.464380 0.499019 0.886189 -0.074724
C21   C     C_R   0.459637 0.490657 0.114583 -0.074142
C22   C     C_3   0.535602 0.851070 0.868374 0.093296
C23   C     C_1   0.457943 0.495305 0.966548 0.104058
C24   C     C_3   0.654481 0.920949 0.840380 -0.353070
C25   C     C_3   0.628441 0.065342 0.812091 -0.923836
C26   C     C_3   0.527478 0.137813 0.138755 0.089055
C27   C     C_3   0.648178 0.069158 0.164002 -0.344205
C28   C     C_3   0.623737 0.927860 0.197385 -0.930049
C29   C     C_3   0.254956 0.747175 0.133644 0.073336
C30   C     C_3   0.210705 0.870098 0.087447 -0.315602
C31   C     C_3   0.076161 0.905649 0.106265 -0.983350
C32   C     C_3   0.259134 0.245266 0.868907 0.073491
C33   C     C_3   0.217703 0.119362 0.913821 -0.317989
C34   C     C_1   0.456211 0.492630 0.034174 0.106560
C35   C     C_3   0.080382 0.089354 0.901648 -0.978709
C36   C     C_3   0.100120 0.291160 0.357061 0.133890
C37   C     C_3   0.200114 0.216623 0.311240 -0.354169
C38   C     C_3   0.172383 0.220989 0.225826 -1.001798
C39   C     C_3   0.854562 0.801647 0.438942 0.160157
C40   C     C_3   0.965565 0.879180 0.405453 -0.332073
C41   C     C_3   0.934324 0.937476 0.327109 -1.005339
C42   C     C_3   0.863814 0.197841 0.557191 0.148987
C43   C     C_3   0.984049 0.149634 0.595340 -0.355379
C44   C     C_3   0.956104 0.083558 0.672398 -1.002610
C45   C     C_R   0.064789 0.385977 0.473212 0.333983
C46   C     C_3   0.131895 0.735177 0.623146 0.144181
C47   C     C_3   0.225808 0.841811 0.649034 -0.294262
C48   C     C_3   0.233181 0.848772 0.735913 -1.042738
C49   C     C_R   0.937694 0.625761 0.508464 0.347270
C50   C     C_R   0.939301 0.377885 0.487425 0.335626
C51   C     C_R   0.063973 0.621275 0.518691 0.318001
C52   C     C_R   0.498997 0.499874 0.353456 0.902116
H1    H     H_    0.567730 0.699149 0.741149 0.166063
H2    H     H_    0.715400 0.111637 0.790047 0.256542
H3    H     H_    0.593214 0.129250 0.859781 0.309215
H4    H     H_    0.485616 0.074765 0.092920 0.171868
H5    H     H_    0.458584 0.138820 0.186370 0.114552
H6    H     H_    0.711561 0.059195 0.114037 0.237679
H7    H     H_    0.695260 0.132648 0.207583 0.214396
H8    H     H_    0.560742 0.934991 0.247645 0.252310
H9    H     H_    0.712465 0.881276 0.215788 0.262006
H10   H     H_    0.581613 0.860961 0.153555 0.306788
H11   H     H_    0.243528 0.771558 0.195371 0.136148
H12   H     H_    0.565655 0.297139 0.260823 0.167087
H13   H     H_    0.196393 0.657262 0.119045 0.135643
H14   H     H_    0.270222 0.959515 0.100481 0.210609
H15   H     H_    0.219197 0.847427 0.025435 0.225114
H16   H     H_    0.013964 0.820512 0.089689 0.270510
H17   H     H_    0.048491 0.998817 0.074565 0.274068
H18   H     H_    0.065285 0.925872 0.168280 0.270789
H19   H     H_    0.242544 0.225862 0.807143 0.136936
H20   H     H_    0.202790 0.334614 0.887864 0.137795
H21   H     H_    0.273150 0.029628 0.895096 0.215738
H22   H     H_    0.234470 0.135983 0.975719 0.227026
H23   H     H_    0.414058 0.702603 0.264772 0.163412
H24   H     H_    0.022740 0.174384 0.924192 0.270952
H25   H     H_    0.054653 0.994046 0.932069 0.271238
H26   H     H_    0.060824 0.075450 0.840020 0.268173
H27   H     H_    0.572900 0.126400 0.611956 0.127391
H28   H     H_    0.426887 0.873602 0.388123 0.122220
H29   H     H_    0.429827 0.126278 0.387577 0.117265
H30   H     H_    0.574503 0.873352 0.611585 0.140354
H31   H     H_    0.099048 0.399501 0.336907 0.100792
H32   H     H_    0.008316 0.244341 0.345050 0.177251
H33   H     H_    0.290890 0.266644 0.321213 0.232222
H34   H     H_    0.413956 0.294831 0.733858 0.170622
H35   H     H_    0.206235 0.108784 0.330461 0.221424
H36   H     H_    0.078492 0.179763 0.214186 0.271944
H37   H     H_    0.241129 0.158165 0.194350 0.262459
H38   H     H_    0.177927 0.327579 0.204444 0.266110
H39   H     H_    0.775027 0.873433 0.443499 0.170693
H40   H     H_    0.825484 0.719809 0.398491 0.116897
H41   H     H_    0.991719 0.963834 0.444093 0.263153
H42   H     H_    0.046142 0.809443 0.399078 0.227185
H43   H     H_    0.908918 0.854063 0.287270 0.259451
H44   H     H_    0.016360 0.990813 0.303432 0.272531
H45   H     H_    0.497655 0.910726 0.917145 0.175692
H46   H     H_    0.856362 0.011279 0.331585 0.282808
H47   H     H_    0.801263 0.108535 0.551688 0.168938
H48   H     H_    0.815884 0.272288 0.595319 0.127848
H49   H     H_    0.032771 0.075240 0.558081 0.254218
H50   H     H_    0.046567 0.237755 0.605259 0.210199
H51   H     H_    0.903670 0.155213 0.709588 0.259928
H52   H     H_    0.044259 0.058381 0.701249 0.273222
H53   H     H_    0.901454 0.988582 0.664614 0.282866
H54   H     H_    0.163120 0.633696 0.644929 0.101748
H55   H     H_    0.039321 0.759772 0.648051 0.155788
H56   H     H_    0.463119 0.853853 0.823475 0.121324
H57   H     H_    0.318695 0.815337 0.625830 0.247401
H58   H     H_    0.199626 0.943404 0.626157 0.228460
H59   H     H_    0.139792 0.864181 0.761450 0.273942
H60   H     H_    0.292912 0.935892 0.752520 0.265217
H61   H     H_    0.273262 0.752779 0.758813 0.271605
H62   H     H_    0.722206 0.925748 0.887946 0.238467
H63   H     H_    0.697184 0.861218 0.793250 0.212228
H64   H     H_    0.559194 0.063703 0.765336 0.254575
N1    N     N_R   0.500000 0.857200 0.500000 -0.084676
N2    N     N_R   0.500000 0.142800 0.500000 -0.072529
O1    O     O_R   0.316770 0.614620 0.500000 -0.583053
O2    O     O_3   0.553572 0.267978 0.107259 -0.635628
O3    O     O_3   0.380465 0.721190 0.115361 -0.648275
O4    O     O_3   0.386117 0.268421 0.883086 -0.647150
O5    O     O_3   0.125523 0.280288 0.436143 -0.595038
O6    O     O_3   0.879173 0.751591 0.513497 -0.607755
O7    O     O_3   0.883330 0.250966 0.482601 -0.608984
O8    O     O_3   0.124920 0.737687 0.542641 -0.597985
O9    O     O_R   0.683230 0.385380 0.500000 -0.593112
O10   O     O_R   0.683230 0.614620 0.500000 -0.594360
O11   O     O_R   0.316770 0.385380 0.500000 -0.576889
O12   O     O_R   0.500010 0.614710 0.389120 -0.639370
O13   O     O_R   0.499990 0.385290 0.610880 -0.640721
O14   O     O_R   0.499990 0.614710 0.610880 -0.638118
O15   O     O_R   0.500010 0.385290 0.389120 -0.635780
O16   O     O_3   0.563320 0.718439 0.895596 -0.633685
Zn1   Zn    Zn3+2 0.500000 0.653120 0.500000 0.944227
Zn2   Zn    Zn3+2 0.500000 0.346880 0.500000 0.955408

loop_
_geom_bond_atom_site_label_1
_geom_bond_atom_site_label_2
_ccdc_geom_bond_type
C29   H11   S    
C24   H62   S    
C8    C13   A    
O12   Zn1   S    
C40   H41   S    
C43   C44   S    
C44   H52   S    
C32   H20   S    
C12   O9    A    
C44   H53   S    
C45   O5    S    
C7    C11   A    
C38   H37   S    
C26   C27   S    
C29   C30   S    
C22   O16   S    
C37   H33   S    
C36   C37   S    
C26   O2    S    
C1    O11   A    
C10   C15   A    
O14   Zn1   S    
C30   C31   S    
C41   H44   S    
C36   H31   S    
O9    Zn2   S    
C16   N2    A    
C18   H29   S    
C1    O1    A    
C39   H39   S    
C3    C12   S    
C42   O7    S    
C11   C15   A    
C3    C50   A    
C31   H18   S    
C49   C51   A    
C29   O3    S    
C13   H34   S    
O15   Zn2   S    
C2    O14   A    
C19   H30   S    
C18   N2    A    
C30   H15   S    
C17   N1    A    
C28   H9    S    
C22   H45   S    
C13   C14   A    
C52   O15   A    
C31   H16   S    
C7    O3    S    
C6    O2    S    
C44   H51   S    
C46   O8    S    
C17   C18   A    
C32   H19   S    
C4    C45   A    
C28   H8    S    
C3    C49   A    
C5    O16   S    
C35   H24   S    
C4    C51   A    
C32   O4    S    
C36   O5    S    
C25   H2    S    
O13   Zn2   S    
O10   Zn1   S    
C39   C40   S    
C5    C20   A    
C21   C34   S    
C47   H57   S    
C6    C21   A    
C35   H25   S    
C17   H28   S    
O1    Zn1   S    
C39   O6    S    
C38   H36   S    
C9    C14   A    
C43   H49   S    
C5    C9    A    
C37   C38   S    
C42   H48   S    
O11   Zn2   S    
C47   C48   S    
C20   C23   S    
C23   C34   T    
C46   H55   S    
C2    O13   A    
C50   O7    S    
C8    C20   A    
C15   C52   S    
C24   C25   S    
C30   H14   S    
C29   H13   S    
C33   H21   S    
C40   C41   S    
C48   H60   S    
C22   C24   S    
C25   H64   S    
C9    H1    S    
C42   C43   S    
N1    Zn1   S    
C39   H40   S    
N2    Zn2   S    
C46   C47   S    
C51   O8    S    
C37   H35   S    
C10   H12   S    
C25   H3    S    
C40   H42   S    
C27   H6    S    
C26   H4    S    
C6    C10   A    
C12   O10   A    
C47   H58   S    
C38   H38   S    
C35   H26   S    
C1    C4    S    
C52   O12   A    
C32   C33   S    
C16   H27   S    
C43   H50   S    
C11   H23   S    
C42   H47   S    
C7    C21   A    
C49   O6    S    
C8    O4    S    
C41   H43   S    
C45   C50   A    
C36   H32   S    
C16   C19   A    
C22   H56   S    
C46   H54   S    
C33   C35   S    
C2    C14   S    
C26   H5    S    
C33   H22   S    
C31   H17   S    
C48   H59   S    
C19   N1    A    
C24   H63   S    
C27   C28   S    
C41   H46   S    
C27   H7    S    
C48   H61   S    
C28   H10   S    
