data_mof_unit_31816.cif
_audit_creation_date              2012-12-10T17:22:38-0500
_audit_creation_method            fapswitch 2.2
_symmetry_space_group_name_H-M    P1
_symmetry_Int_Tables_number       1
_space_group_crystal_system       triclinic
_cell_length_a                    10.619658
_cell_length_b                    10.82096
_cell_length_c                    9.617737
_cell_angle_alpha                 89.718558
_cell_angle_beta                  88.16025
_cell_angle_gamma                 94.499452
_cell_volume                      1101.21645587

loop_
_atom_site_label
_atom_site_type_symbol
_atom_type_description
_atom_site_fract_x
_atom_site_fract_y
_atom_site_fract_z
_atom_type_partial_charge
C1    C     C_R   0.505898 0.262338 0.501008 0.795210
C2    C     C_3   0.966083 0.497867 0.366426 -0.182355
C3    C     C_3   0.035915 0.392960 0.432603 -0.278799
C4    C     C_3   0.121927 0.492655 0.504922 -0.039812
C5    C     C_R   0.537399 0.111371 0.761949 -0.090414
C6    C     C_R   0.502119 0.050252 0.886599 -0.247478
C7    C     C_R   0.430528 0.937297 0.884701 -0.219671
C8    C     C_R   0.406236 0.878292 0.758258 0.538204
C9    C     C_R   0.457614 0.933126 0.631511 -0.029841
C10   C     C_R   0.501905 0.059179 0.632781 0.021455
C11   C     C_R   0.507315 0.126881 0.505003 -0.071465
C12   C     C_R   0.259236 0.496015 0.501927 0.799983
C13   C     C_R   0.494512 0.062985 0.379198 -0.220546
C14   C     C_R   0.479731 0.935028 0.378547 -0.246170
C15   C     C_R   0.467425 0.868497 0.503944 -0.108950
C16   C     C_R   0.641184 0.701595 0.129965 0.513417
C17   C     C_R   0.671479 0.807895 0.045649 -0.315515
C18   C     C_R   0.684389 0.795176 0.904349 -0.277955
C19   C     C_R   0.646227 0.683882 0.844920 -0.094861
C20   C     C_R   0.571260 0.592088 0.920698 0.097420
C21   C     C_R   0.569621 0.596225 0.070201 0.094048
C22   C     C_R   0.433188 0.411256 0.077272 -0.180745
C23   C     C_R   0.486012 0.735751 0.500873 0.811636
C24   C     C_R   0.428719 0.413318 0.928710 0.535180
C25   C     C_R   0.740445 0.499014 0.498275 0.816093
C26   C     C_3   0.033257 0.491318 0.634927 -0.201338
C27   C     C_3   0.946112 0.393919 0.561709 0.556870
C28   C     C_3   0.877327 0.496765 0.495837 -0.024207
C29   C     C_3   0.963854 0.595580 0.567083 -0.254631
C30   C     C_3   0.054731 0.596921 0.438061 -0.141493
Cu1   Cu    Cu3+1 0.499990 0.499990 0.640660 1.004273
Cu2   Cu    Cu3+1 0.500010 0.500010 0.359340 0.968653
H1    H     H_    0.395319 0.894207 0.981658 0.154673
H2    H     H_    0.480388 0.888226 0.279263 0.160556
H3    H     H_    0.380742 0.337786 0.136120 0.146788
H4    H     H_    0.704677 0.896839 0.086390 0.150392
H5    H     H_    0.728350 0.870669 0.840943 0.164904
H6    H     H_    0.674154 0.676368 0.738438 0.186968
H7    H     H_    0.061727 0.488565 0.744745 0.133666
H8    H     H_    0.930958 0.678765 0.619922 0.124683
H9    H     H_    0.106506 0.679987 0.389440 0.143935
H10   H     H_    0.935622 0.500699 0.257198 0.159751
H11   H     H_    0.069546 0.311010 0.377921 0.130769
H12   H     H_    0.498589 0.111648 0.280241 0.157306
H13   H     H_    0.595167 0.197596 0.768978 0.196425
H14   H     H_    0.526599 0.092648 0.984847 0.155688
N1    N     N_R   0.501210 0.501210 0.147910 -0.204119
N2    N     N_R   0.501250 0.501290 0.852040 -0.211223
O1    O     O_R   0.499990 0.319640 0.618810 -0.544991
O2    O     O_R   0.500000 0.319660 0.381240 -0.598470
O3    O     O_R   0.316850 0.499960 0.618770 -0.541371
O4    O     O_R   0.316860 0.499980 0.381190 -0.587501
O5    O     O_R   0.500000 0.680340 0.618760 -0.564645
O6    O     O_R   0.500010 0.680360 0.381190 -0.563326
O7    O     O_R   0.683140 0.500020 0.618810 -0.605891
O8    O     O_R   0.683150 0.500040 0.381230 -0.523101
O9    O     O_3   0.877739 0.293044 0.630657 -0.590916
C31   C     C_3   0.946622 0.187256 0.622468 -0.383953
H15   H     H_    0.045455 0.206639 0.655903 0.160958
H16   H     H_    0.945666 0.149633 0.515293 0.172690
H17   H     H_    0.900086 0.114711 0.692823 0.190934
O10   O     O_3   0.326390 0.771142 0.760967 -0.556732
C32   C     C_3   0.205171 0.801551 0.724036 -0.364785
H18   H     H_    0.202855 0.821939 0.610741 0.160962
H19   H     H_    0.172304 0.880558 0.785663 0.147645
H20   H     H_    0.137474 0.720653 0.747665 0.199623
O11   O     O_3   0.703844 0.686838 0.252855 -0.573410
C33   C     C_3   0.771264 0.792928 0.308736 0.072879
H21   H     H_    0.781887 0.772964 0.420976 0.145615
H22   H     H_    0.717784 0.876842 0.307175 0.124837
C34   C     C_3   0.904596 0.816266 0.241541 -0.367058
H23   H     H_    0.950487 0.728205 0.236015 0.227917
H24   H     H_    0.901513 0.850869 0.133295 0.209934
C35   C     C_3   0.985613 0.911125 0.323630 -0.960534
H25   H     H_    0.944010 0.002076 0.321687 0.258852
H26   H     H_    0.082446 0.922637 0.275832 0.260715
H27   H     H_    0.992261 0.880074 0.433234 0.249623
O12   O     O_3   0.359737 0.320810 0.858358 -0.589359
C36   C     C_3   0.232007 0.306028 0.906777 0.042762
H28   H     H_    0.172262 0.320381 0.816724 0.163071
H29   H     H_    0.205150 0.374315 0.986977 0.118289
C37   C     C_3   0.201334 0.173554 0.960850 -0.353241
H30   H     H_    0.215766 0.107532 0.874687 0.226119
H31   H     H_    0.266035 0.153519 0.045175 0.212810
C38   C     C_3   0.065079 0.153895 0.016763 -0.940985
H32   H     H_    0.050429 0.214145 0.108143 0.258888
H33   H     H_    0.044539 0.055685 0.049443 0.260903
H34   H     H_    0.998385 0.175419 0.935082 0.266881

loop_
_geom_bond_atom_site_label_1
_geom_bond_atom_site_label_2
_ccdc_geom_bond_type
C32   H19   S    
C16   C21   A    
C19   C20   A    
C1    C11   S    
C25   O8    A    
C7    C8    A    
C38   H32   S    
C25   C28   S    
C22   H3    S    
C3    H11   S    
C26   C27   S    
O10   C32   S    
C35   H26   S    
C28   C29   S    
C18   H5    S    
C5    C6    A    
C26   H7    S    
C31   H16   S    
C18   C19   A    
Cu2   O4    S    
C8    C9    A    
C35   H27   S    
C30   H9    S    
C17   H4    S    
C4    C12   S    
C1    O2    A    
C31   H17   S    
C15   C23   S    
C22   N1    A    
C32   H20   S    
C13   C14   A    
C7    H1    S    
Cu1   O1    S    
Cu2   O6    S    
C12   O4    A    
C23   O5    A    
C38   H33   S    
C35   H25   S    
O11   C33   S    
C24   N2    A    
C27   O9    S    
C34   H24   S    
O12   C36   S    
C33   H21   S    
C31   H15   S    
C5    H13   S    
C36   H28   S    
C29   C30   S    
C19   H6    S    
C36   C37   S    
Cu1   Cu2   S    
C17   C18   A    
C16   O11   S    
Cu1   O5    S    
Cu2   O2    S    
C20   N2    A    
C24   O12   S    
C37   H31   S    
Cu1   N2    S    
Cu2   N1    S    
C22   C24   A    
C3    C4    S    
C12   O3    A    
C23   O6    A    
C36   H29   S    
C9    C10   A    
C38   H34   S    
C6    H14   S    
C25   O7    A    
Cu1   O3    S    
C14   H2    S    
C34   C35   S    
C4    C26   S    
C6    C7    A    
C37   C38   S    
C2    C30   S    
C3    C27   S    
C2    C3    S    
C9    C15   A    
C5    C10   A    
C11   C13   A    
O9    C31   S    
C16   C17   A    
C2    H10   S    
C33   C34   S    
C29   H8    S    
C10   C11   A    
C32   H18   S    
C34   H23   S    
C20   C21   A    
C26   C29   S    
C33   H22   S    
C37   H30   S    
C27   C28   S    
C14   C15   A    
C2    C28   S    
Cu1   O7    S    
C1    O1    A    
Cu2   O8    S    
C13   H12   S    
C4    C30   S    
C8    O10   S    
C21   N1    A    
