data_mof_unit_64977.cif
_audit_creation_date              2013-03-05T16:05:43-0500
_audit_creation_method            fapswitch 2.2
_symmetry_space_group_name_H-M    P1
_symmetry_Int_Tables_number       1
_space_group_crystal_system       triclinic
_cell_length_a                    30.31962
_cell_length_b                    30.193137
_cell_length_c                    24.657547
_cell_angle_alpha                 90.102199
_cell_angle_beta                  127.998982
_cell_angle_gamma                 90.000723
_cell_volume                      17787.6637639

loop_
_atom_site_label
_atom_site_type_symbol
_atom_site_description
_atom_site_fract_x
_atom_site_fract_y
_atom_site_fract_z
_atom_type_partial_charge
O1    O     O_R   0.822280 0.769280 0.499990 -0.595016
O2    O     O_R   0.177720 0.769280 0.500010 -0.595442
O3    O     O_R   0.322280 0.269280 0.499990 -0.595005
O4    O     O_R   0.677720 0.269280 0.500010 -0.594899
O5    O     O_R   0.769270 0.822280 0.499990 -0.562306
O6    O     O_R   0.230730 0.822280 0.500010 -0.559638
O7    O     O_R   0.269270 0.322280 0.499990 -0.562279
O8    O     O_R   0.730730 0.322280 0.500010 -0.562453
C1    C     C_R   0.810059 0.810272 0.499846 0.821007
C2    C     C_R   0.189814 0.810274 0.499899 0.818030
C3    C     C_R   0.310058 0.310273 0.499846 0.820765
C4    C     C_R   0.689922 0.310273 0.500115 0.820664
O9    O     O_R   0.726580 0.723490 0.400140 -0.591266
O10   O     O_R   0.273420 0.723490 0.599860 -0.591632
O11   O     O_R   0.226580 0.223490 0.400140 -0.591453
O12   O     O_R   0.773420 0.223490 0.599860 -0.591679
O13   O     O_R   0.673560 0.776500 0.400140 -0.541103
O14   O     O_R   0.326440 0.776500 0.599860 -0.539990
O15   O     O_R   0.173560 0.276500 0.400140 -0.541250
O16   O     O_R   0.826440 0.276500 0.599860 -0.541504
C5    C     C_R   0.684487 0.750694 0.367558 0.842544
C6    C     C_R   0.315561 0.750744 0.632457 0.840991
C7    C     C_R   0.184493 0.250701 0.367556 0.842402
C8    C     C_R   0.815567 0.250731 0.632451 0.842700
Cu1   Cu    Cu3+1 0.781380 0.718610 0.500000 0.955616
Cu2   Cu    Cu3+1 0.218620 0.718610 0.500000 0.955186
Cu3   Cu    Cu3+1 0.281380 0.218610 0.500000 0.955648
Cu4   Cu    Cu3+1 0.718620 0.218610 0.500000 0.955805
Cu5   Cu    Cu3+1 0.718600 0.781380 0.500000 1.002285
Cu6   Cu    Cu3+1 0.281400 0.781380 0.500000 1.004062
Cu7   Cu    Cu3+1 0.218600 0.281380 0.500000 1.002400
Cu8   Cu    Cu3+1 0.781400 0.281380 0.500000 1.002460
O17   O     O_R   0.730720 0.677700 0.500010 -0.590609
O18   O     O_R   0.269280 0.677700 0.499990 -0.590463
O19   O     O_R   0.230720 0.177700 0.500010 -0.590665
O20   O     O_R   0.769280 0.177700 0.499990 -0.590469
O21   O     O_R   0.677700 0.730710 0.500010 -0.589145
O22   O     O_R   0.322300 0.730710 0.499990 -0.589157
O23   O     O_R   0.177700 0.230710 0.500010 -0.589011
O24   O     O_R   0.822300 0.230710 0.499990 -0.589216
O25   O     O_R   0.826430 0.723490 0.599850 -0.587191
O26   O     O_R   0.173570 0.723490 0.400150 -0.587270
O27   O     O_R   0.326430 0.223490 0.599850 -0.586920
O28   O     O_R   0.673570 0.223490 0.400150 -0.586737
O29   O     O_R   0.773410 0.776490 0.599850 -0.590952
O30   O     O_R   0.226590 0.776490 0.400150 -0.591133
O31   O     O_R   0.273410 0.276490 0.599850 -0.590816
O32   O     O_R   0.726590 0.276490 0.400150 -0.590491
C9    C     C_R   0.689908 0.689707 0.500124 0.773456
C10   C     C_R   0.310188 0.689704 0.500071 0.773290
C11   C     C_R   0.189876 0.189704 0.500054 0.773427
C12   C     C_R   0.810195 0.189705 0.500084 0.773216
C13   C     C_R   0.816284 0.750003 0.632596 0.768773
C14   C     C_R   0.183682 0.749953 0.367404 0.768726
C15   C     C_R   0.316283 0.250002 0.632596 0.768735
C16   C     C_R   0.683678 0.249956 0.367404 0.768646
C17   C     C_R   0.625662 0.792196 0.254879 0.336007
C18   C     C_R   0.375310 0.792219 0.745468 0.333527
C19   C     C_R   0.125607 0.292213 0.254878 0.335847
C20   C     C_R   0.874857 0.292254 0.745415 0.335656
C21   C     C_R   0.588385 0.791158 0.182673 -0.207914
C22   C     C_R   0.412657 0.791149 0.817665 -0.207796
C23   C     C_R   0.088342 0.291181 0.182669 -0.207951
C24   C     C_R   0.912233 0.291214 0.817616 -0.207903
H1    H     H_    0.571747 0.822088 0.154894 0.192686
H2    H     H_    0.429858 0.822033 0.845669 0.192673
H3    H     H_    0.071649 0.322109 0.154899 0.192680
H4    H     H_    0.929095 0.322137 0.845604 0.192692
C25   C     C_R   0.573807 0.751028 0.146324 -0.009272
C26   C     C_R   0.426588 0.751067 0.853727 -0.009061
C27   C     C_R   0.073851 0.251064 0.146309 -0.009282
C28   C     C_R   0.926604 0.251095 0.853700 -0.009270
C29   C     C_R   0.596922 0.711454 0.183420 -0.146497
C30   C     C_R   0.402768 0.711566 0.816351 -0.147012
C31   C     C_R   0.097048 0.211496 0.183399 -0.146629
C32   C     C_R   0.903198 0.211535 0.816340 -0.146753
H5    H     H_    0.586722 0.679984 0.157012 0.162325
H6    H     H_    0.412463 0.680134 0.842530 0.162246
H7    H     H_    0.086916 0.180035 0.156987 0.162278
H8    H     H_    0.913233 0.180072 0.842532 0.162255
C33   C     C_R   0.633609 0.711959 0.255242 -0.241161
C34   C     C_R   0.366006 0.712094 0.744539 -0.239692
C35   C     C_R   0.133716 0.211994 0.255222 -0.240810
C36   C     C_R   0.866423 0.212039 0.744529 -0.240429
H9    H     H_    0.650210 0.680840 0.282518 0.161944
H10   H     H_    0.348852 0.681015 0.717060 0.162247
H11   H     H_    0.150374 0.180877 0.282488 0.161950
H12   H     H_    0.849594 0.180925 0.717055 0.161824
C37   C     C_R   0.647861 0.751943 0.291694 -0.141609
C38   C     C_R   0.352362 0.752026 0.708353 -0.142508
C39   C     C_R   0.147878 0.251963 0.291687 -0.141680
C40   C     C_R   0.852355 0.252009 0.708333 -0.141572
N1    N     N_R   0.517120 0.712098 0.034168 -0.240570
N2    N     N_R   0.482642 0.712108 0.965587 -0.240594
N3    N     N_R   0.017404 0.212137 0.034147 -0.240644
N4    N     N_R   0.982924 0.212145 0.965567 -0.240668
C41   C     C_R   0.465081 0.750799 0.930010 0.434432
C42   C     C_R   0.535356 0.750781 0.070039 0.434529
C43   C     C_R   0.965114 0.250837 0.929987 0.434555
C44   C     C_R   0.035401 0.250820 0.070020 0.434551
N5    N     N_R   0.483391 0.789422 0.965929 -0.227157
N6    N     N_R   0.517730 0.789413 0.034414 -0.227147
N7    N     N_R   0.983183 0.289461 0.965906 -0.227159
N8    N     N_R   0.017529 0.289453 0.034392 -0.227176
C45   C     C_3   0.903936 0.856349 0.562091 -0.159444
C46   C     C_3   0.158106 0.894057 0.487131 -0.150595
C47   C     C_3   0.404137 0.356041 0.561883 -0.158936
C48   C     C_3   0.596070 0.356262 0.437658 -0.158318
C49   C     C_3   0.888399 0.906021 0.547060 -0.177525
C50   C     C_3   0.158865 0.905232 0.548903 -0.125839
C51   C     C_3   0.388874 0.405786 0.547548 -0.177297
C52   C     C_3   0.611687 0.405960 0.452909 -0.177192
H13   H     H_    0.900420 0.931949 0.585956 0.141172
H14   H     H_    0.185830 0.930494 0.589114 0.151456
H15   H     H_    0.401285 0.431519 0.586844 0.141284
H16   H     H_    0.599809 0.431836 0.414146 0.140372
H17   H     H_    0.927331 0.840272 0.613298 0.131957
H18   H     H_    0.185616 0.909028 0.476653 0.154286
H19   H     H_    0.427700 0.339709 0.612920 0.132010
H20   H     H_    0.572760 0.340110 0.386406 0.131833
C53   C     C_3   0.905049 0.905645 0.499601 0.001461
C54   C     C_3   0.094675 0.905653 0.499840 0.002059
C55   C     C_3   0.405046 0.405650 0.499603 0.001505
C56   C     C_3   0.594834 0.405648 0.500159 0.001843
C57   C     C_3   0.921115 0.856563 0.514623 -0.157264
C58   C     C_3   0.093395 0.894983 0.438021 -0.172029
C59   C     C_3   0.420836 0.356494 0.513927 -0.158443
C60   C     C_3   0.578688 0.356545 0.484922 -0.158315
C61   C     C_3   0.860589 0.844340 0.452064 -0.132838
C62   C     C_3   0.091527 0.845142 0.450738 -0.165084
C63   C     C_3   0.360106 0.344581 0.451578 -0.133012
C64   C     C_3   0.639135 0.344409 0.547581 -0.134487
C65   C     C_3   0.845071 0.893950 0.437047 -0.129676
C66   C     C_3   0.092278 0.856342 0.512579 -0.166536
C67   C     C_3   0.344864 0.394267 0.437257 -0.129431
C68   C     C_3   0.654737 0.394035 0.562814 -0.129602
C69   C     C_3   0.827951 0.893818 0.484570 -0.125770
C70   C     C_3   0.157001 0.855327 0.561627 -0.104540
C71   C     C_3   0.328224 0.393895 0.485266 -0.126339
C72   C     C_3   0.672057 0.393840 0.515501 -0.126034
C73   C     C_3   0.844008 0.844686 0.499592 0.017586
C74   C     C_3   0.155704 0.844691 0.499831 0.017460
C75   C     C_3   0.344006 0.344689 0.499593 0.017937
C76   C     C_3   0.655922 0.344687 0.500266 0.017507
H21   H     H_    0.959948 0.842017 0.526887 0.125493
H22   H     H_    0.066787 0.911815 0.387321 0.148578
H23   H     H_    0.459440 0.341886 0.525617 0.126415
H24   H     H_    0.539771 0.341981 0.472437 0.126499
H25   H     H_    0.848498 0.818432 0.413116 0.145325
H26   H     H_    0.064602 0.819876 0.410513 0.138252
H27   H     H_    0.347622 0.318867 0.412233 0.145214
H28   H     H_    0.651076 0.318559 0.586400 0.145271
H29   H     H_    0.821412 0.909926 0.385743 0.159798
H30   H     H_    0.064603 0.841611 0.522972 0.126341
H31   H     H_    0.321042 0.410501 0.386127 0.159702
H32   H     H_    0.678326 0.410078 0.614173 0.159974
H33   H     H_    0.789155 0.908567 0.472139 0.169393
H34   H     H_    0.183776 0.838417 0.612253 0.153470
H35   H     H_    0.289654 0.408708 0.473405 0.168873
H36   H     H_    0.710942 0.408604 0.528162 0.169235
C77   C     C_R   0.835820 0.765696 0.745242 -0.182208
C78   C     C_R   0.164064 0.765561 0.254794 -0.183005
C79   C     C_R   0.335810 0.265687 0.745238 -0.182512
C80   C     C_R   0.664062 0.265551 0.254793 -0.182596
H37   H     H_    0.793505 0.777839 0.718263 0.150791
H38   H     H_    0.206413 0.777710 0.281796 0.151161
H39   H     H_    0.293492 0.277827 0.718256 0.150905
H40   H     H_    0.706418 0.277682 0.281794 0.151245
C81   C     C_R   0.871588 0.765256 0.817182 -0.153829
C82   C     C_R   0.128240 0.765135 0.182861 -0.153790
C83   C     C_R   0.371575 0.265248 0.817178 -0.153724
C84   C     C_R   0.628235 0.265128 0.182860 -0.153703
H41   H     H_    0.856168 0.777406 0.844055 0.151916
H42   H     H_    0.143660 0.777296 0.156031 0.152086
H43   H     H_    0.356151 0.277395 0.844048 0.151977
H44   H     H_    0.643661 0.277272 0.156029 0.152088
C85   C     C_R   0.926848 0.749930 0.853914 0.054882
C86   C     C_R   0.072928 0.749822 0.146085 0.054887
C87   C     C_R   0.426837 0.249927 0.853914 0.054875
C88   C     C_R   0.572915 0.249835 0.146086 0.054877
C89   C     C_R   0.945433 0.734649 0.817231 -0.151675
C90   C     C_R   0.054352 0.734522 0.182723 -0.151746
C91   C     C_R   0.445426 0.234649 0.817235 -0.151621
C92   C     C_R   0.554332 0.234558 0.182727 -0.151578
H45   H     H_    0.987720 0.722471 0.844136 0.152911
H46   H     H_    0.012024 0.722350 0.155775 0.152699
H47   H     H_    0.487715 0.222473 0.844142 0.152917
H48   H     H_    0.511997 0.222403 0.155781 0.152842
C93   C     C_R   0.909326 0.734288 0.745294 -0.182060
C94   C     C_R   0.090523 0.734146 0.254667 -0.181219
C95   C     C_R   0.409322 0.234286 0.745298 -0.181815
C96   C     C_R   0.590505 0.234179 0.254671 -0.181834
H49   H     H_    0.924709 0.722165 0.718362 0.151691
H50   H     H_    0.075152 0.722024 0.281577 0.151079
H51   H     H_    0.424708 0.222167 0.718368 0.151699
H52   H     H_    0.575130 0.222075 0.281584 0.151639
C97   C     C_R   0.854265 0.750007 0.708620 -0.027741
C98   C     C_R   0.145630 0.749874 0.291379 -0.027519
C99   C     C_R   0.354260 0.250003 0.708620 -0.027849
C100  C     C_R   0.645623 0.249883 0.291380 -0.028107
N9    N     N_R   0.021289 0.749778 0.965786 -0.236373
N10   N     N_R   0.978454 0.749742 0.034214 -0.236449
N11   N     N_R   0.521277 0.249772 0.965788 -0.236372
N12   N     N_R   0.478441 0.249760 0.034213 -0.236329
N13   N     N_R   0.055565 0.749931 0.034341 -0.235698
N14   N     N_R   0.944176 0.749962 0.965655 -0.235765
N15   N     N_R   0.555552 0.249929 0.034343 -0.235695
N16   N     N_R   0.444164 0.249975 0.965655 -0.235667
C101  C     C_R   0.034850 0.749820 0.069958 0.407520
C102  C     C_R   0.964895 0.749891 0.930041 0.407523
C103  C     C_R   0.534837 0.249831 0.069958 0.407566
C104  C     C_R   0.464883 0.249891 0.930041 0.407558
C105  C     C_3   0.595157 0.644885 0.438690 -0.145758
C106  C     C_3   0.408189 0.652424 0.553383 -0.150361
C107  C     C_3   0.093142 0.148637 0.442126 -0.148537
C108  C     C_3   0.908309 0.152959 0.552556 -0.151123
C109  C     C_3   0.579963 0.643645 0.488144 -0.145033
C110  C     C_3   0.411480 0.644017 0.494024 -0.145596
C111  C     C_3   0.083938 0.144113 0.497009 -0.144622
C112  C     C_3   0.910702 0.143950 0.492602 -0.145783
H53   H     H_    0.542086 0.658409 0.478258 0.122111
H54   H     H_    0.442214 0.659095 0.489017 0.121381
H55   H     H_    0.049335 0.159272 0.494447 0.121114
H56   H     H_    0.940791 0.158971 0.486420 0.121439
H57   H     H_    0.571082 0.662012 0.388228 0.130737
H58   H     H_    0.434867 0.675749 0.596977 0.136250
H59   H     H_    0.067432 0.168859 0.394574 0.133299
H60   H     H_    0.935075 0.176719 0.595454 0.136655
C113  C     C_3   0.594883 0.594281 0.500274 0.017437
C114  C     C_3   0.405324 0.594259 0.500179 0.017374
C115  C     C_3   0.094859 0.094254 0.500176 0.017438
C116  C     C_3   0.905337 0.094264 0.500197 0.017343
C117  C     C_3   0.609534 0.594932 0.450815 -0.161083
C118  C     C_3   0.402581 0.602119 0.559532 -0.165294
C119  C     C_3   0.103515 0.098209 0.445287 -0.163014
C120  C     C_3   0.903491 0.102729 0.560144 -0.165537
C121  C     C_3   0.670789 0.605853 0.512386 -0.161316
C122  C     C_3   0.338172 0.605443 0.506306 -0.163942
C123  C     C_3   0.166738 0.105337 0.503302 -0.162889
C124  C     C_3   0.838977 0.105518 0.507770 -0.164084
C125  C     C_3   0.655663 0.604698 0.561897 -0.158750
C126  C     C_3   0.341426 0.597079 0.446983 -0.154562
C127  C     C_3   0.157594 0.100877 0.558208 -0.157541
C128  C     C_3   0.841339 0.096549 0.447860 -0.154189
C129  C     C_3   0.641299 0.654597 0.549781 -0.152134
C130  C     C_3   0.347042 0.647415 0.440834 -0.145302
C131  C     C_3   0.147226 0.151294 0.555044 -0.147906
C132  C     C_3   0.846163 0.146817 0.440270 -0.144484
C133  C     C_3   0.655901 0.655275 0.500278 0.021417
C134  C     C_3   0.344309 0.655262 0.500164 0.021748
C135  C     C_3   0.155847 0.155258 0.500142 0.021543
C136  C     C_3   0.844324 0.155265 0.500190 0.021822
H61   H     H_    0.595903 0.569833 0.410287 0.136962
H62   H     H_    0.425890 0.582948 0.608190 0.143552
H63   H     H_    0.085023 0.075824 0.400319 0.140920
H64   H     H_    0.927530 0.084058 0.609289 0.144009
H65   H     H_    0.708589 0.590837 0.522379 0.150279
H66   H     H_    0.307602 0.590087 0.511372 0.149154
H67   H     H_    0.201219 0.089892 0.505891 0.150332
H68   H     H_    0.809060 0.090224 0.514028 0.148909
H69   H     H_    0.679958 0.587641 0.612426 0.149509
H70   H     H_    0.314678 0.573762 0.403398 0.144921
H71   H     H_    0.183448 0.080687 0.605780 0.147067
H72   H     H_    0.814514 0.072793 0.404976 0.144472
H73   H     H_    0.654983 0.679686 0.590338 0.135592
H74   H     H_    0.323596 0.666636 0.392216 0.131161
H75   H     H_    0.165819 0.173701 0.600008 0.133076
H76   H     H_    0.821983 0.165544 0.391172 0.130913
O33   O     O_R   0.425350 0.545750 0.442230 -0.586741
O34   O     O_R   0.574650 0.545750 0.557770 -0.588206
O35   O     O_R   0.925350 0.045750 0.442230 -0.586423
O36   O     O_R   0.074650 0.045750 0.557770 -0.587811
O37   O     O_R   0.483150 0.545730 0.557820 -0.589165
O38   O     O_R   0.516850 0.545730 0.442180 -0.587568
O39   O     O_R   0.983150 0.045730 0.557820 -0.589293
O40   O     O_R   0.016850 0.045730 0.442180 -0.588188
C137  C     C_R   0.439637 0.560137 0.500067 0.782801
C138  C     C_R   0.560411 0.560152 0.500056 0.782986
C139  C     C_R   0.939642 0.060140 0.500070 0.782858
C140  C     C_R   0.060419 0.060133 0.500040 0.782658
O41   O     O_R   0.925350 0.954170 0.442210 -0.589624
O42   O     O_R   0.074650 0.954170 0.557790 -0.586689
O43   O     O_R   0.425350 0.454170 0.442210 -0.590007
O44   O     O_R   0.574650 0.454170 0.557790 -0.589759
O45   O     O_R   0.983160 0.954150 0.557800 -0.585257
O46   O     O_R   0.016840 0.954150 0.442200 -0.588367
O47   O     O_R   0.483160 0.454150 0.557800 -0.585061
O48   O     O_R   0.516840 0.454150 0.442200 -0.585163
C141  C     C_R   0.939584 0.939750 0.499902 0.787702
C142  C     C_R   0.060350 0.939755 0.499957 0.787155
C143  C     C_R   0.439581 0.439752 0.499902 0.787329
C144  C     C_R   0.560375 0.439752 0.500010 0.787375
Cu9   Cu    Cu3+1 0.965810 0.999960 0.431560 0.950438
Cu10  Cu    Cu3+1 0.034190 0.999960 0.568440 0.952116
Cu11  Cu    Cu3+1 0.465810 0.499960 0.431560 0.952218
Cu12  Cu    Cu3+1 0.534190 0.499960 0.568440 0.950517
N17   N     N_R   0.642351 0.834356 0.289449 0.124379
O49   O     O_R   0.694788 0.842269 0.339711 -0.384174
O50   O     O_R   0.606940 0.867048 0.264012 -0.349946
N18   N     N_R   0.359339 0.834379 0.711234 0.125105
O51   O     O_R   0.307019 0.842728 0.661194 -0.382932
O52   O     O_R   0.395365 0.866715 0.736816 -0.348222
N19   N     N_R   0.142218 0.334368 0.289457 0.124403
O53   O     O_R   0.194644 0.342337 0.339699 -0.383847
O54   O     O_R   0.106741 0.367013 0.264036 -0.349990
N20   N     N_R   0.858371 0.334410 0.711133 0.124364
O55   O     O_R   0.805961 0.342386 0.661001 -0.383556
O56   O     O_R   0.893972 0.367049 0.736730 -0.350038

loop_
_geom_bond_atom_site_label_1
_geom_bond_atom_site_label_2
_geom_bond_distance
_ccdc_geom_bond_type
C64   C76   1.533449 S    
C43   N7    1.357737 A    
C65   C69   1.546439 S    
C48   H20   1.110168 S    
C63   H27   1.110141 S    
C68   C72   1.546320 S    
C121  C133  1.534696 S    
C51   C71   1.545854 S    
N19   O54   1.301349 A    
C67   C71   1.546434 S    
C82   C86   1.405164 A    
C125  C129  1.546029 S    
C123  H67   1.110153 S    
C109  C129  1.547791 S    
C52   C56   1.533497 S    
N4    C43   1.358801 A    
C44   N8    1.357761 A    
C22   C26   1.405367 A    
C117  C121  1.545758 S    
C15   C99   1.477210 S    
O40   C140  1.283283 A    
C26   C30   1.403532 A    
O4    C4    1.291348 A    
C87   C91   1.405207 A    
C25   C42   1.482286 S    
O35   C139  1.283520 A    
C112  C132  1.546909 S    
C71   H35   1.110176 S    
C125  H69   1.110140 S    
C46   H18   1.110171 S    
C107  C135  1.533342 S    
C62   C66   1.547725 S    
C105  C117  1.547709 S    
C29   C33   1.395779 A    
C46   C74   1.534538 S    
Cu1   Cu5   2.686100 S    
Cu3   Cu7   2.686100 S    
Cu4   Cu8   2.686066 S    
Cu1   O25   1.951170 S    
N2    C41   1.358797 A    
Cu3   O19   1.971144 S    
C42   N6    1.357738 A    
Cu4   O28   1.951836 S    
O13   C5    1.299153 A    
Cu5   O29   1.951572 S    
O37   Cu12  1.968634 S    
O15   C7    1.299176 A    
O38   Cu11  1.967947 S    
O39   Cu10  1.968634 S    
O11   Cu3   1.951709 S    
N19   O53   1.301357 A    
N16   C104  1.358312 A    
N20   O55   1.301375 A    
C92   H48   1.082935 S    
O9    C5    1.299533 A    
O2    Cu2   1.969452 S    
C19   C39   1.416319 A    
O10   Cu2   1.951041 S    
C86   C90   1.405257 A    
C61   C65   1.545833 S    
O6    Cu6   1.971215 S    
C23   C27   1.405380 A    
C57   C61   1.547833 S    
O19   C11   1.290979 A    
C64   H28   1.110144 S    
C47   C75   1.533186 S    
C96   H52   1.083056 S    
C48   C76   1.533268 S    
Cu8   O24   1.969455 S    
C63   C75   1.533494 S    
N18   O51   1.301342 A    
C82   H42   1.082952 S    
C93   C97   1.404529 A    
C89   H45   1.082940 S    
C129  H73   1.110152 S    
C36   H12   1.083484 S    
C56   C144  1.465343 S    
C18   N18   1.438052 S    
C17   C21   1.403701 A    
O47   C143  1.283769 A    
C35   C39   1.403542 A    
C78   C98   1.404543 A    
C19   C23   1.403739 A    
C45   C57   1.546591 S    
C20   C24   1.403837 A    
C13   C97   1.477212 S    
C47   C59   1.546595 S    
C49   C53   1.533550 S    
C83   H43   1.082948 S    
C114  C118  1.534174 S    
C96   C100  1.404555 A    
C59   C63   1.547826 S    
O33   Cu11  1.970194 S    
O3    C3    1.291376 A    
O34   Cu12  1.970829 S    
C21   H1    1.082878 S    
O44   C144  1.282641 A    
O44   Cu12  1.969935 S    
C123  C127  1.546172 S    
C90   C94   1.398008 A    
C61   H25   1.110140 S    
C31   H7    1.082727 S    
O26   C14   1.300556 A    
C88   C92   1.405263 A    
C16   C100  1.477203 S    
O23   C11   1.291784 A    
C52   C72   1.545943 S    
C115  C127  1.534028 S    
C54   C142  1.465272 S    
C124  C128  1.545793 S    
O5    C1    1.290853 A    
Cu6   O22   1.969455 S    
C108  H60   1.110137 S    
C24   H4    1.082875 S    
C17   N17   1.438069 S    
C2    C74   1.465365 S    
O45   C141  1.283773 A    
C116  C120  1.534229 S    
N14   C102  1.358312 A    
C54   C66   1.533121 S    
O41   Cu9   1.970572 S    
C71   C75   1.534538 S    
O42   C142  1.283522 A    
C110  C114  1.533164 S    
O43   Cu11  1.970572 S    
C62   H26   1.110155 S    
C105  C133  1.533322 S    
C50   H14   1.110156 S    
C10   C134  1.465907 S    
O8    C4    1.290837 A    
C131  H75   1.110152 S    
O29   C13   1.300483 A    
O36   C140  1.283365 A    
C122  C134  1.534808 S    
N15   C103  1.358258 A    
N17   O50   1.301349 A    
C83   C87   1.405221 A    
C127  H71   1.110145 S    
C8    C40   1.475326 S    
C81   C85   1.405223 A    
C19   N19   1.438058 S    
C20   C40   1.416305 A    
C22   H2    1.082881 S    
N12   N16   1.332174 A    
C106  C110  1.547623 S    
C20   N20   1.438085 S    
C87   C104  1.479212 S    
C55   C67   1.534624 S    
C85   C102  1.479202 S    
C53   C57   1.533100 S    
Cu9   Cu10  2.659676 S    
C114  C126  1.533794 S    
Cu3   O27   1.951170 S    
C70   H34   1.110164 S    
C55   C59   1.533095 S    
C64   C68   1.545688 S    
C126  H70   1.110156 S    
O33   C137  1.283469 A    
C48   C60   1.546658 S    
C12   C136  1.465901 S    
O25   C13   1.300361 A    
O27   C15   1.300361 A    
Cu2   Cu6   2.686066 S    
C80   C84   1.397752 A    
N10   C101  1.358294 A    
C9    C133  1.465857 S    
C52   H16   1.110158 S    
C79   C83   1.397957 A    
Cu2   O26   1.951836 S    
O16   Cu8   1.952063 S    
C45   C49   1.547752 S    
C29   H5    1.082731 S    
O14   C6    1.299329 A    
C47   C51   1.547731 S    
Cu6   O30   1.950904 S    
C108  C112  1.547678 S    
C111  C115  1.533162 S    
C131  C135  1.533482 S    
C121  C125  1.546426 S    
O10   C6    1.299535 A    
O3    Cu3   1.969431 S    
C119  H63   1.110151 S    
C57   H21   1.110260 S    
C72   H36   1.110180 S    
C3    C75   1.465302 S    
C85   C89   1.405199 A    
C107  H59   1.110140 S    
C113  C117  1.533652 S    
C62   C74   1.533472 S    
C95   H51   1.083062 S    
C105  H57   1.110148 S    
C132  C136  1.533354 S    
C81   H41   1.082945 S    
C115  C119  1.533919 S    
C36   C40   1.403556 A    
C130  H74   1.110153 S    
C33   H9    1.083483 S    
C84   H44   1.082954 S    
O36   Cu10  1.970831 S    
C28   C43   1.482368 S    
C18   C22   1.403765 A    
C35   H11   1.083479 S    
N5    N6    1.330704 A    
O13   Cu5   1.951400 S    
O15   Cu7   1.951400 S    
C32   C36   1.395690 A    
C5    C37   1.475230 S    
C126  C130  1.547387 S    
C17   C37   1.416288 A    
C77   H37   1.083054 S    
O48   C144  1.284008 A    
C130  C134  1.533360 S    
C61   C73   1.533508 S    
C58   C62   1.545864 S    
O17   C9    1.291068 A    
C90   H46   1.082939 S    
O35   Cu9   1.970197 S    
C129  C133  1.533587 S    
C78   H38   1.083059 S    
C89   C93   1.397805 A    
O45   Cu10  1.968408 S    
N20   O56   1.301349 A    
C92   C96   1.398011 A    
C25   C29   1.403631 A    
C128  H72   1.110152 S    
C55   C143  1.465307 S    
C26   C41   1.482291 S    
C56   C60   1.533078 S    
C33   C37   1.403529 A    
C84   C88   1.405165 A    
Cu7   O31   1.951572 S    
C109  H53   1.110261 S    
Cu8   O32   1.950904 S    
C45   H17   1.110166 S    
C106  C118  1.546422 S    
C30   C34   1.395698 A    
C47   H19   1.110165 S    
N18   O52   1.301352 A    
C56   C68   1.534746 S    
C51   C55   1.533565 S    
C32   H8    1.082730 S    
O1    C1    1.291356 A    
C70   C74   1.533279 S    
Cu11  Cu12  2.659676 S    
O46   C142  1.283089 A    
N3    C44   1.358774 A    
O42   Cu10  1.969935 S    
O43   C143  1.282866 A    
C34   H10   1.083475 S    
O37   C137  1.283198 A    
C48   C52   1.547883 S    
C91   C95   1.397805 A    
O39   C139  1.283149 A    
C107  C111  1.547106 S    
O21   C9    1.291678 A    
O28   C16   1.300554 A    
C78   C82   1.397755 A    
C80   H40   1.083061 S    
O30   C14   1.300271 A    
C6    C38   1.475582 S    
C120  H64   1.110142 S    
C18   C38   1.416443 A    
O22   C10   1.291755 A    
C124  C136  1.534785 S    
C127  C131  1.546729 S    
C121  H65   1.110148 S    
C108  C120  1.546308 S    
C111  C131  1.547500 S    
C94   C98   1.404558 A    
C69   C73   1.534520 S    
C116  C128  1.533747 S    
C119  C123  1.545844 S    
C60   H24   1.110254 S    
C72   C76   1.534492 S    
O6    C2    1.290834 A    
C69   H33   1.110173 S    
C27   C44   1.482367 S    
C46   C58   1.546416 S    
C63   C67   1.545868 S    
C34   C38   1.403665 A    
C77   C97   1.404571 A    
O34   C138  1.283101 A    
C50   C54   1.533752 S    
O40   Cu9   1.967947 S    
C31   C35   1.395788 A    
C113  C125  1.534351 S    
C66   H30   1.110277 S    
N12   C103  1.358293 A    
C111  H55   1.110271 S    
C128  C132  1.547491 S    
Cu4   O20   1.971171 S    
C30   H6    1.082734 S    
Cu5   O21   1.969427 S    
N7    N8    1.330737 A    
C80   C100  1.404532 A    
O12   Cu4   1.951041 S    
N1    N2    1.332583 A    
N17   O49   1.301352 A    
N3    N4    1.332574 A    
C28   C32   1.403593 A    
C58   H22   1.110147 S    
O7    C3    1.290833 A    
C115  C140  1.465359 S    
C65   H29   1.110143 S    
C110  C130  1.546968 S    
C116  C139  1.465398 S    
C95   C99   1.404527 A    
C91   H47   1.082938 S    
C45   C73   1.533193 S    
C68   H32   1.110152 S    
C113  C138  1.465399 S    
C67   H31   1.110143 S    
O47   Cu12  1.968408 S    
C49   C69   1.545869 S    
O48   Cu11  1.969090 S    
C109  C113  1.533162 S    
Cu2   O18   1.971171 S    
O16   C8    1.299327 A    
C106  C134  1.533483 S    
O14   Cu6   1.952063 S    
C11   C135  1.465900 S    
C117  H61   1.110163 S    
O11   C7    1.299567 A    
O12   C8    1.299395 A    
O1    Cu1   1.969431 S    
O9    Cu1   1.951709 S    
C60   C64   1.547805 S    
O4    Cu4   1.969452 S    
C110  H54   1.110272 S    
O5    Cu5   1.971195 S    
C23   H3    1.082875 S    
O18   C10   1.290995 A    
O7    Cu7   1.971195 S    
C112  C116  1.533163 S    
C114  C137  1.465390 S    
C123  C135  1.534833 S    
O8    Cu8   1.971215 S    
C59   H23   1.110254 S    
C107  C119  1.547095 S    
C1    C73   1.465301 S    
O24   C12   1.291736 A    
N11   N15   1.332067 A    
C124  H68   1.110150 S    
C4    C76   1.465293 S    
O46   Cu9   1.969090 S    
C105  C109  1.546743 S    
C54   C58   1.534347 S    
C88   C103  1.479209 S    
C79   H39   1.083057 S    
C93   H49   1.083063 S    
N13   C101  1.358255 A    
C108  C136  1.533502 S    
C50   C70   1.547754 S    
C86   C101  1.479202 S    
C7    C39   1.475344 S    
N11   C104  1.358238 A    
O2    C2    1.291385 A    
N9    C102  1.358238 A    
C112  H56   1.110265 S    
O31   C15   1.300481 A    
C46   C50   1.545761 S    
C21   C25   1.405374 A    
O32   C16   1.300264 A    
C118  H62   1.110142 S    
N9    N13   1.332069 A    
O38   C138  1.283567 A    
O20   C12   1.291011 A    
C66   C70   1.546750 S    
C132  H76   1.110157 S    
C49   H13   1.110156 S    
C122  C126  1.545807 S    
C14   C98   1.477214 S    
C53   C141  1.465307 S    
C77   C81   1.397957 A    
C27   C31   1.403650 A    
Cu7   O23   1.969427 S    
C122  H66   1.110157 S    
C24   C28   1.405442 A    
C118  C122  1.546239 S    
C106  H58   1.110140 S    
C94   H50   1.083057 S    
C79   C99   1.404565 A    
N10   N14   1.332173 A    
Cu1   O17   1.971144 S    
C120  C124  1.546285 S    
C51   H15   1.110157 S    
C53   C65   1.534638 S    
N1    C42   1.358782 A    
C41   N5    1.357722 A    
O41   C141  1.282863 A    
