data_mof_unit_51242.cif
_audit_creation_date              2012-12-10T16:35:13-0500
_audit_creation_method            fapswitch 2.2
_symmetry_space_group_name_H-M    P1
_symmetry_Int_Tables_number       1
_space_group_crystal_system       triclinic
_cell_length_a                    10.865055
_cell_length_b                    10.869089
_cell_length_c                    10.861522
_cell_angle_alpha                 81.209796
_cell_angle_beta                  98.262582
_cell_angle_gamma                 90.10915
_cell_volume                      1254.18507324

loop_
_atom_site_label
_atom_site_type_symbol
_atom_type_description
_atom_site_fract_x
_atom_site_fract_y
_atom_site_fract_z
_atom_type_partial_charge
C1    C     C_R   0.834600 0.473214 0.526467 0.470310
C2    C     C_2   0.469449 0.029899 0.528336 -0.078112
C3    C     C_2   0.537238 0.967764 0.462491 0.274781
C4    C     C_2   0.029709 0.536754 0.466914 -0.082920
C5    C     C_3   0.663934 0.956892 0.306343 0.000696
C6    C     C_3   0.741981 0.037065 0.221324 -0.369168
C7    C     C_3   0.966685 0.308424 0.721893 0.006650
C8    C     C_3   0.050013 0.212601 0.812892 -0.357302
C9    C     C_3   0.433556 0.738561 0.932155 -0.020578
C10   C     C_3   0.346587 0.825708 0.835165 -0.352405
C11   C     C_3   0.745523 0.435990 0.048320 -0.012194
C12   C     C_2   0.967916 0.456374 0.541733 0.270729
C13   C     C_3   0.842419 0.352441 0.137434 -0.362839
C14   C     C_2   0.468210 0.536510 0.023818 0.236766
C15   C     C_2   0.538758 0.461277 0.973057 0.266821
C16   C     C_R   0.164117 0.526814 0.472933 0.526071
C17   C     C_R   0.525523 0.471144 0.838513 0.552813
C18   C     C_R   0.476846 0.527243 0.160264 0.513273
C19   C     C_R   0.522911 0.834515 0.476992 0.471106
C20   C     C_R   0.477124 0.164197 0.522974 0.520103
H1    H     H_    0.405735 0.980552 0.586225 0.040276
H2    H     H_    0.138939 0.255613 0.846460 0.178140
H3    H     H_    0.002810 0.177681 0.895200 0.087293
H4    H     H_    0.070212 0.132980 0.765333 0.162775
H5    H     H_    0.525590 0.737142 0.898258 0.123949
H6    H     H_    0.444795 0.776523 0.022565 0.144811
H7    H     H_    0.254044 0.830615 0.866481 0.166224
H8    H     H_    0.385718 0.920553 0.823650 0.100590
H9    H     H_    0.335453 0.791391 0.743033 0.153450
H10   H     H_    0.743254 0.527320 0.082916 0.114152
H11   H     H_    0.775515 0.450044 0.953500 0.141458
H12   H     H_    0.583648 0.923159 0.245353 0.131429
H13   H     H_    0.854916 0.264647 0.099747 0.133370
H14   H     H_    0.932896 0.400354 0.146711 0.102665
H15   H     H_    0.812734 0.330503 0.231859 0.202515
H16   H     H_    0.722745 0.876642 0.358745 0.132806
H17   H     H_    0.823278 0.072649 0.278813 0.162708
H18   H     H_    0.775817 0.981102 0.155098 0.083148
H19   H     H_    0.684815 0.116911 0.166253 0.201669
H20   H     H_    0.980239 0.612760 0.401899 0.041347
H21   H     H_    0.878461 0.262699 0.690417 0.137368
H22   H     H_    0.947045 0.385756 0.773330 0.131982
O1    O     O_3   0.500000 0.500000 0.500000 -0.453503
O2    O     O_R   0.597340 0.765700 0.560080 -0.549622
O3    O     O_R   0.548200 0.222430 0.451790 -0.470718
O4    O     O_R   0.441590 0.789440 0.401000 -0.563562
O5    O     O_R   0.412860 0.222430 0.587130 -0.550913
O6    O     O_3   0.622929 0.029126 0.390946 -0.531540
O7    O     O_3   0.028043 0.352061 0.617823 -0.533647
O8    O     O_3   0.381948 0.618718 0.946741 -0.575127
O9    O     O_3   0.628243 0.378845 0.044923 -0.575505
O10   O     O_R   0.441590 0.410520 0.779910 -0.525845
O11   O     O_R   0.548210 0.443940 0.230290 -0.513494
O12   O     O_R   0.787780 0.544200 0.591150 -0.566571
O13   O     O_R   0.222430 0.601350 0.398650 -0.549525
O14   O     O_R   0.767360 0.410530 0.454140 -0.553561
O15   O     O_R   0.222430 0.443930 0.556060 -0.469753
O16   O     O_R   0.597340 0.544190 0.781580 -0.582665
O17   O     O_R   0.412870 0.601350 0.208220 -0.538615
Zn1   Zn    Zn3+2 0.396020 0.396030 0.603970 0.973071
Zn2   Zn    Zn3+2 0.618560 0.587010 0.606350 0.901288
Zn3   Zn    Zn3+2 0.396030 0.620930 0.379070 0.923895
Zn4   Zn    Zn3+2 0.589390 0.396030 0.410610 0.957191

loop_
_geom_bond_atom_site_label_1
_geom_bond_atom_site_label_2
_ccdc_geom_bond_type
C10   H7    S    
C4    C16   S    
C8    H2    S    
C1    O12   A    
C6    H18   S    
C3    C19   S    
O12   Zn2   S    
C15   O9    S    
O2    Zn2   S    
C4    C12   D    
C11   C13   S    
C9    C10   S    
C14   C18   S    
C20   O3    A    
C17   O16   A    
C5    H12   S    
C18   O17   A    
O16   Zn2   S    
C2    C3    D    
O5    Zn1   S    
C19   O4    A    
C11   H11   S    
C7    C8    S    
C19   O2    A    
C13   H13   S    
O11   Zn4   S    
C10   H9    S    
C7    O7    S    
C14   O8    S    
C1    C12   S    
O1    Zn1   S    
O4    Zn3   S    
C17   O10   A    
O14   Zn4   S    
C8    H4    S    
C1    O14   A    
C16   O13   A    
C9    H6    S    
C13   H15   S    
C16   O15   A    
C7    H21   S    
C5    C6    S    
C5    O6    S    
C6    H17   S    
C12   O7    S    
C11   O9    S    
C9    H5    S    
C20   O5    A    
C5    H16   S    
C3    O6    S    
C13   H14   S    
C8    H3    S    
O13   Zn3   S    
O1    Zn2   S    
C11   H10   S    
O1    Zn4   S    
C7    H22   S    
C10   H8    S    
C15   C17   S    
C14   C15   D    
O17   Zn3   S    
O10   Zn1   S    
C18   O11   A    
C2    H1    S    
C6    H19   S    
C2    C20   S    
O3    Zn4   S    
C9    O8    S    
C4    H20   S    
O1    Zn3   S    
O15   Zn1   S    
