data_mof_unit_64425.cif
_audit_creation_date              2012-12-10T17:52:53-0500
_audit_creation_method            fapswitch 2.2
_symmetry_space_group_name_H-M    P1
_symmetry_Int_Tables_number       1
_space_group_crystal_system       triclinic
_cell_length_a                    39.052403
_cell_length_b                    39.05323
_cell_length_c                    32.25087
_cell_angle_alpha                 90.00983
_cell_angle_beta                  89.999792
_cell_angle_gamma                 89.999867
_cell_volume                      49186.5259965

loop_
_atom_site_label
_atom_site_type_symbol
_atom_type_description
_atom_site_fract_x
_atom_site_fract_y
_atom_site_fract_z
_atom_type_partial_charge
C1    C     C_R   1.000000 0.566273 0.000004 0.933962
C2    C     C_R   0.566268 0.000000 0.000011 0.934825
C3    C     C_R   1.000000 0.433726 0.000003 0.933786
C4    C     C_R   0.433756 0.000000 0.000011 0.939015
C5    C     C_R   0.500000 0.066273 0.500010 0.936035
C6    C     C_R   0.066273 0.500000 0.500003 0.936600
C7    C     C_R   0.500000 0.933727 0.500012 0.936092
C8    C     C_R   0.933727 0.500000 0.500003 0.936558
C9    C     C_R   0.999987 0.895685 0.999996 -0.500978
C10   C     C_R   0.895672 0.999994 0.000007 -0.502714
C11   C     C_R   0.999992 0.104312 0.000009 -0.500938
C12   C     C_R   0.104381 0.999994 0.000007 -0.500222
C13   C     C_R   0.499994 0.395686 0.499996 -0.498807
C14   C     C_R   0.395686 0.500001 0.500002 -0.498843
C15   C     C_R   0.500003 0.604315 0.500016 -0.498823
C16   C     C_R   0.604314 0.499999 0.500001 -0.498848
C17   C     C_R   0.977428 0.767772 0.974092 0.574234
C18   C     C_R   0.767755 0.977180 0.974460 0.573886
C19   C     C_R   0.022475 0.232211 0.974007 0.574461
C20   C     C_R   0.232319 0.024403 0.023380 0.574536
C21   C     C_R   0.977513 0.232219 0.026041 0.574291
C22   C     C_R   0.767768 0.022811 0.025640 0.574049
C23   C     C_R   0.022543 0.767789 0.025929 0.574500
C24   C     C_R   0.232332 0.975581 0.976724 0.574228
C25   C     C_R   0.477432 0.267771 0.474117 0.574885
C26   C     C_R   0.267781 0.522571 0.474116 0.574999
C27   C     C_R   0.522592 0.732221 0.474185 0.574886
C28   C     C_R   0.732218 0.477438 0.474095 0.574982
C29   C     C_R   0.477420 0.732217 0.525951 0.575051
C30   C     C_R   0.267785 0.477429 0.525910 0.575060
C31   C     C_R   0.522568 0.267792 0.525928 0.575044
C32   C     C_R   0.732215 0.522562 0.525929 0.575048
C33   C     C_R   0.977428 0.732033 0.974102 0.566789
C34   C     C_R   0.732014 0.977172 0.974485 0.567659
C35   C     C_R   0.022481 0.267951 0.974016 0.566730
C36   C     C_R   0.268058 0.024396 0.023409 0.566503
C37   C     C_R   0.977514 0.267958 0.026041 0.566424
C38   C     C_R   0.732028 0.022818 0.025646 0.566408
C39   C     C_R   0.022549 0.732049 0.025931 0.566394
C40   C     C_R   0.268071 0.975586 0.976728 0.567548
C41   C     C_R   0.477430 0.232033 0.474133 0.568186
C42   C     C_R   0.232042 0.522572 0.474121 0.568233
C43   C     C_R   0.522593 0.767960 0.474199 0.568421
C44   C     C_R   0.767957 0.477437 0.474099 0.568220
C45   C     C_R   0.477421 0.767956 0.525963 0.567106
C46   C     C_R   0.232045 0.477429 0.525913 0.567892
C47   C     C_R   0.522568 0.232053 0.525942 0.567285
C48   C     C_R   0.767954 0.522562 0.525933 0.567878
C49   C     C_R   0.999990 0.713977 0.000020 -0.228704
C50   C     C_R   0.713956 0.999995 0.000072 -0.230370
C51   C     C_R   0.999999 0.286019 0.000030 -0.228649
C52   C     C_R   0.286135 0.999991 0.000076 -0.230391
C53   C     C_R   0.499999 0.213978 0.500045 -0.229551
C54   C     C_R   0.213978 0.500000 0.500019 -0.229874
C55   C     C_R   0.500007 0.786023 0.500086 -0.229579
C56   C     C_R   0.786021 0.500000 0.500018 -0.229860
C57   C     C_R   0.999984 0.785846 0.000007 -0.230666
C58   C     C_R   0.785827 0.999996 0.000041 -0.230574
C59   C     C_R   0.999992 0.214149 0.000021 -0.230671
C60   C     C_R   0.214257 0.999993 0.000042 -0.231357
C61   C     C_R   0.500000 0.285847 0.500015 -0.231626
C62   C     C_R   0.285848 0.500000 0.500011 -0.231775
C63   C     C_R   0.500005 0.714153 0.500060 -0.231627
C64   C     C_R   0.714151 0.500000 0.500010 -0.231764
C65   C     C_R   0.970518 0.658215 0.011803 0.598062
C66   C     C_R   0.658199 0.029340 0.987786 0.598831
C67   C     C_R   0.029508 0.341782 0.011689 0.598030
C68   C     C_R   0.341919 0.971387 0.014670 0.598972
C69   C     C_R   0.970488 0.341776 0.988365 0.598446
C70   C     C_R   0.658190 0.970666 0.012359 0.597808
C71   C     C_R   0.029475 0.658217 0.988242 0.598479
C72   C     C_R   0.341906 0.028615 0.985477 0.600087
C73   C     C_R   0.470511 0.158215 0.511781 0.599995
C74   C     C_R   0.158215 0.529492 0.511752 0.600465
C75   C     C_R   0.529483 0.841792 0.511837 0.599842
C76   C     C_R   0.841784 0.470505 0.511725 0.600445
C77   C     C_R   0.470513 0.841778 0.488324 0.600345
C78   C     C_R   0.158218 0.470506 0.488286 0.600522
C79   C     C_R   0.529496 0.158217 0.488322 0.600141
C80   C     C_R   0.841782 0.529498 0.488312 0.600509
C81   C     C_R   0.970451 0.622475 0.011815 0.474180
C82   C     C_R   0.622459 0.029407 0.987748 0.473762
C83   C     C_R   0.029579 0.377521 0.011698 0.474226
C84   C     C_R   0.377658 0.971316 0.014623 0.472845
C85   C     C_R   0.970419 0.377516 0.988339 0.474836
C86   C     C_R   0.622449 0.970599 0.012358 0.473750
C87   C     C_R   0.029546 0.622478 0.988221 0.474804
C88   C     C_R   0.377645 0.028688 0.985486 0.474446
C89   C     C_R   0.470441 0.122476 0.511783 0.475887
C90   C     C_R   0.122476 0.529562 0.511759 0.476453
C91   C     C_R   0.529553 0.877531 0.511827 0.475826
C92   C     C_R   0.877523 0.470434 0.511733 0.476452
C93   C     C_R   0.470442 0.877517 0.488289 0.476216
C94   C     C_R   0.122478 0.470435 0.488270 0.476394
C95   C     C_R   0.529566 0.122478 0.488298 0.476132
C96   C     C_R   0.877521 0.529568 0.488295 0.476395
C97   C     C_R   0.999999 0.604150 0.000013 -0.506324
C98   C     C_R   0.604135 0.000002 0.000038 -0.502551
C99   C     C_R   0.999999 0.395847 0.000013 -0.506389
C100  C     C_R   0.395934 0.000001 0.000039 -0.504555
C101  C     C_R   0.500002 0.104150 0.500030 -0.505958
C102  C     C_R   0.104150 0.499999 0.500010 -0.505626
C103  C     C_R   0.499999 0.895851 0.500041 -0.505943
C104  C     C_R   0.895849 0.500001 0.500010 -0.505626
C105  C     C_R   0.999994 0.676264 0.000023 -0.209323
C106  C     C_R   0.676243 0.000001 0.000077 -0.207103
C107  C     C_R   0.999998 0.323731 0.000029 -0.209312
C108  C     C_R   0.323856 0.999999 0.000078 -0.209706
C109  C     C_R   0.500003 0.176265 0.500053 -0.209074
C110  C     C_R   0.176265 0.499999 0.500020 -0.208974
C111  C     C_R   0.500000 0.823736 0.500087 -0.209079
C112  C     C_R   0.823734 0.500001 0.500020 -0.208963
C113  C     C_R   0.933569 0.999998 0.000001 0.925058
C114  C     C_R   0.999997 0.066425 0.000003 0.925025
C115  C     C_R   0.066449 0.999998 0.000001 0.923144
C116  C     C_R   0.999996 0.933574 0.999998 0.924886
C117  C     C_R   0.433574 0.500000 0.500000 0.925537
C118  C     C_R   0.500001 0.566426 0.500004 0.925516
C119  C     C_R   0.566426 0.500000 0.500000 0.925552
C120  C     C_R   0.499998 0.433574 0.499997 0.925540
C121  C     C_R   1.000000 0.500000 0.920569 0.791310
C122  C     C_R   0.499999 0.999998 0.920569 0.793699
C123  C     C_R   1.000000 0.500000 0.079430 0.791111
C124  C     C_R   0.499998 0.000002 0.079430 0.792734
C125  C     C_R   0.500000 0.999997 0.420568 0.795117
C126  C     C_R   1.000000 0.499997 0.420569 0.795203
C127  C     C_R   0.500000 0.000002 0.579430 0.793764
C128  C     C_R   1.000000 0.500003 0.579430 0.794729
C129  C     C_R   0.990188 0.530063 0.727998 0.101859
C130  C     C_R   0.527010 0.016441 0.727991 0.102612
C131  C     C_R   0.009819 0.469953 0.727982 0.101856
C132  C     C_R   0.472987 0.983574 0.727978 0.102147
C133  C     C_R   0.993875 0.468975 0.271999 0.101627
C134  C     C_R   0.531002 0.993780 0.271999 0.101807
C135  C     C_R   0.006130 0.531009 0.272014 0.101622
C136  C     C_R   0.468991 0.006168 0.272008 0.101565
C137  C     C_R   0.468578 0.003388 0.228016 0.097774
C138  C     C_R   0.003345 0.531416 0.228023 0.098270
C139  C     C_R   0.531411 0.996567 0.228008 0.098653
C140  C     C_R   0.996658 0.468571 0.228007 0.098286
C141  C     C_R   0.471648 0.986043 0.771970 0.098531
C142  C     C_R   0.007103 0.469215 0.771973 0.098472
C143  C     C_R   0.528348 0.013961 0.771982 0.096859
C144  C     C_R   0.992903 0.530798 0.771989 0.098467
C145  C     C_R   0.000003 0.500009 0.706370 0.042951
C146  C     C_R   0.500000 0.000009 0.706366 0.043504
C147  C     C_R   0.000002 0.499991 0.293627 0.042750
C148  C     C_R   0.499999 0.999977 0.293624 0.042674
C149  C     C_R   0.499994 0.999984 0.206362 0.030556
C150  C     C_R   0.000001 0.499995 0.206364 0.030639
C151  C     C_R   0.499998 1.000000 0.793629 0.030380
C152  C     C_R   0.000002 0.500006 0.793633 0.030630
C153  C     C_1   0.000001 0.500010 0.661318 -0.018455
C154  C     C_1   0.500002 0.000010 0.661315 -0.017482
C155  C     C_1   0.000001 0.499990 0.338680 -0.019141
C156  C     C_1   0.500002 0.999983 0.338678 -0.019144
C157  C     C_1   0.499993 0.999996 0.161313 -0.021694
C158  C     C_1   0.000000 0.499996 0.161314 -0.021336
C159  C     C_1   0.499997 0.999995 0.838681 -0.021911
C160  C     C_1   0.000001 0.500004 0.838684 -0.021039
C161  C     C_1   0.000000 0.500002 0.876087 -0.119892
C162  C     C_1   0.499998 0.999995 0.876085 -0.120000
C163  C     C_1   1.000000 0.499998 0.123912 -0.119828
C164  C     C_1   0.499995 0.000003 0.123911 -0.119604
C165  C     C_1   0.500002 0.999990 0.376086 -0.129268
C166  C     C_1   0.000000 0.499992 0.376087 -0.129331
C167  C     C_1   0.500001 0.000007 0.623910 -0.128621
C168  C     C_1   0.000001 0.500008 0.623911 -0.129074
C169  C     C_R   0.991835 0.877356 0.036356 0.503915
C170  C     C_R   0.877335 0.992108 0.036455 0.501400
C171  C     C_R   0.008240 0.122649 0.036337 0.497464
C172  C     C_R   0.122746 0.994668 0.037131 0.501727
C173  C     C_R   0.991740 0.122644 0.963685 0.503888
C174  C     C_R   0.877322 0.007879 0.963568 0.501498
C175  C     C_R   0.008130 0.877342 0.963636 0.497535
C176  C     C_R   0.122760 0.005318 0.962893 0.501647
C177  C     C_R   0.491898 0.377356 0.536375 0.500973
C178  C     C_R   0.377351 0.508100 0.536381 0.500961
C179  C     C_R   0.508080 0.622648 0.536406 0.500955
C180  C     C_R   0.622648 0.491891 0.536374 0.500936
C181  C     C_R   0.491928 0.622656 0.463639 0.501021
C182  C     C_R   0.377348 0.491903 0.463625 0.501001
C183  C     C_R   0.508088 0.377342 0.463620 0.500970
C184  C     C_R   0.622652 0.508106 0.463631 0.500997
C185  C     C_R   0.991843 0.841617 0.036272 0.605271
C186  C     C_R   0.841595 0.992126 0.036378 0.605323
C187  C     C_R   0.008230 0.158388 0.036254 0.606799
C188  C     C_R   0.158485 0.994680 0.037044 0.605919
C189  C     C_R   0.991748 0.158384 0.963777 0.605412
C190  C     C_R   0.841581 0.007862 0.963666 0.605528
C191  C     C_R   0.008118 0.841602 0.963727 0.606888
C192  C     C_R   0.158500 0.005304 0.963001 0.606259
C193  C     C_R   0.491907 0.341618 0.536292 0.607182
C194  C     C_R   0.341612 0.508091 0.536295 0.607265
C195  C     C_R   0.508072 0.658386 0.536332 0.607082
C196  C     C_R   0.658388 0.491899 0.536288 0.607256
C197  C     C_R   0.491935 0.658395 0.463742 0.607384
C198  C     C_R   0.341608 0.491910 0.463716 0.607361
C199  C     C_R   0.508082 0.341602 0.463714 0.607287
C200  C     C_R   0.658391 0.508099 0.463722 0.607357
C201  C     C_R   0.999981 0.823561 0.000001 -0.213552
C202  C     C_R   0.823541 0.999995 0.000028 -0.213246
C203  C     C_R   0.999989 0.176435 0.000017 -0.213563
C204  C     C_R   0.176540 0.999993 0.000028 -0.213560
C205  C     C_R   0.499996 0.323562 0.500006 -0.214133
C206  C     C_R   0.323562 0.500000 0.500007 -0.214190
C207  C     C_R   0.500004 0.676439 0.500044 -0.214128
C208  C     C_R   0.676437 0.499999 0.500006 -0.214199
Cu1   Cu    Cu3+1 0.034230 0.500000 0.000000 1.145604
Cu2   Cu    Cu3+1 0.500000 0.965770 0.000000 1.143764
Cu3   Cu    Cu3+1 0.965770 0.500000 0.000000 1.145566
Cu4   Cu    Cu3+1 0.500000 0.034230 0.000000 1.143231
Cu5   Cu    Cu3+1 0.534230 0.000000 0.500000 1.139766
Cu6   Cu    Cu3+1 1.000000 0.465770 0.500000 1.138834
Cu7   Cu    Cu3+1 0.465770 0.000000 0.500000 1.139942
Cu8   Cu    Cu3+1 0.000000 0.534230 0.500000 1.138839
Cu9   Cu    Cu3+1 0.000000 0.000000 0.958960 1.264535
Cu10  Cu    Cu3+1 0.000000 1.000000 0.041040 1.264280
Cu11  Cu    Cu3+1 0.500000 0.500000 0.458960 1.266448
Cu12  Cu    Cu3+1 0.500000 0.500000 0.541040 1.266193
O1    O     O_R   0.028910 0.549920 0.999960 -0.525576
O2    O     O_R   0.549920 0.971090 0.999960 -0.525688
O3    O     O_R   0.971090 0.450080 0.999960 -0.525507
O4    O     O_R   0.450080 0.028910 0.999960 -0.527695
O5    O     O_R   0.028910 0.450080 0.000040 -0.525744
O6    O     O_R   0.549920 0.028910 0.000040 -0.526586
O7    O     O_R   0.971090 0.549920 0.000040 -0.525824
O8    O     O_R   0.450080 0.971090 0.000040 -0.528146
O9    O     O_R   0.528910 0.049920 0.499960 -0.526195
O10   O     O_R   0.049920 0.471090 0.499960 -0.526244
O11   O     O_R   0.471090 0.950080 0.499960 -0.526196
O12   O     O_R   0.950080 0.528910 0.499960 -0.526228
O13   O     O_R   0.528910 0.950080 0.500040 -0.525978
O14   O     O_R   0.049920 0.528910 0.500040 -0.526092
O15   O     O_R   0.471090 0.049920 0.500040 -0.525953
O16   O     O_R   0.950080 0.471090 0.500040 -0.526077
O17   O     O_R   0.028910 0.500000 0.940120 -0.569436
O18   O     O_R   0.500000 0.971090 0.940120 -0.581851
O19   O     O_R   0.971090 0.500000 0.940120 -0.569558
O20   O     O_R   0.500000 0.028910 0.940120 -0.558139
O21   O     O_R   0.028910 0.500000 0.059880 -0.569361
O22   O     O_R   0.500000 0.028910 0.059880 -0.581314
O23   O     O_R   0.971090 0.500000 0.059880 -0.569270
O24   O     O_R   0.500000 0.971090 0.059880 -0.557214
O25   O     O_R   0.528910 0.000000 0.440120 -0.571490
O26   O     O_R   1.000000 0.471090 0.440120 -0.571473
O27   O     O_R   0.471090 0.000000 0.440120 -0.571406
O28   O     O_R   1.000000 0.528910 0.440120 -0.571469
O29   O     O_R   0.528910 1.000000 0.559880 -0.570543
O30   O     O_R   1.000000 0.528910 0.559880 -0.571152
O31   O     O_R   0.471090 1.000000 0.559880 -0.570484
O32   O     O_R   1.000000 0.471090 0.559880 -0.571152
O33   O     O_R   0.950050 0.000070 0.965410 -0.526870
O34   O     O_R   0.000070 0.049950 0.965410 -0.521787
O35   O     O_R   0.049950 0.999930 0.965410 -0.525220
O36   O     O_R   0.999930 0.950050 0.965410 -0.532507
O37   O     O_R   0.950050 0.999930 0.034590 -0.527008
O38   O     O_R   0.000070 0.950050 0.034590 -0.521766
O39   O     O_R   0.049950 0.000070 0.034590 -0.525175
O40   O     O_R   0.999930 0.049950 0.034590 -0.532625
O41   O     O_R   0.450050 0.500070 0.465410 -0.526594
O42   O     O_R   0.500070 0.549950 0.465410 -0.526535
O43   O     O_R   0.549950 0.499930 0.465410 -0.526586
O44   O     O_R   0.499930 0.450050 0.465410 -0.526613
O45   O     O_R   0.450050 0.499930 0.534590 -0.526620
O46   O     O_R   0.500070 0.450050 0.534590 -0.526601
O47   O     O_R   0.549950 0.500070 0.534590 -0.526644
O48   O     O_R   0.499930 0.549950 0.534590 -0.526654
C209  C     C_3   0.988641 0.564063 0.796363 -0.394008
C210  C     C_3   0.951186 0.570943 0.807010 -0.710650
H1    H     H_    0.935785 0.574736 0.778531 0.258429
H2    H     H_    0.940391 0.549198 0.824948 0.260118
H3    H     H_    0.949325 0.594495 0.826168 0.265774
H4    H     H_    0.003487 0.563360 0.825693 0.221761
H5    H     H_    0.000097 0.586129 0.779824 0.215198
C211  C     C_3   0.559755 0.025721 0.796351 -0.397971
C212  C     C_3   0.557877 0.063752 0.807016 -0.694084
H6    H     H_    0.558021 0.079617 0.778543 0.255049
H7    H     H_    0.534248 0.069273 0.824984 0.261782
H8    H     H_    0.580389 0.070956 0.826152 0.269939
H9    H     H_    0.562472 0.011102 0.825675 0.220689
H10   H     H_    0.583858 0.019625 0.779803 0.214117
C213  C     C_3   0.011366 0.435949 0.796329 -0.394086
C214  C     C_3   0.048821 0.429069 0.806971 -0.710544
H11   H     H_    0.064222 0.425280 0.778490 0.258421
H12   H     H_    0.059615 0.450813 0.824923 0.260132
H13   H     H_    0.050683 0.405516 0.826116 0.265780
H14   H     H_    0.996520 0.436649 0.825660 0.221714
H15   H     H_    0.999911 0.413884 0.779778 0.215189
C215  C     C_3   0.440242 0.974273 0.796328 -0.392276
C216  C     C_3   0.442113 0.936233 0.806933 -0.712890
H16   H     H_    0.441947 0.920389 0.778437 0.258166
H17   H     H_    0.465751 0.930691 0.824873 0.259659
H18   H     H_    0.419610 0.929022 0.826075 0.265519
H19   H     H_    0.437531 0.988869 0.825674 0.221413
H20   H     H_    0.416140 0.980387 0.779792 0.214758
C217  C     C_3   0.996429 0.435036 0.203632 -0.393653
C218  C     C_3   0.960076 0.423703 0.192975 -0.711411
H21   H     H_    0.945240 0.418082 0.221450 0.258705
H22   H     H_    0.946746 0.443994 0.175037 0.259684
H23   H     H_    0.961063 0.400101 0.173812 0.265637
H24   H     H_    0.011088 0.437520 0.174305 0.222544
H25   H     H_    0.010452 0.414506 0.220173 0.215362
C219  C     C_3   0.564946 0.996266 0.203637 -0.401039
C220  C     C_3   0.576187 0.959890 0.192943 -0.696716
H26   H     H_    0.581771 0.945024 0.221405 0.256285
H27   H     H_    0.555861 0.946622 0.174989 0.262459
H28   H     H_    0.599791 0.960828 0.173782 0.267493
H29   H     H_    0.562496 0.010947 0.174325 0.220073
H30   H     H_    0.585514 0.010228 0.220192 0.214808
C221  C     C_3   0.003574 0.564953 0.203666 -0.393601
C222  C     C_3   0.039928 0.576284 0.193011 -0.711464
H31   H     H_    0.054767 0.581901 0.221488 0.258707
H32   H     H_    0.053255 0.555994 0.175060 0.259675
H33   H     H_    0.038941 0.599888 0.173862 0.265626
H34   H     H_    0.988914 0.562472 0.174339 0.222576
H35   H     H_    0.989554 0.585482 0.220218 0.215361
C223  C     C_3   0.435040 0.003681 0.203653 -0.391141
C224  C     C_3   0.423772 0.040055 0.193010 -0.714661
H36   H     H_    0.418181 0.054900 0.221491 0.258831
H37   H     H_    0.444087 0.053348 0.175069 0.258846
H38   H     H_    0.400166 0.039112 0.173854 0.265609
H39   H     H_    0.437495 0.989019 0.174321 0.223815
H40   H     H_    0.414486 0.989695 0.220197 0.215555
C225  C     C_3   0.436979 0.016011 0.296642 -0.391563
C226  C     C_3   0.439219 0.052858 0.312548 -0.714627
H41   H     H_    0.460382 0.055941 0.335152 0.253866
H42   H     H_    0.443441 0.070855 0.286407 0.257492
H43   H     H_    0.414898 0.059815 0.328275 0.264751
H44   H     H_    0.413027 0.014058 0.278682 0.223584
H45   H     H_    0.433504 0.998221 0.323191 0.226545
C227  C     C_3   0.015910 0.563041 0.296651 -0.392035
C228  C     C_3   0.052761 0.560870 0.312552 -0.713749
H46   H     H_    0.055882 0.539715 0.335153 0.253852
H47   H     H_    0.070766 0.556680 0.286407 0.257762
H48   H     H_    0.059672 0.585203 0.328282 0.264643
H49   H     H_    0.013914 0.586987 0.278694 0.223609
H50   H     H_    0.998111 0.566483 0.323203 0.226439
C229  C     C_3   0.563013 0.983921 0.296620 -0.392571
C230  C     C_3   0.560756 0.947074 0.312508 -0.713101
H51   H     H_    0.539589 0.943998 0.335105 0.253887
H52   H     H_    0.556533 0.929081 0.286356 0.258003
H53   H     H_    0.585072 0.940107 0.328237 0.264509
H54   H     H_    0.586964 0.985861 0.278656 0.223437
H55   H     H_    0.566500 0.001708 0.323178 0.226370
C231  C     C_3   0.984097 0.436941 0.296619 -0.392031
C232  C     C_3   0.947246 0.439108 0.312522 -0.713755
H56   H     H_    0.944123 0.460261 0.335135 0.253851
H57   H     H_    0.929240 0.443300 0.286380 0.257762
H58   H     H_    0.940337 0.414773 0.328238 0.264641
H59   H     H_    0.986095 0.412996 0.278650 0.223605
H60   H     H_    0.001896 0.433499 0.323169 0.226442
C233  C     C_3   0.446271 0.963380 0.703336 -0.392435
C234  C     C_3   0.460981 0.929532 0.687395 -0.717580
H61   H     H_    0.481913 0.933887 0.664785 0.253376
H62   H     H_    0.471115 0.914052 0.713518 0.258686
H63   H     H_    0.440505 0.914682 0.671662 0.265099
H64   H     H_    0.423102 0.957008 0.721298 0.223922
H65   H     H_    0.436910 0.978920 0.676802 0.225445
C235  C     C_3   0.023379 0.439330 0.703344 -0.392288
C236  C     C_3   0.059700 0.445916 0.687436 -0.714696
H66   H     H_    0.060253 0.467292 0.664834 0.253421
H67   H     H_    0.077075 0.452241 0.713577 0.258185
H68   H     H_    0.069485 0.422590 0.671706 0.264878
H69   H     H_    0.024279 0.415318 0.721302 0.223690
H70   H     H_    0.006120 0.433772 0.676795 0.226126
C237  C     C_3   0.553722 0.036649 0.703368 -0.393357
C238  C     C_3   0.539003 0.070497 0.687453 -0.715962
H71   H     H_    0.518067 0.066142 0.664846 0.253347
H72   H     H_    0.528872 0.085970 0.713590 0.259171
H73   H     H_    0.559474 0.085353 0.671724 0.264940
H74   H     H_    0.576888 0.043025 0.721337 0.223787
H75   H     H_    0.563088 0.021117 0.676822 0.225323
C239  C     C_3   0.976629 0.560689 0.703376 -0.392268
C240  C     C_3   0.940307 0.554105 0.687466 -0.714737
H76   H     H_    0.939753 0.532731 0.664853 0.253420
H77   H     H_    0.922932 0.547779 0.713605 0.258178
H78   H     H_    0.930523 0.577434 0.671748 0.264882
H79   H     H_    0.975731 0.584700 0.721346 0.223684
H80   H     H_    0.993887 0.566247 0.676829 0.226134
F1    F     F_    0.983245 0.893874 0.071918 -0.515212
F2    F     F_    0.893840 0.983789 0.072114 -0.516715
F3    F     F_    0.016932 0.106139 0.071860 -0.522584
F4    F     F_    0.106296 0.988986 0.073574 -0.519636
F5    F     F_    0.983045 0.106128 0.928161 -0.515120
F6    F     F_    0.893815 0.016196 0.927901 -0.516466
F7    F     F_    0.016718 0.893845 0.928072 -0.522403
F8    F     F_    0.106322 0.010999 0.926441 -0.519483
F9    F     F_    0.483363 0.393872 0.571957 -0.520602
F10   F     F_    0.393861 0.516636 0.571964 -0.520608
F11   F     F_    0.516595 0.606136 0.571991 -0.520688
F12   F     F_    0.606138 0.483346 0.571951 -0.520625
F13   F     F_    0.483414 0.606152 0.428042 -0.520405
F14   F     F_    0.393855 0.483366 0.428040 -0.520478
F15   F     F_    0.516619 0.393843 0.428035 -0.520533
F16   F     F_    0.606144 0.516651 0.428052 -0.520468
F17   F     F_    0.983282 0.824558 0.071469 -0.513242
F18   F     F_    0.824531 0.983841 0.071671 -0.513922
F19   F     F_    0.016891 0.175457 0.071416 -0.514132
F20   F     F_    0.175552 0.988893 0.073061 -0.513876
F21   F     F_    0.983086 0.175448 0.928619 -0.513010
F22   F     F_    0.824504 0.016146 0.928382 -0.513455
F23   F     F_    0.016676 0.824527 0.928532 -0.513914
F24   F     F_    0.175581 0.011089 0.926994 -0.513301
F25   F     F_    0.483394 0.324560 0.571507 -0.512787
F26   F     F_    0.324547 0.516607 0.571511 -0.512648
F27   F     F_    0.516567 0.675448 0.571558 -0.512994
F28   F     F_    0.675452 0.483375 0.571497 -0.512662
F29   F     F_    0.483442 0.675466 0.428529 -0.512351
F30   F     F_    0.324540 0.483394 0.428504 -0.512467
F31   F     F_    0.516595 0.324528 0.428503 -0.512582
F32   F     F_    0.675459 0.516623 0.428516 -0.512462
F33   F     F_    0.955141 0.784791 0.949198 -0.513774
F34   F     F_    0.784778 0.954654 0.949882 -0.513258
F35   F     F_    0.044684 0.215181 0.949017 -0.513342
F36   F     F_    0.215288 0.048476 0.045696 -0.512719
F37   F     F_    0.955301 0.215195 0.051027 -0.513896
F38   F     F_    0.784805 0.045337 0.050204 -0.513711
F39   F     F_    0.044827 0.784824 0.050817 -0.513450
F40   F     F_    0.215314 0.951509 0.954392 -0.512608
F41   F     F_    0.455134 0.284788 0.449236 -0.512154
F42   F     F_    0.284807 0.544871 0.449248 -0.512087
F43   F     F_    0.544906 0.715197 0.449325 -0.512046
F44   F     F_    0.715193 0.455146 0.449206 -0.512115
F45   F     F_    0.455106 0.715188 0.550798 -0.512598
F46   F     F_    0.284813 0.455129 0.550774 -0.512239
F47   F     F_    0.544866 0.284828 0.550796 -0.512518
F48   F     F_    0.715186 0.544854 0.550814 -0.512267
F49   F     F_    0.955730 0.714996 0.948467 -0.524083
F50   F     F_    0.714977 0.955211 0.949181 -0.521193
F51   F     F_    0.044105 0.284976 0.948285 -0.524087
F52   F     F_    0.285071 0.047912 0.046599 -0.522992
F53   F     F_    0.955892 0.284991 0.051774 -0.524384
F54   F     F_    0.715004 0.044780 0.050961 -0.522735
F55   F     F_    0.044249 0.715029 0.051572 -0.524289
F56   F     F_    0.285098 0.952070 0.953551 -0.522195
F57   F     F_    0.455726 0.214995 0.448508 -0.521783
F58   F     F_    0.215013 0.544279 0.448499 -0.521691
F59   F     F_    0.544315 0.784989 0.448593 -0.521539
F60   F     F_    0.784987 0.455739 0.448457 -0.521713
F61   F     F_    0.455698 0.784981 0.551578 -0.523395
F62   F     F_    0.215020 0.455721 0.551538 -0.522242
F63   F     F_    0.544273 0.215036 0.551581 -0.523232
F64   F     F_    0.784979 0.544261 0.551578 -0.522264
F65   F     F_    0.941954 0.675280 0.024053 -0.521742
F66   F     F_    0.675271 0.057753 0.975056 -0.523347
F67   F     F_    0.058104 0.324718 0.023822 -0.521677
F68   F     F_    0.324874 0.943740 0.029713 -0.521974
F69   F     F_    0.941891 0.324706 0.976238 -0.521358
F70   F     F_    0.675253 0.942252 0.025104 -0.523377
F71   F     F_    0.058036 0.675285 0.975996 -0.521298
F72   F     F_    0.324849 0.056260 0.970449 -0.520857
F73   F     F_    0.441935 0.175280 0.523988 -0.520828
F74   F     F_    0.175280 0.558068 0.523960 -0.520785
F75   F     F_    0.558053 0.824734 0.524075 -0.521000
F76   F     F_    0.824719 0.441924 0.523907 -0.520810
F77   F     F_    0.441945 0.824706 0.476104 -0.520736
F78   F     F_    0.175284 0.441930 0.476082 -0.520818
F79   F     F_    0.558072 0.175282 0.476123 -0.520944
F80   F     F_    0.824715 0.558078 0.476133 -0.520830
F81   F     F_    0.941619 0.605947 0.024188 -0.546249
F82   F     F_    0.605920 0.058074 0.974848 -0.549996
F83   F     F_    0.058448 0.394049 0.023951 -0.546139
F84   F     F_    0.394273 0.943447 0.029755 -0.548540
F85   F     F_    0.941550 0.394036 0.976081 -0.545633
F86   F     F_    0.605900 0.941934 0.025245 -0.548874
F87   F     F_    0.058381 0.605952 0.975846 -0.545677
F88   F     F_    0.394247 0.056561 0.970342 -0.547130
F89   F     F_    0.441591 0.105949 0.524096 -0.545878
F90   F     F_    0.105948 0.558413 0.524076 -0.546092
F91   F     F_    0.558394 0.894065 0.524162 -0.546022
F92   F     F_    0.894050 0.441578 0.524023 -0.546092
F93   F     F_    0.441599 0.894035 0.475938 -0.546163
F94   F     F_    0.105953 0.441584 0.475950 -0.546330
F95   F     F_    0.558417 0.105953 0.475978 -0.546298
F96   F     F_    0.894045 0.558424 0.476001 -0.546323

loop_
_geom_bond_atom_site_label_1
_geom_bond_atom_site_label_2
_ccdc_geom_bond_type
C10   C174  A    
C11   C171  A    
C18   F34   S    
C198  C206  A    
C9    C169  A    
C216  H16   S    
C70   F70   S    
C137  C149  A    
C136  C148  A    
C12   C172  A    
C179  C195  A    
C228  H46   S    
C192  F24   S    
Cu7   O27   S    
C177  C193  A    
C223  H39   S    
Cu10  O39   S    
Cu2   O18   S    
C214  H11   S    
C36   F52   S    
C129  C239  S    
C235  H69   S    
C130  C146  A    
C47   F63   S    
C22   C38   A    
C82   F82   S    
Cu1   O1    S    
C186  C202  A    
C1    O1    A    
C87   F87   S    
C18   C58   A    
C197  F29   S    
C86   F86   S    
C39   F55   S    
C217  H24   S    
C226  H41   S    
C196  F28   S    
C124  O24   A    
C147  C155  S    
C186  F18   S    
C129  C145  A    
C180  C196  A    
C47   C53   A    
C12   C115  S    
C89   C101  A    
C143  C151  A    
C200  C208  A    
Cu7   O31   S    
C76   C112  A    
C82   C98   A    
C218  H22   S    
C136  C225  S    
C31   F47   S    
Cu5   O13   S    
C66   F66   S    
C238  H72   S    
C238  H71   S    
C14   C182  A    
C92   F92   S    
Cu5   Cu7   S    
C114  O34   A    
C236  H68   S    
C5    C101  S    
C11   C173  A    
C79   C109  A    
C84   C100  A    
C120  O46   A    
C230  H51   S    
C25   C41   A    
C121  O19   A    
C28   C44   A    
C189  C203  A    
C29   C45   A    
C127  O29   A    
C219  H30   S    
C74   C110  A    
C118  O48   A    
C66   C82   A    
C236  H67   S    
C146  C154  S    
Cu3   O3    S    
C80   C112  A    
C226  H43   S    
C192  C204  A    
C132  C233  S    
C188  F20   S    
C231  H60   S    
C8    C104  S    
C182  F14   S    
C10   C113  S    
C237  H74   S    
C96   C104  A    
C153  C168  T    
C35   C51   A    
C143  C211  S    
C22   F38   S    
C67   F67   S    
C154  C167  T    
C218  H21   S    
C68   F68   S    
C1    C97   S    
C169  F1    S    
C94   F94   S    
Cu5   O9    S    
C2    O6    A    
C116  O36   A    
C228  H48   S    
C53   C109  S    
C30   F46   S    
C55   C111  S    
C213  H14   S    
C9    C116  S    
Cu2   O8    S    
C214  H13   S    
Cu11  O44   S    
C91   C103  A    
C22   C58   A    
C240  H76   S    
C16   C184  A    
C21   C59   A    
Cu8   O28   S    
C33   F49   S    
C44   F60   S    
C15   C118  S    
C29   F45   S    
C74   C90   A    
C19   C35   A    
C138  C221  S    
C41   F57   S    
C211  H10   S    
C78   C94   A    
C194  F26   S    
Cu9   O34   S    
C6    C102  S    
C92   C104  A    
C183  F15   S    
C58   C202  S    
C51   C107  S    
C76   F76   S    
C115  O39   A    
C134  C229  S    
C191  C201  A    
C179  F11   S    
C62   C206  S    
C238  H73   S    
C224  H37   S    
C67   C83   A    
Cu2   O2    S    
C15   C179  A    
C230  H53   S    
C199  C205  A    
C181  C197  A    
C93   C103  A    
C123  O23   A    
C69   C107  A    
C231  H59   S    
C129  C144  A    
C4    C100  S    
C209  H4    S    
C38   F54   S    
C216  H17   S    
Cu1   O17   S    
C185  C201  A    
C180  F12   S    
Cu6   Cu8   S    
C170  F2    S    
C195  F27   S    
C15   C181  A    
C222  H31   S    
C54   C110  S    
C89   F89   S    
C239  C240  S    
C26   F42   S    
C60   C204  S    
C122  O20   A    
C78   F78   S    
C220  H27   S    
Cu5   O29   S    
C133  C147  A    
C36   C52   A    
C75   C91   A    
C12   C176  A    
C229  H54   S    
C6    O14   A    
C7    C103  S    
C212  H6    S    
C80   F80   S    
Cu11  O42   S    
C184  F16   S    
Cu12  O45   S    
C65   C105  A    
C235  C236  S    
C193  C205  A    
C91   F91   S    
C227  C228  S    
C32   C64   A    
C78   C110  A    
Cu1   O21   S    
C134  C139  A    
C190  C202  A    
C19   C59   A    
Cu9   Cu10  S    
C198  F30   S    
C188  C204  A    
C27   F43   S    
Cu9   O36   S    
C151  C159  S    
C196  C208  A    
C125  C165  S    
C85   C99   A    
C27   C43   A    
C185  F17   S    
C14   C117  S    
C195  C207  A    
C14   C178  A    
Cu5   O25   S    
C157  C164  T    
C41   C53   A    
C233  H65   S    
C158  C163  T    
C43   C55   A    
C39   C49   A    
Cu2   Cu4   S    
C6    O10   A    
C123  O21   A    
C13   C120  S    
C69   C85   A    
C26   C42   A    
Cu4   O4    S    
C240  H78   S    
C132  C141  A    
C23   C57   A    
C176  F8    S    
C3    O3    A    
C30   C46   A    
Cu6   O16   S    
C136  C137  A    
C73   F73   S    
C227  H49   S    
C95   F95   S    
C140  C217  S    
C200  F32   S    
C37   F53   S    
C135  C147  A    
C35   F51   S    
C122  C162  S    
C222  H33   S    
C223  H40   S    
Cu10  O40   S    
C214  H12   S    
C117  O41   A    
C144  C152  A    
C232  H58   S    
C235  H70   S    
C122  O18   A    
C114  O40   A    
C181  F13   S    
C9    C175  A    
C23   F39   S    
C21   F37   S    
C3    C99   S    
C211  C212  S    
C45   C55   A    
C234  H61   S    
C212  H8    S    
C57   C201  S    
C213  C214  S    
C63   C207  S    
Cu12  O47   S    
C117  O45   A    
C16   C180  A    
C61   C205  S    
Cu12  O48   S    
C29   C63   A    
C135  C227  S    
C34   F50   S    
C140  C150  A    
Cu8   O14   S    
C31   C61   A    
C125  O25   A    
C69   F69   S    
C233  C234  S    
C138  C150  A    
C141  C215  S    
C7    O11   A    
C178  C194  A    
C17   C33   A    
C19   F35   S    
C191  F23   S    
C230  H52   S    
C79   F79   S    
C33   C49   A    
C187  C203  A    
C2    O2    A    
C81   F81   S    
C215  C216  S    
C178  F10   S    
C142  C152  A    
C77   C111  A    
C13   C183  A    
C85   F85   S    
C131  C235  S    
C20   C60   A    
Cu4   O6    S    
C31   C47   A    
C209  C210  S    
C32   C48   A    
C210  H3    S    
C45   F61   S    
C113  O37   A    
C43   F59   S    
C228  H47   S    
C219  H29   S    
C229  H55   S    
C239  H79   S    
C113  O33   A    
C28   F44   S    
Cu10  O38   S    
Cu3   O23   S    
Cu11  O43   S    
C70   C106  A    
Cu11  Cu12  S    
C49   C105  S    
C139  C149  A    
C46   F62   S    
C83   C99   A    
C218  H23   S    
C68   C84   A    
C174  F6    S    
C79   C95   A    
C142  C213  S    
C44   C56   A    
C65   C81   A    
C229  C230  S    
C20   F36   S    
C170  C186  A    
C217  H25   S    
C159  C162  T    
C225  H44   S    
Cu9   O33   S    
Cu4   O20   S    
C27   C63   A    
C174  C190  A    
C71   C87   A    
C28   C64   A    
C48   F64   S    
C71   C105  A    
Cu6   O32   S    
C215  H20   S    
C125  O27   A    
Cu6   O10   S    
C232  H56   S    
C116  O38   A    
C93   F93   S    
C190  F22   S    
C171  F3    S    
C150  C158  S    
C40   F56   S    
C126  C166  S    
C73   C109  A    
C10   C170  A    
C17   F33   S    
C75   C111  A    
C132  C146  A    
C144  C209  S    
C32   F48   S    
C73   C89   A    
Cu1   O5    S    
C42   C54   A    
C156  C165  T    
C13   C177  A    
C221  H35   S    
C77   C93   A    
C222  H32   S    
C4    O8    A    
C225  C226  S    
C86   C98   A    
C128  O30   A    
C169  C185  A    
C224  H36   S    
C20   C36   A    
C59   C203  S    
C21   C37   A    
C133  C140  A    
Cu8   O30   S    
C220  H26   S    
C50   C106  S    
C210  H1    S    
C172  F4    S    
C148  C156  S    
C96   F96   S    
C149  C157  S    
C17   C57   A    
C124  C164  S    
C135  C138  A    
C221  C222  S    
C152  C160  S    
C126  O26   A    
C217  C218  S    
C84   F84   S    
C237  C238  S    
Cu11  O41   S    
Cu12  O46   S    
C187  F19   S    
C24   F40   S    
C213  H15   S    
C64   C208  S    
C128  O32   A    
Cu7   O11   S    
C4    O4    A    
C65   F65   S    
C239  H80   S    
C175  C191  A    
C37   C51   A    
C121  O17   A    
C7    O13   A    
C176  C192  A    
C211  H9    S    
C155  C166  T    
C90   F90   S    
C123  C163  S    
Cu9   O35   S    
C11   C114  S    
Cu4   O22   S    
C24   C40   A    
C90   C102  A    
C133  C231  S    
C175  F7    S    
C120  O44   A    
C77   F77   S    
C72   F72   S    
C131  C145  A    
C75   F75   S    
C80   C96   A    
C3    O5    A    
C127  O31   A    
C233  H64   S    
C199  F31   S    
C1    O7    A    
C224  H38   S    
C121  C161  S    
Cu3   O7    S    
C221  H34   S    
C46   C54   A    
C66   C106  A    
C72   C88   A    
C240  H77   S    
C194  C206  A    
C119  O43   A    
C34   C50   A    
C209  H5    S    
C126  O28   A    
C215  H19   S    
C72   C108  A    
C216  H18   S    
Cu7   O15   S    
C88   F88   S    
C16   C119  S    
C227  H50   S    
C177  F9    S    
C25   C61   A    
Cu10  O37   S    
C184  C200  A    
C40   C52   A    
C225  H45   S    
C183  C199  A    
C223  C224  S    
C5    O9    A    
C232  H57   S    
C118  O42   A    
C24   C60   A    
C220  H28   S    
C119  O47   A    
Cu6   O26   S    
C88   C100  A    
C42   F58   S    
C130  C143  A    
C18   C34   A    
C2    C98   S    
C139  C219  S    
C131  C142  A    
C76   C92   A    
C219  C220  S    
C234  H62   S    
C212  H7    S    
C193  F25   S    
Cu3   O19   S    
C130  C237  S    
C124  O22   A    
C137  C223  S    
C70   C86   A    
C8    O16   A    
C141  C151  A    
C145  C153  S    
C48   C56   A    
C83   F83   S    
C74   F74   S    
C71   F71   S    
C226  H42   S    
C173  F5    S    
C38   C50   A    
C234  H63   S    
C134  C148  A    
C236  H66   S    
C171  C187  A    
C237  H75   S    
C160  C161  T    
C30   C62   A    
C26   C62   A    
Cu2   O24   S    
C8    O12   A    
C67   C107  A    
C231  C232  S    
C81   C97   A    
C172  C188  A    
C23   C39   A    
C173  C189  A    
Cu1   Cu3   S    
C210  H2    S    
C197  C207  A    
C95   C101  A    
C115  O35   A    
C52   C108  S    
C127  C167  S    
C5    O15   A    
C128  C168  S    
C189  F21   S    
Cu8   O12   S    
C182  C198  A    
C68   C108  A    
C25   F41   S    
C56   C112  S    
C94   C102  A    
C87   C97   A    
