data_mof_unit_26165.cif
_audit_creation_date              2012-12-11T15:19:36-0500
_audit_creation_method            fapswitch 2.2
_symmetry_space_group_name_H-M    P1
_symmetry_Int_Tables_number       1
_space_group_crystal_system       triclinic
_cell_length_a                    19.974463
_cell_length_b                    6.882921
_cell_length_c                    18.155633
_cell_angle_alpha                 89.999576
_cell_angle_beta                  104.119239
_cell_angle_gamma                 90.003256
_cell_volume                      2420.67823025

loop_
_atom_site_label
_atom_site_type_symbol
_atom_type_description
_atom_site_fract_x
_atom_site_fract_y
_atom_site_fract_z
_atom_type_partial_charge
O1    O     O_R   0.312200 0.620210 0.189560 -0.536056
O2    O     O_R   0.687800 0.379790 0.810440 -0.535936
O3    O     O_R   0.187800 0.120210 0.310440 -0.536301
O4    O     O_R   0.812200 0.879790 0.689560 -0.535377
O5    O     O_R   0.171590 0.286140 0.165000 -0.533597
O6    O     O_R   0.828410 0.713860 0.835000 -0.535469
O7    O     O_R   0.328410 0.786140 0.335000 -0.533447
O8    O     O_R   0.671590 0.213860 0.665000 -0.535326
C1    C     C_R   0.145687 0.459531 0.143817 0.708627
C2    C     C_R   0.854322 0.540507 0.856173 0.712179
C3    C     C_R   0.354314 0.959535 0.356179 0.709027
C4    C     C_R   0.645682 0.040500 0.643822 0.710484
O9    O     O_R   0.310670 0.290220 0.180540 -0.533094
O10   O     O_R   0.689330 0.709780 0.819460 -0.536702
O11   O     O_R   0.189330 0.790220 0.319460 -0.533891
O12   O     O_R   0.810670 0.209780 0.680540 -0.536127
O13   O     O_R   0.327870 0.124170 0.326080 -0.538807
O14   O     O_R   0.672130 0.875830 0.673920 -0.535790
O15   O     O_R   0.172130 0.624170 0.173920 -0.538835
O16   O     O_R   0.827870 0.375830 0.826080 -0.535735
C5    C     C_R   0.331895 0.459251 0.165154 0.657822
C6    C     C_R   0.668157 0.540717 0.834742 0.661493
C7    C     C_R   0.168106 0.959224 0.334806 0.657404
C8    C     C_R   0.831878 0.040714 0.665257 0.661754
O17   O     O_3   0.255480 0.455050 0.297740 -0.361414
O18   O     O_3   0.744520 0.544950 0.702260 -0.362639
O19   O     O_3   0.244520 0.955050 0.202260 -0.360893
O20   O     O_3   0.755480 0.044950 0.797740 -0.363390
V1    V     V_3+5 0.248980 0.178550 0.241140 1.490047
V2    V     V_3+5 0.751020 0.821450 0.758860 1.468668
V3    V     V_3+5 0.251020 0.678550 0.258860 1.488915
V4    V     V_3+5 0.748980 0.321450 0.741140 1.469705
C9    C     C_R   0.951675 0.989197 0.648930 -0.079139
C10   C     C_R   0.050310 0.904127 0.356883 -0.076728
C11   C     C_R   0.547903 0.498113 0.850689 -0.081748
C12   C     C_R   0.448856 0.396809 0.141748 -0.074889
C13   C     C_R   0.881582 0.030304 0.616452 -0.168682
C14   C     C_R   0.118821 0.969008 0.384236 -0.159851
C15   C     C_R   0.618512 0.530407 0.883548 -0.169582
C16   C     C_R   0.381170 0.469167 0.115646 -0.157754
C17   C     C_R   0.859015 0.059092 0.537469 -0.090683
C18   C     C_R   0.139856 0.044941 0.458406 -0.085111
C19   C     C_R   0.641621 0.550757 0.962871 -0.092283
C20   C     C_R   0.361028 0.553074 0.042728 -0.083181
C21   C     C_R   0.904340 0.012170 0.490032 0.017956
C22   C     C_R   0.095550 0.024022 0.509037 0.018404
C23   C     C_R   0.595816 0.503857 0.009753 0.017469
C24   C     C_R   0.404952 0.533323 0.991625 0.018954
C25   C     C_R   0.976444 0.005667 0.523669 0.052753
C26   C     C_R   0.023996 0.993038 0.477174 0.058173
C27   C     C_R   0.523648 0.506324 0.976291 0.052020
C28   C     C_R   0.476063 0.493727 0.022748 0.059904
C29   C     C_R   0.000820 0.011553 0.603984 0.016517
C30   C     C_R   0.000177 0.949147 0.398669 0.021875
C31   C     C_R   0.499241 0.521139 0.896170 0.016278
C32   C     C_R   0.499423 0.441307 0.100472 0.021951
C33   C     C_R   0.880130 0.974701 0.410778 -0.091561
C34   C     C_R   0.120129 0.036430 0.589491 -0.093097
C35   C     C_R   0.619653 0.457874 0.088326 -0.091844
C36   C     C_R   0.380482 0.555284 0.911458 -0.092760
C37   C     C_R   0.927800 0.948514 0.365005 -0.077606
C38   C     C_R   0.072845 0.035562 0.636547 -0.075330
C39   C     C_R   0.571778 0.432004 0.133864 -0.078426
C40   C     C_R   0.427627 0.554512 0.864247 -0.074174
C41   C     C_1   0.583184 0.027581 0.581600 -0.168204
C42   C     C_1   0.416810 0.972595 0.418397 -0.170863
C43   C     C_1   0.916817 0.527599 0.918398 -0.167191
C44   C     C_1   0.083188 0.472586 0.081602 -0.170826
C45   C     C_1   0.530851 0.011042 0.530181 0.039612
C46   C     C_1   0.469141 0.989245 0.469812 0.037468
C47   C     C_1   0.969148 0.511057 0.969819 0.039789
C48   C     C_1   0.030857 0.489245 0.030189 0.037300
C49   C     C_2   0.970731 0.909143 0.727440 0.373323
H1    H     H_    0.947670 0.967170 0.771073 0.033062
O21   O     O_2   0.009966 0.770908 0.742858 -0.502697
C50   C     C_2   0.034109 0.778865 0.287979 0.379290
H2    H     H_    0.055494 0.811501 0.239886 0.030430
O22   O     O_2   0.999129 0.632573 0.286032 -0.500967
C51   C     C_2   0.527648 0.425527 0.771093 0.372750
H3    H     H_    0.551946 0.483057 0.728373 0.033116
O23   O     O_2   0.485942 0.293508 0.753652 -0.500205
C52   C     C_2   0.463730 0.265277 0.208831 0.382124
H4    H     H_    0.443504 0.296936 0.257829 0.029687
O24   O     O_2   0.496337 0.115440 0.208247 -0.501733
C53   C     C_2   0.790377 0.151250 0.507409 0.399327
H5    H     H_    0.746697 0.111744 0.529983 0.018888
O25   O     O_2   0.783093 0.279392 0.459585 -0.488618
C54   C     C_2   0.205585 0.156570 0.479195 0.405982
H6    H     H_    0.250795 0.106708 0.461547 0.024673
O26   O     O_2   0.208600 0.310469 0.513303 -0.492542
C55   C     C_2   0.711403 0.635125 0.994022 0.399186
H7    H     H_    0.754397 0.594919 0.970416 0.017626
O27   O     O_2   0.720476 0.758048 0.043986 -0.485731
C56   C     C_2   0.296655 0.670896 0.023787 0.408408
H8    H     H_    0.250617 0.621345 0.039838 0.024896
O28   O     O_2   0.295727 0.828998 0.993030 -0.493412
C57   C     C_2   0.805242 0.941281 0.377263 0.632269
H9    H     H_    0.776551 0.845328 0.405814 0.014734
O29   O     O_2   0.774534 0.027361 0.320175 -0.442701
C58   C     C_2   0.195606 0.028389 0.624975 0.619560
H10   H     H_    0.227143 0.919746 0.606138 0.028558
O30   O     O_2   0.223462 0.147957 0.672283 -0.455700
C59   C     C_2   0.694069 0.415327 0.121018 0.633421
H11   H     H_    0.721352 0.319556 0.090808 0.015050
O31   O     O_2   0.726045 0.493831 0.179354 -0.444688
C60   C     C_2   0.304961 0.557520 0.876020 0.617278
H12   H     H_    0.271894 0.449583 0.892744 0.025142
O32   O     O_2   0.278861 0.684551 0.831199 -0.453155
C61   C     C_2   0.902043 0.942022 0.280873 0.603305
H13   H     H_    0.925000 0.036328 0.245851 0.008345
O33   O     O_2   0.857891 0.825536 0.250163 -0.451703
C62   C     C_2   0.097999 0.081230 0.718821 0.590450
H14   H     H_    0.072066 0.192203 0.744085 0.013054
O34   O     O_2   0.145135 0.989396 0.759442 -0.455918
C63   C     C_2   0.597594 0.416683 0.217796 0.601710
H15   H     H_    0.576099 0.510300 0.254320 0.006716
O35   O     O_2   0.640064 0.293854 0.246586 -0.451255
C64   C     C_2   0.403112 0.610001 0.782838 0.591263
H16   H     H_    0.430863 0.720023 0.759332 0.014430
O36   O     O_2   0.354398 0.527107 0.740852 -0.459238

loop_
_geom_bond_atom_site_label_1
_geom_bond_atom_site_label_2
_ccdc_geom_bond_type
C34   C38   A    
O1    C5    A    
O19   V1    S    
O13   V1    S    
C49   H1    S    
O3    C7    A    
O15   V3    S    
C64   O36   D    
C62   O34   D    
C57   H9    S    
C2    C43   S    
O18   V4    S    
C21   C33   A    
C26   C30   A    
O9    V1    S    
C50   O22   D    
C14   C18   A    
C61   O33   D    
C11   C15   A    
O4    C8    A    
C25   C29   A    
C60   H12   S    
C63   H15   S    
O1    V3    S    
C40   C64   S    
O2    V4    S    
C18   C22   A    
C33   C37   A    
O3    V1    S    
C64   H16   S    
C12   C16   A    
C1    O15   A    
C2    O16   A    
C63   O35   D    
O2    C6    A    
O14   V2    S    
C16   C20   A    
C27   C31   A    
C3    C42   S    
C44   C48   T    
C39   C63   S    
O11   C7    A    
C37   C61   S    
O12   C8    A    
C22   C34   A    
O17   V1    S    
C49   O21   D    
C45   C46   S    
O10   V2    S    
C62   H14   S    
C57   O29   D    
C24   C36   A    
O5    V1    S    
C53   O25   D    
C9    C29   A    
O7    V3    S    
O19   V3    S    
C27   C28   A    
O8    V4    S    
O20   V4    S    
C34   C58   S    
C50   H2    S    
C12   C52   S    
C55   H7    S    
C51   O23   D    
C15   C19   A    
C53   H5    S    
C11   C31   A    
C52   H4    S    
C9    C13   A    
O7    C3    A    
O5    C1    A    
C12   C32   A    
C55   O27   D    
C29   C38   A    
C21   C25   A    
O8    C4    A    
C33   C57   S    
C31   C40   A    
C58   O30   D    
C8    C13   S    
C32   C39   A    
O9    C5    A    
C59   O31   D    
C56   O28   D    
C9    C49   S    
O6    V2    S    
C54   O26   D    
C10   C30   A    
C52   O24   D    
C18   C54   S    
C36   C60   S    
O16   V4    S    
C3    O13   A    
C10   C14   A    
O17   V3    S    
O6    C2    A    
C23   C27   A    
O11   V3    S    
C30   C37   A    
O12   V4    S    
C7    C14   S    
C17   C53   S    
C4    C41   S    
C22   C26   A    
C35   C39   A    
C36   C40   A    
C35   C59   S    
O10   C6    A    
O20   V2    S    
C1    C44   S    
C47   C48   S    
C61   H13   S    
C42   C46   T    
C5    C16   S    
C60   O32   D    
C41   C45   T    
C6    C15   S    
C11   C51   S    
C58   H10   S    
C43   C47   T    
C13   C17   A    
C56   H8    S    
C19   C55   S    
C20   C56   S    
C23   C35   A    
C51   H3    S    
C28   C32   A    
C24   C28   A    
C38   C62   S    
C54   H6    S    
C25   C26   A    
C4    O14   A    
C59   H11   S    
C17   C21   A    
C19   C23   A    
O4    V2    S    
C20   C24   A    
C10   C50   S    
O18   V2    S    
