data_mof_unit_45268.cif
_audit_creation_date              2012-10-26T19:25:57-0400
_audit_creation_method            fapswitch 2.2
_symmetry_space_group_name_H-M    P1
_symmetry_Int_Tables_number       1
_space_group_crystal_system       triclinic
_cell_length_a                    14.988728
_cell_length_b                    13.708338
_cell_length_c                    11.691824
_cell_angle_alpha                 89.758871
_cell_angle_beta                  89.190268
_cell_angle_gamma                 90.184661
_cell_volume                      2402.05138713

loop_
_atom_site_label
_atom_site_type_symbol
_atom_type_description
_atom_site_fract_x
_atom_site_fract_y
_atom_site_fract_z
_atom_type_partial_charge
C1    C     C_R   0.328847 0.499820 0.501215 0.544493
C2    C     C_R   0.557520 0.207075 0.429095 0.041457
C3    C     C_R   0.557514 0.793829 0.429089 0.040402
C4    C     C_R   0.442486 0.206171 0.570911 0.040402
C5    C     C_R   0.558898 0.896882 0.427415 -0.015195
C6    C     C_R   0.441102 0.103118 0.572585 -0.015196
C7    C     C_R   0.441099 0.895950 0.572579 -0.015407
C8    C     C_R   0.558901 0.104049 0.427421 -0.015407
C9    C     C_R   0.499999 0.948196 0.499999 0.053760
C10   C     C_R   0.500000 0.051804 0.500001 0.053760
C11   C     C_R   0.617518 0.949636 0.355197 -0.142168
C12   C     C_R   0.671153 0.500180 0.498785 0.544493
C13   C     C_R   0.382482 0.050364 0.644803 -0.142167
C14   C     C_R   0.382478 0.947771 0.644798 -0.141877
C15   C     C_R   0.617522 0.052229 0.355202 -0.141877
C16   C     C_R   0.500134 0.500159 0.283845 0.545222
C17   C     C_R   0.499866 0.499841 0.716155 0.545221
C18   C     C_1   0.500111 0.500393 0.162267 -0.028527
C19   C     C_1   0.499889 0.499607 0.837733 -0.028529
C20   C     C_1   0.500048 0.500199 0.059833 -0.046644
C21   C     C_1   0.499952 0.499801 0.940167 -0.046645
C22   C     C_R   0.814341 0.478740 0.397704 -0.143895
C23   C     C_R   0.907958 0.480877 0.395423 0.008417
C24   C     C_R   0.185659 0.521263 0.602295 -0.143900
C25   C     C_R   0.767420 0.500840 0.498179 -0.000923
C26   C     C_R   0.232580 0.499159 0.501821 -0.000922
C27   C     C_R   0.811867 0.524100 0.598196 -0.131560
C28   C     C_R   0.188132 0.475897 0.401806 -0.131560
C29   C     C_R   0.904700 0.522924 0.599723 -0.000858
C30   C     C_R   0.095299 0.477075 0.400279 -0.000859
C31   C     C_R   0.953201 0.500895 0.498730 0.042431
C32   C     C_R   0.046799 0.499105 0.501272 0.042433
C33   C     C_R   0.084296 0.550922 0.819249 0.031507
C34   C     C_R   0.092042 0.519124 0.604579 0.008416
C35   C     C_R   0.068700 0.635907 0.883186 -0.094891
C36   C     C_R   0.105199 0.646061 0.991926 -0.104323
C37   C     C_R   0.157079 0.571417 0.037844 -0.099594
C38   C     C_R   0.171951 0.486109 0.975511 -0.115496
C39   C     C_R   0.135396 0.475539 0.866851 -0.096548
C40   C     C_R   0.915703 0.449076 0.180756 0.031505
C41   C     C_R   0.864625 0.524473 0.133138 -0.096545
C42   C     C_R   0.828058 0.513896 0.024485 -0.115498
C43   C     C_R   0.842893 0.428566 0.962177 -0.099587
C44   C     C_R   0.894750 0.353908 0.008113 -0.104324
C45   C     C_R   0.949194 0.541874 0.701503 -0.136480
C46   C     C_R   0.931263 0.364069 0.116844 -0.094896
C47   C     C_R   0.050806 0.458122 0.298499 -0.136485
C48   C     C_R   0.042314 0.538313 0.706055 -0.011337
C49   C     C_R   0.957686 0.461687 0.293947 -0.011342
C50   C     C_R   0.442480 0.792925 0.570904 0.041457
Cu1   Cu    Cu3+1 0.500000 0.597420 0.500000 0.937122
Cu2   Cu    Cu3+1 0.500000 0.402580 0.500000 0.937120
H1    H     H_    0.777018 0.459958 0.322242 0.114110
H2    H     H_    0.397628 0.246655 0.626266 0.122148
H3    H     H_    0.663380 0.911575 0.298694 0.105076
H4    H     H_    0.336620 0.088425 0.701306 0.105077
H5    H     H_    0.336613 0.908979 0.701297 0.107187
H6    H     H_    0.663387 0.091021 0.298703 0.107185
H7    H     H_    0.028380 0.694199 0.848756 0.102343
H8    H     H_    0.093154 0.711771 0.040675 0.106803
H9    H     H_    0.185351 0.579466 0.121979 0.108414
H10   H     H_    0.211461 0.427978 0.011645 0.104297
H11   H     H_    0.146419 0.408517 0.820075 0.105966
H12   H     H_    0.222981 0.540048 0.677756 0.114105
H13   H     H_    0.853629 0.591509 0.179897 0.105965
H14   H     H_    0.788565 0.572036 0.988337 0.104289
H15   H     H_    0.814610 0.420511 0.878048 0.108415
H16   H     H_    0.906767 0.288180 0.959383 0.106802
H17   H     H_    0.971562 0.305766 0.151290 0.102349
H18   H     H_    0.773858 0.540972 0.675268 0.100168
H19   H     H_    0.226141 0.459022 0.324735 0.100169
H20   H     H_    0.911042 0.557370 0.778758 0.113013
H21   H     H_    0.088957 0.442622 0.221244 0.113018
H22   H     H_    0.397606 0.751745 0.626260 0.124160
H23   H     H_    0.602393 0.248255 0.373740 0.124160
H24   H     H_    0.602372 0.753345 0.373734 0.122149
N1    N     N_R   0.500000 0.743810 0.500000 -0.237027
N2    N     N_R   0.500000 0.256190 0.500000 -0.237027
O1    O     O_R   0.370260 0.582280 0.500020 -0.499435
O2    O     O_R   0.629740 0.417720 0.499980 -0.499436
O3    O     O_R   0.629740 0.582280 0.499980 -0.501071
O4    O     O_R   0.370260 0.417720 0.500020 -0.501071
O5    O     O_R   0.500010 0.582270 0.337200 -0.496980
O6    O     O_R   0.499990 0.417730 0.662800 -0.496981
O7    O     O_R   0.499990 0.582270 0.662800 -0.498247
O8    O     O_R   0.500010 0.417730 0.337200 -0.498247

loop_
_geom_bond_atom_site_label_1
_geom_bond_atom_site_label_2
_ccdc_geom_bond_type
C27   C29   A    
C41   C42   A    
C35   C36   A    
Cu1   O7    S    
C47   C49   A    
C40   C46   A    
C33   C39   A    
C17   O7    A    
C36   C37   A    
C19   C21   T    
C24   C26   A    
C5    C11   A    
C50   H22   S    
C38   C39   A    
C23   C49   A    
C40   C49   S    
C35   H7    S    
C4    N2    A    
Cu2   O6    S    
C46   H17   S    
C33   C35   A    
C11   C15   A    
C7    C14   A    
C22   C25   A    
C9    C10   A    
Cu1   O3    S    
C13   H4    S    
C24   H12   S    
C13   C14   A    
C45   H20   S    
C16   O8    A    
Cu2   N2    S    
C44   C46   A    
C22   H1    S    
Cu1   Cu2   S    
C30   C47   A    
C47   H21   S    
C4    C6    A    
C41   H13   S    
C3    C5    A    
C1    O4    A    
C16   O5    A    
C24   C34   A    
C29   C45   A    
C23   C31   A    
C43   C44   A    
Cu1   N1    S    
C43   H15   S    
C5    C9    A    
C37   C38   A    
C2    N2    A    
C31   C32   A    
Cu2   O4    S    
C3    H24   S    
C27   H18   S    
C8    C10   A    
C40   C41   A    
C8    C15   A    
C1    C26   S    
C1    O1    A    
C15   H6    S    
C44   H16   S    
C28   H19   S    
C34   C48   A    
C42   C43   A    
C3    N1    A    
C50   N1    A    
Cu1   O5    S    
C11   H3    S    
C45   C48   A    
C7    C9    A    
C14   H5    S    
C4    H2    S    
C2    C8    A    
C7    C50   A    
C36   H8    S    
C6    C10   A    
C37   H9    S    
C25   C27   A    
C39   H11   S    
C26   C28   A    
C12   C25   S    
C17   O6    A    
Cu2   O8    S    
C29   C31   A    
C6    C13   A    
C30   C32   A    
C12   O2    A    
C28   C30   A    
C17   C19   S    
C12   O3    A    
C18   C20   T    
Cu1   O1    S    
C20   C21   S    
C16   C18   S    
C42   H14   S    
C33   C48   S    
C22   C23   A    
Cu2   O2    S    
C2    H23   S    
C32   C34   A    
C38   H10   S    
