data_mof_unit_48290.cif
_audit_creation_date              2012-12-10T18:43:43-0500
_audit_creation_method            fapswitch 2.2
_symmetry_space_group_name_H-M    P1
_symmetry_Int_Tables_number       1
_space_group_crystal_system       triclinic
_cell_length_a                    10.875826
_cell_length_b                    10.6286
_cell_length_c                    9.905571
_cell_angle_alpha                 89.520156
_cell_angle_beta                  104.055088
_cell_angle_gamma                 91.162559
_cell_volume                      1110.51767394

loop_
_atom_site_label
_atom_site_type_symbol
_atom_type_description
_atom_site_fract_x
_atom_site_fract_y
_atom_site_fract_z
_atom_type_partial_charge
C1    C     C_R   0.502324 0.260531 0.500979 0.875607
C2    C     C_R   0.497676 0.739469 0.499021 0.875607
C3    C     C_R   0.259582 0.500086 0.441807 0.934780
C4    C     C_R   0.740418 0.499914 0.558193 0.934781
C5    C     C_R   0.581453 0.577271 0.092685 -0.006098
C6    C     C_R   0.418547 0.422729 0.907314 -0.006098
C7    C     C_R   0.581222 0.577333 0.948560 -0.025393
C8    C     C_R   0.418778 0.422667 0.051440 -0.025393
C9    C     C_2   0.123527 0.498770 0.408773 -0.366676
C10   C     C_2   0.876472 0.501231 0.591227 -0.366676
C11   C     C_2   0.067329 0.503770 0.513628 -0.142528
C12   C     C_2   0.932671 0.496233 0.486372 -0.142528
C13   C     C_R   0.600357 0.064461 0.458593 0.156590
C14   C     C_R   0.399642 0.935539 0.541407 0.156590
C15   C     C_R   0.593576 0.934816 0.456475 -0.231810
C16   C     C_R   0.406423 0.065184 0.543525 -0.231809
C17   C     C_R   0.495010 0.871859 0.497544 -0.078159
C18   C     C_R   0.504990 0.128141 0.502456 -0.078159
H1    H     H_    0.879323 0.487398 0.378541 0.193274
H2    H     H_    0.120677 0.512605 0.621458 0.193274
H3    H     H_    0.930256 0.508497 0.698944 0.157022
H4    H     H_    0.069744 0.491504 0.301055 0.157022
H5    H     H_    0.667224 0.882614 0.426618 0.170860
H6    H     H_    0.332775 0.117386 0.573381 0.170859
N1    N     N_R   0.499970 0.499970 0.857200 -0.123640
N2    N     N_R   0.500030 0.500030 0.142800 -0.123640
O1    O     O_R   0.499990 0.316750 0.614620 -0.615599
O2    O     O_R   0.500010 0.683250 0.385380 -0.615599
O3    O     O_R   0.499990 0.316780 0.385290 -0.610512
O4    O     O_R   0.500010 0.683220 0.614710 -0.610512
O5    O     O_R   0.317810 0.500000 0.571850 -0.618889
O6    O     O_R   0.682190 0.500000 0.428150 -0.618889
O7    O     O_R   0.317810 0.500030 0.342520 -0.611466
O8    O     O_R   0.682190 0.499970 0.657480 -0.611466
Zn1   Zn    Zn3+2 0.500000 0.499980 0.653120 0.958819
Zn2   Zn    Zn3+2 0.500000 0.500020 0.346880 0.958820
C19   C     C_1   0.669351 0.658324 0.187252 0.222801
N3    N     N_1   0.740953 0.723424 0.261870 -0.234903
C20   C     C_1   0.330649 0.341676 0.812748 0.222801
N4    N     N_1   0.259047 0.276576 0.738130 -0.234903
C21   C     C_1   0.666923 0.659603 0.897167 0.231062
N5    N     N_1   0.735847 0.725921 0.856643 -0.210717
C22   C     C_1   0.333077 0.340397 0.102833 0.231062
N6    N     N_1   0.264153 0.274079 0.143357 -0.210718
C23   C     C_3   0.711839 0.130264 0.419339 -0.404218
C24   C     C_3   0.693558 0.134622 0.261642 -0.795731
H7    H     H_    0.687199 0.037790 0.218819 0.256601
H8    H     H_    0.605798 0.185449 0.211953 0.269889
H9    H     H_    0.775543 0.184733 0.235857 0.241732
H10   H     H_    0.726860 0.227433 0.460954 0.202628
H11   H     H_    0.800350 0.079401 0.466675 0.204673
C25   C     C_3   0.288161 0.869736 0.580660 -0.404220
C26   C     C_3   0.306441 0.865378 0.738357 -0.795732
H12   H     H_    0.224457 0.815266 0.764141 0.241733
H13   H     H_    0.394201 0.814552 0.788046 0.269890
H14   H     H_    0.312798 0.962210 0.781180 0.256602
H15   H     H_    0.199650 0.920599 0.533324 0.204674
H16   H     H_    0.273140 0.772567 0.539045 0.202628

loop_
_geom_bond_atom_site_label_1
_geom_bond_atom_site_label_2
_ccdc_geom_bond_type
C10   H3    S    
C13   C23   S    
C11   C12   S    
C14   C25   S    
C15   C17   A    
C19   N3    T    
C3    C9    S    
C5    C19   S    
C8    N2    A    
C21   N5    T    
C7    N1    A    
C8    C22   S    
C2    O4    A    
C22   N6    T    
C6    C20   S    
C1    O3    A    
C16   H6    S    
C16   C18   A    
C26   H12   S    
C2    C17   S    
C3    O5    A    
C9    C11   D    
O3    Zn2   S    
C1    C18   S    
C4    O6    A    
C13   C15   A    
C10   C12   D    
O4    Zn1   S    
N1    Zn1   S    
C6    C8    A    
C13   C18   A    
C12   H1    S    
C15   H5    S    
O5    Zn1   S    
C26   H13   S    
C4    O8    A    
C25   H16   S    
C14   C16   A    
C11   H2    S    
C23   C24   S    
C6    N1    A    
C25   H15   S    
C23   H11   S    
C4    C10   S    
C5    N2    A    
C24   H8    S    
O6    Zn2   S    
O7    Zn2   S    
C25   C26   S    
O2    Zn2   S    
C1    O1    A    
O8    Zn1   S    
C26   H14   S    
N2    Zn2   S    
C20   N4    T    
C5    C7    A    
C3    O7    A    
C9    H4    S    
C2    O2    A    
C23   H10   S    
O1    Zn1   S    
C24   H7    S    
C24   H9    S    
C7    C21   S    
C14   C17   A    
