data_mof_unit_38709.cif
_audit_creation_date              2012-12-11T15:06:46-0500
_audit_creation_method            fapswitch 2.2
_symmetry_space_group_name_H-M    P1
_symmetry_Int_Tables_number       1
_space_group_crystal_system       monoclinic
_cell_length_a                    7.264239
_cell_length_b                    15.593195
_cell_length_c                    22.038723
_cell_angle_alpha                 90.0
_cell_angle_beta                  89.999989
_cell_angle_gamma                 90.0
_cell_volume                      2496.38555416

loop_
_atom_site_label
_atom_site_type_symbol
_atom_type_description
_atom_site_fract_x
_atom_site_fract_y
_atom_site_fract_z
_atom_type_partial_charge
O1    O     O_R   0.390810 0.844810 0.447340 -0.539918
O2    O     O_R   0.109190 0.155190 0.947340 -0.539918
O3    O     O_R   0.890810 0.655190 0.552660 -0.539918
O4    O     O_R   0.609190 0.344810 0.052660 -0.539918
O5    O     O_R   0.720550 0.655820 0.440420 -0.543188
O6    O     O_R   0.779450 0.344180 0.940420 -0.543188
O7    O     O_R   0.220550 0.844180 0.559580 -0.543188
O8    O     O_R   0.279450 0.155820 0.059580 -0.543188
C1    C     C_R   0.552781 0.628687 0.426037 0.714831
C2    C     C_R   0.947219 0.371313 0.926037 0.714831
C3    C     C_R   0.052781 0.871313 0.573963 0.714831
C4    C     C_R   0.447219 0.128687 0.073963 0.714832
O9    O     O_R   0.720530 0.844130 0.440420 -0.525736
O10   O     O_R   0.779470 0.155870 0.940420 -0.525736
O11   O     O_R   0.220530 0.655870 0.559580 -0.525736
O12   O     O_R   0.279470 0.344130 0.059580 -0.525735
O13   O     O_R   0.890830 0.844810 0.552660 -0.520090
O14   O     O_R   0.609170 0.155190 0.052660 -0.520090
O15   O     O_R   0.390830 0.655190 0.447340 -0.520090
O16   O     O_R   0.109170 0.344810 0.947340 -0.520090
C5    C     C_R   0.552889 0.871084 0.425475 0.740136
C6    C     C_R   0.947111 0.128916 0.925475 0.740136
C7    C     C_R   0.052889 0.628916 0.574525 0.740136
C8    C     C_R   0.447111 0.371084 0.074525 0.740135
O17   O     O_3   0.557310 0.749980 0.536820 -0.380921
O18   O     O_3   0.942690 0.250020 0.036820 -0.380921
O19   O     O_3   0.057310 0.750020 0.463180 -0.380921
O20   O     O_3   0.442690 0.249980 0.963180 -0.380921
V1    V     V_3+5 0.832160 0.749980 0.493170 1.492814
V2    V     V_3+5 0.667840 0.250020 0.993170 1.492814
V3    V     V_3+5 0.332160 0.750020 0.506830 1.492814
V4    V     V_3+5 0.167840 0.249980 0.006830 1.492814
C9    C     C_R   0.877957 0.593297 0.867209 0.423746
C10   C     C_R   0.622042 0.406703 0.367209 0.423746
C11   C     C_R   0.377957 0.906703 0.132791 0.423746
C12   C     C_R   0.122042 0.093297 0.632791 0.423746
H1    H     H_    0.801192 0.521578 0.946678 0.143701
H2    H     H_    0.698807 0.478421 0.446678 0.143701
H3    H     H_    0.301192 0.978421 0.053322 0.143701
H4    H     H_    0.198807 0.021579 0.553322 0.143702
H5    H     H_    0.859594 0.714827 0.781110 0.151140
H6    H     H_    0.640407 0.285173 0.281109 0.151140
H7    H     H_    0.359592 0.785173 0.218891 0.151140
H8    H     H_    0.140409 0.214827 0.718891 0.151140
C13   C     C_R   0.949958 0.444104 0.884559 -0.071274
C14   C     C_R   0.550042 0.555896 0.384559 -0.071274
C15   C     C_R   0.449958 0.055896 0.115441 -0.071274
C16   C     C_R   0.050042 0.944104 0.615441 -0.071274
C17   C     C_R   0.125041 0.477908 0.595766 0.240359
C18   C     C_R   0.374958 0.522092 0.095766 0.240360
C19   C     C_R   0.625042 0.022092 0.404234 0.240359
C20   C     C_R   0.874957 0.977908 0.904234 0.240360
C21   C     C_R   0.161697 0.411650 0.635966 -0.162870
C22   C     C_R   0.338301 0.588350 0.135966 -0.162869
C23   C     C_R   0.661698 0.088350 0.364033 -0.162870
C24   C     C_R   0.838300 0.911650 0.864033 -0.162869
C25   C     C_R   0.123348 0.420086 0.697273 -0.199499
C26   C     C_R   0.376651 0.579914 0.197273 -0.199499
C27   C     C_R   0.623349 0.079913 0.302726 -0.199499
C28   C     C_R   0.876650 0.920086 0.802726 -0.199499
C29   C     C_R   0.046203 0.496205 0.720933 0.112232
C30   C     C_R   0.453797 0.503795 0.220933 0.112232
C31   C     C_R   0.546203 0.003795 0.279067 0.112232
C32   C     C_R   0.953797 0.996205 0.779067 0.112232
C33   C     C_R   0.014973 0.566010 0.680233 0.025792
C34   C     C_R   0.485028 0.433990 0.180233 0.025792
C35   C     C_R   0.514972 0.933990 0.319767 0.025792
C36   C     C_R   0.985028 0.066009 0.819767 0.025792
C37   C     C_R   0.000772 0.505030 0.783774 0.036366
C38   C     C_R   0.499228 0.494970 0.283774 0.036366
C39   C     C_R   0.500772 0.994970 0.216225 0.036366
C40   C     C_R   0.999228 0.005030 0.716226 0.036366
C41   C     C_R   0.931094 0.584831 0.805567 0.042817
C42   C     C_R   0.568906 0.415168 0.305567 0.042817
C43   C     C_R   0.431094 0.915169 0.194433 0.042817
C44   C     C_R   0.068906 0.084831 0.694433 0.042817
C45   C     C_R   0.911448 0.653778 0.765306 -0.156391
C46   C     C_R   0.588552 0.346222 0.265306 -0.156391
C47   C     C_R   0.411448 0.846222 0.234694 -0.156391
C48   C     C_R   0.088553 0.153778 0.734694 -0.156390
C49   C     C_R   0.950610 0.644409 0.703697 -0.199744
C50   C     C_R   0.549390 0.355590 0.203697 -0.199744
C51   C     C_R   0.450609 0.855591 0.296303 -0.199744
C52   C     C_R   0.049392 0.144409 0.796303 -0.199744
C53   C     C_R   0.017752 0.436355 0.825671 -0.223989
C54   C     C_R   0.482248 0.563644 0.325671 -0.223989
C55   C     C_R   0.517752 0.063644 0.174329 -0.223989
C56   C     C_R   0.982248 0.936355 0.674329 -0.223989
C57   C     C_R   0.869872 0.520003 0.903363 -0.183442
C58   C     C_R   0.630127 0.479997 0.403363 -0.183441
C59   C     C_R   0.369872 0.979997 0.096637 -0.183441
C60   C     C_R   0.130127 0.020003 0.596637 -0.183441
C61   C     C_R   0.053756 0.556044 0.617155 -0.124907
C62   C     C_R   0.446244 0.443956 0.117155 -0.124907
C63   C     C_R   0.553756 0.943956 0.382845 -0.124907
C64   C     C_R   0.946244 0.056043 0.882845 -0.124907
H9    H     H_    0.071674 0.374431 0.813414 0.103692
H10   H     H_    0.428327 0.625569 0.313414 0.103692
H11   H     H_    0.571674 0.125569 0.186586 0.103692
H12   H     H_    0.928327 0.874431 0.686586 0.103692
H13   H     H_    0.159894 0.366085 0.725017 0.120643
H14   H     H_    0.340104 0.633915 0.225017 0.120643
H15   H     H_    0.659897 0.133915 0.274983 0.120643
H16   H     H_    0.840102 0.866085 0.774983 0.120643
H17   H     H_    0.224585 0.353261 0.620035 0.164374
H18   H     H_    0.275412 0.646739 0.120035 0.164373
H19   H     H_    0.724587 0.146739 0.379965 0.164373
H20   H     H_    0.775410 0.853261 0.879965 0.164373
H21   H     H_    0.928666 0.699211 0.674417 0.100615
H22   H     H_    0.571335 0.300789 0.174417 0.100616
H23   H     H_    0.428665 0.800789 0.325583 0.100616
H24   H     H_    0.071337 0.199211 0.825583 0.100616
O21   O     O_3   0.822435 0.671590 0.890986 -0.585538
C65   C     C_3   0.939120 0.695909 0.940070 0.047468
H25   H     H_    0.953978 0.766520 0.938389 0.164342
H26   H     H_    0.081626 0.670340 0.935567 0.153325
C66   C     C_3   0.858285 0.670259 0.002319 -0.330534
H27   H     H_    0.705913 0.670540 0.000727 0.226399
H28   H     H_    0.904229 0.604900 0.014858 0.216033
C67   C     C_3   0.923119 0.728556 0.053441 -0.771809
H29   H     H_    0.073401 0.721438 0.059443 0.268083
H30   H     H_    0.854046 0.710076 0.096454 0.227928
H31   H     H_    0.890728 0.796396 0.043495 0.263910
O22   O     O_3   0.677563 0.328410 0.390986 -0.585538
C68   C     C_3   0.560877 0.304091 0.440070 0.047468
H32   H     H_    0.546019 0.233480 0.438389 0.164342
H33   H     H_    0.418372 0.329660 0.435566 0.153325
C69   C     C_3   0.641711 0.329741 0.502319 -0.330535
H34   H     H_    0.794084 0.329460 0.500728 0.226399
H35   H     H_    0.595767 0.395100 0.514858 0.216034
C70   C     C_3   0.576875 0.271445 0.553441 -0.771805
H36   H     H_    0.426593 0.278561 0.559442 0.268083
H37   H     H_    0.645945 0.289925 0.596454 0.227928
H38   H     H_    0.609269 0.203604 0.543495 0.263909
O23   O     O_3   0.322435 0.828410 0.109014 -0.585538
C71   C     C_3   0.439120 0.804091 0.059930 0.047468
H39   H     H_    0.453980 0.733480 0.061611 0.164342
H40   H     H_    0.581625 0.829661 0.064433 0.153326
C72   C     C_3   0.358285 0.829740 0.997681 -0.330533
H41   H     H_    0.205912 0.829458 0.999273 0.226398
H42   H     H_    0.404226 0.895099 0.985142 0.216033
C73   C     C_3   0.423122 0.771444 0.946559 -0.771807
H43   H     H_    0.573403 0.778562 0.940558 0.268083
H44   H     H_    0.354050 0.789923 0.903546 0.227928
H45   H     H_    0.390730 0.703603 0.956505 0.263910
O24   O     O_3   0.177563 0.171590 0.609014 -0.585538
C74   C     C_3   0.060877 0.195909 0.559930 0.047468
H46   H     H_    0.046018 0.266520 0.561611 0.164342
H47   H     H_    0.918372 0.170340 0.564434 0.153325
C75   C     C_3   0.141711 0.170259 0.497681 -0.330535
H48   H     H_    0.294084 0.170541 0.499272 0.226398
H49   H     H_    0.095767 0.104900 0.485142 0.216034
C76   C     C_3   0.076875 0.228555 0.446559 -0.771805
H50   H     H_    0.926593 0.221439 0.440558 0.268083
H51   H     H_    0.145945 0.210075 0.403546 0.227928
H52   H     H_    0.109269 0.296396 0.456505 0.263910
Br1   Br    Br    0.183246 0.460566 0.511633 -0.660900
Br2   Br    Br    0.316751 0.539434 0.011633 -0.660900
Br3   Br    Br    0.683247 0.039434 0.488367 -0.660900
Br4   Br    Br    0.816750 0.960566 0.988367 -0.660900

loop_
_geom_bond_atom_site_label_1
_geom_bond_atom_site_label_2
_ccdc_geom_bond_type
C20   Br4   S    
C39   C43   A    
C26   C30   A    
O1    C5    A    
C23   C27   A    
O19   V1    S    
O13   V1    S    
O3    C7    A    
C74   H46   S    
C21   H17   S    
C48   C52   A    
C70   H38   S    
O15   V3    S    
C69   H34   S    
C65   H25   S    
C36   C52   A    
O23   C71   S    
C28   H16   S    
C18   Br2   S    
O7    C3    A    
C11   C43   A    
C36   C64   A    
C32   C36   A    
O9    V1    S    
C74   H47   S    
O24   C74   S    
C8    C62   S    
C66   H28   S    
H5    C45   S    
O4    C8    A    
C72   C73   S    
H7    C47   S    
O1    V3    S    
C30   C38   A    
O2    V4    S    
O3    V1    S    
C24   H20   S    
C12   C44   A    
C1    O15   A    
C2    O16   A    
C75   C76   S    
C38   C42   A    
C68   C69   S    
C16   C56   A    
C37   C41   A    
C26   H14   S    
C76   H51   S    
C13   C57   A    
O5    V1    S    
C67   H31   S    
C40   C44   A    
C34   C62   A    
C12   C60   A    
O11   C7    A    
C1    C14   S    
O12   C8    A    
C35   C63   A    
C73   H45   S    
C17   Br1   S    
C3    C16   S    
C6    C64   S    
O10   V2    S    
C4    C15   S    
H3    C59   S    
C40   C56   A    
C67   H30   S    
C55   H11   S    
C31   C35   A    
O7    V3    S    
C22   H18   S    
O8    V4    S    
H8    C48   S    
C74   C75   S    
C71   H40   S    
C66   C67   S    
C11   O23   S    
C30   C34   A    
O18   V4    S    
C18   C62   A    
C5    C63   S    
C7    C61   S    
C23   H19   S    
C15   C55   A    
C13   C53   A    
C10   C58   A    
O5    C1    A    
C75   H49   S    
C9    C57   A    
C34   C50   A    
C46   C50   A    
C33   C49   A    
C45   C49   A    
O8    C4    A    
C2    C13   S    
O9    C5    A    
C52   H24   S    
C35   C51   A    
H4    C60   S    
C76   H52   S    
C25   C29   A    
C56   H12   S    
C10   C42   A    
C39   C55   A    
C9    C41   A    
O6    V2    S    
C49   H21   S    
H6    C46   S    
C16   C60   A    
C68   H32   S    
C51   H23   S    
C27   C31   A    
C70   H36   S    
C38   C54   A    
C69   C70   S    
C50   H22   S    
C73   H44   S    
C37   C53   A    
C67   H29   S    
O21   C65   S    
C22   C26   A    
C12   O24   S    
C3    O13   A    
C10   O22   S    
C75   H48   S    
C15   C59   A    
O17   V3    S    
C44   C48   A    
C31   C39   A    
C71   H39   S    
C70   H37   S    
C69   H35   S    
O6    C2    A    
C65   H26   S    
C72   H41   S    
O11   V3    S    
C14   C58   A    
O12   V4    S    
C25   H13   S    
H2    C58   S    
C9    O21   S    
H1    C57   S    
C28   C32   A    
C29   C37   A    
O10   C6    A    
O20   V2    S    
C27   H15   S    
C18   C22   A    
O16   V4    S    
O2    C6    A    
C71   C72   S    
C47   C51   A    
C72   H42   S    
C17   C21   A    
C19   Br3   S    
C33   C61   A    
C21   C25   A    
C20   C64   A    
C19   C23   A    
C32   C40   A    
C54   H10   S    
C65   C66   S    
C53   H9    S    
O14   V2    S    
C29   C33   A    
C24   C28   A    
C42   C46   A    
C4    O14   A    
C68   H33   S    
C41   C45   A    
C73   H43   S    
C17   C61   A    
C76   H50   S    
C66   H27   S    
C43   C47   A    
O4    V2    S    
C20   C24   A    
C19   C63   A    
O22   C68   S    
C14   C54   A    
C11   C59   A    
