data_mof_unit_51797.cif
_audit_creation_date              2012-12-10T18:49:54-0500
_audit_creation_method            fapswitch 2.2
_symmetry_space_group_name_H-M    P1
_symmetry_Int_Tables_number       1
_space_group_crystal_system       triclinic
_cell_length_a                    10.709524
_cell_length_b                    9.897643
_cell_length_c                    10.687312
_cell_angle_alpha                 90.272298
_cell_angle_beta                  91.383842
_cell_angle_gamma                 90.097268
_cell_volume                      1132.49981217

loop_
_atom_site_label
_atom_site_type_symbol
_atom_type_description
_atom_site_fract_x
_atom_site_fract_y
_atom_site_fract_z
_atom_type_partial_charge
C1    C     C_R   0.260003 0.499942 0.500231 0.943595
C2    C     C_3   0.626805 0.559055 0.928778 -0.404609
C3    C     C_R   0.064201 0.379586 0.524798 -0.127740
C4    C     C_R   0.063258 0.620359 0.477492 -0.112058
C5    C     C_R   0.936281 0.379535 0.524405 -0.175358
C6    C     C_R   0.935442 0.620295 0.476705 -0.191527
C7    C     C_R   0.872313 0.499913 0.500205 -0.025592
C8    C     C_R   0.127391 0.499919 0.500799 -0.028692
C9    C     C_R   0.587916 0.072326 0.567632 -0.169878
C10   C     C_R   0.586962 0.928792 0.568867 -0.170717
C11   C     C_R   0.413944 0.927488 0.430061 0.374788
C12   C     C_R   0.410947 0.070441 0.433835 0.389607
C13   C     C_R   0.499073 0.499700 0.257581 0.957793
C14   C     C_R   0.739854 0.500028 0.500094 0.836465
C15   C     C_R   0.500519 0.500054 0.742010 0.871144
C16   C     C_3   0.399724 0.600723 0.066995 0.270416
C17   C     C_3   0.471378 0.353723 0.067102 0.244658
C18   C     C_3   0.390903 0.586191 0.924133 -0.456048
C19   C     C_3   0.487546 0.353001 0.926047 -0.435942
C20   C     C_3   0.635937 0.545611 0.074152 0.244748
C21   C     C_3   0.500946 0.499812 0.120607 -0.084760
C22   C     C_3   0.501454 0.499772 0.877988 -0.008513
H1    H     H_    0.427581 0.705963 0.089154 0.156692
H2    H     H_    0.535983 0.277815 0.109076 0.136125
H3    H     H_    0.301348 0.537067 0.894377 0.227536
H4    H     H_    0.406676 0.302159 0.878021 0.232131
H5    H     H_    0.391722 0.688778 0.881860 0.181498
H6    H     H_    0.571677 0.292874 0.902564 0.159509
H7    H     H_    0.632497 0.666860 0.899813 0.184234
H8    H     H_    0.706363 0.507338 0.883427 0.172636
H9    H     H_    0.113139 0.286170 0.544793 0.187788
H10   H     H_    0.111172 0.714260 0.459509 0.212965
H11   H     H_    0.887936 0.285969 0.543865 0.160354
H12   H     H_    0.886502 0.713924 0.457353 0.168131
H13   H     H_    0.658360 0.126741 0.621916 0.160096
H14   H     H_    0.656579 0.875218 0.624243 0.162976
N1    N     N_R   0.499970 0.857200 0.499970 -0.135002
N2    N     N_R   0.499970 0.142800 0.499970 -0.137716
O1    O     O_R   0.316750 0.614620 0.499990 -0.587108
O2    O     O_R   0.316750 0.385380 0.499990 -0.575362
O3    O     O_R   0.499970 0.614670 0.314790 -0.585742
O4    O     O_R   0.499970 0.385330 0.314790 -0.581645
O5    O     O_R   0.683220 0.614710 0.500010 -0.638507
O6    O     O_R   0.683220 0.385290 0.500010 -0.634389
O7    O     O_R   0.500010 0.614660 0.685200 -0.629574
O8    O     O_R   0.500010 0.385340 0.685200 -0.632924
Zn1   Zn    Zn3+2 0.499980 0.653120 0.500000 0.995815
Zn2   Zn    Zn3+2 0.499980 0.346880 0.500000 1.007886
Cl1   Cl    Cl    0.308033 0.840855 0.331000 -0.509204
Cl2   Cl    Cl    0.286345 0.152321 0.357656 -0.460468
Cl3   Cl    Cl    0.247220 0.587938 0.133075 -0.483493
Cl4   Cl    Cl    0.318462 0.290408 0.098511 -0.460795
C23   C     C_3   0.683094 0.682692 0.130220 -0.820733
H15   H     H_    0.617262 0.767027 0.113637 0.224290
H16   H     H_    0.704003 0.674939 0.232145 0.257165
H17   H     H_    0.771939 0.712603 0.086181 0.249799
C24   C     C_3   0.738673 0.440496 0.109944 -0.831541
H18   H     H_    0.832842 0.479183 0.086830 0.274558
H19   H     H_    0.739082 0.418979 0.211831 0.231823
H20   H     H_    0.727184 0.344034 0.057946 0.218414

loop_
_geom_bond_atom_site_label_1
_geom_bond_atom_site_label_2
_ccdc_geom_bond_type
C2    C22   S    
C12   Cl2   S    
C11   C12   A    
C6    C7    A    
C11   Cl1   S    
N1    Zn1   S    
C1    C8    S    
C9    C10   A    
C23   H16   S    
N2    Zn2   S    
C15   O8    A    
C16   Cl3   S    
C2    H8    S    
C4    C8    A    
C13   O3    A    
O3    Zn1   S    
C13   C21   S    
O4    Zn2   S    
C23   H15   S    
C3    H9    S    
C19   H6    S    
C24   H18   S    
C16   C21   S    
C18   H3    S    
C10   N1    A    
C20   C23   S    
C17   Cl4   S    
C14   O6    A    
C13   O4    A    
C17   C19   S    
C16   H1    S    
C5    C7    A    
O7    Zn1   S    
C12   N2    A    
O8    Zn2   S    
C24   H19   S    
C4    C6    A    
C1    O1    A    
C15   O7    A    
C2    C20   S    
C4    H10   S    
C17   H2    S    
C6    H12   S    
C19   C22   S    
C2    H7    S    
C20   C21   S    
C16   C18   S    
C3    C8    A    
C23   H17   S    
C11   N1    A    
C19   H4    S    
O2    Zn2   S    
C9    N2    A    
C24   H20   S    
C10   H14   S    
C9    H13   S    
C1    O2    A    
C20   C24   S    
C18   C22   S    
O1    Zn1   S    
O5    Zn1   S    
C15   C22   S    
C7    C14   S    
C18   H5    S    
O6    Zn2   S    
C5    H11   S    
C14   O5    A    
C3    C5    A    
C17   C21   S    
