data_mof_unit_35044.cif
_audit_creation_date              2012-12-11T16:43:18-0500
_audit_creation_method            fapswitch 2.2
_symmetry_space_group_name_H-M    P1
_symmetry_Int_Tables_number       1
_space_group_crystal_system       triclinic
_cell_length_a                    6.925081
_cell_length_b                    23.234013
_cell_length_c                    25.863032
_cell_angle_alpha                 104.648725
_cell_angle_beta                  90.378626
_cell_angle_gamma                 90.601061
_cell_volume                      4025.62402218

loop_
_atom_site_label
_atom_site_type_symbol
_atom_type_description
_atom_site_fract_x
_atom_site_fract_y
_atom_site_fract_z
_atom_type_partial_charge
O1    O     O_R   0.505750 0.453350 0.547660 -0.545545
O2    O     O_R   0.170990 0.432220 0.437590 -0.491795
O3    O     O_R   0.005600 0.546650 0.452340 -0.515584
C1    C     C_R   0.339071 0.414809 0.417689 0.830705
O4    O     O_R   0.175720 0.446240 0.546340 -0.544655
O5    O     O_R   0.010370 0.560770 0.561860 -0.548715
C2    C     C_R   0.344683 0.434127 0.562787 0.680469
O6    O     O_R   0.500990 0.439230 0.438140 -0.540706
O7    O     O_3   0.340820 0.537560 0.504970 -0.376977
V1    V     V_3+5 0.064050 0.493030 0.499080 1.541626
O8    O     O_R   0.680940 0.567780 0.562410 -0.552903
C3    C     C_R   0.851035 0.584325 0.582606 0.674430
O9    O     O_R   0.676210 0.553760 0.453660 -0.542412
C4    C     C_R   0.844944 0.564799 0.436455 0.759100
V2    V     V_3+5 0.564640 0.506970 0.500920 1.472211
O10   O     O_3   0.837740 0.462440 0.495030 -0.350559
C5    C     C_R   0.914395 0.923221 0.155110 -0.189745
H1    H     H_    0.892999 0.970808 0.168437 0.139505
C6    C     C_R   0.906740 0.888521 0.192315 0.422847
C7    C     C_R   0.934902 0.826383 0.175540 0.045421
C8    C     C_R   0.971122 0.800595 0.121141 -0.086034
H2    H     H_    0.990387 0.753011 0.107011 0.161721
C9    C     C_R   0.982835 0.835742 0.084478 -0.164774
H3    H     H_    0.012344 0.814890 0.042918 0.113483
C10   C     C_R   0.953667 0.897200 0.101209 -0.094627
C11   C     C_R   0.080614 0.752085 0.221266 0.402942
C12   C     C_R   0.066283 0.716618 0.257726 -0.183660
H4    H     H_    0.191112 0.691405 0.263829 0.149123
C13   C     C_R   0.895288 0.714332 0.286504 0.028134
C14   C     C_R   0.739706 0.749702 0.278330 -0.111478
H5    H     H_    0.603989 0.748662 0.298577 0.139341
C15   C     C_R   0.755387 0.786355 0.243046 -0.063320
H6    H     H_    0.633705 0.813365 0.238076 0.207242
C16   C     C_R   0.924738 0.787905 0.213847 0.019900
C17   C     C_R   0.762444 0.690871 0.370258 -0.115867
H7    H     H_    0.682970 0.731992 0.379351 0.129550
C18   C     C_R   0.749080 0.654293 0.405726 -0.209500
H8    H     H_    0.658390 0.667824 0.440568 0.135130
C19   C     C_R   0.856011 0.601799 0.397389 -0.122529
C20   C     C_R   0.973240 0.585546 0.351657 0.377732
C21   C     C_R   0.982814 0.621666 0.315695 -0.156907
H9    H     H_    0.069260 0.606945 0.280204 0.154676
C22   C     C_R   0.879847 0.675240 0.324620 0.050473
C23   C     C_R   0.027977 0.639562 0.665605 -0.219778
C24   C     C_R   0.865170 0.633847 0.631726 -0.076275
C25   C     C_R   0.716878 0.675724 0.645011 -0.194751
C26   C     C_R   0.731809 0.723329 0.690915 0.026583
C27   C     C_R   0.893885 0.728484 0.725023 0.084230
C28   C     C_R   0.042089 0.686005 0.712379 0.114663
C29   C     C_R   0.587016 0.765903 0.702970 -0.230279
C30   C     C_R   0.600820 0.814049 0.748092 0.414129
C31   C     C_R   0.763033 0.820122 0.783420 -0.096671
C32   C     C_R   0.908296 0.776060 0.771675 -0.052770
C33   C     C_R   0.069577 0.779424 0.806199 0.157961
C34   C     C_R   0.214676 0.736520 0.793443 -0.125508
C35   C     C_R   0.201945 0.690584 0.746750 -0.203094
C36   C     C_R   0.786948 0.868459 0.829621 0.448137
C37   C     C_R   0.942874 0.869287 0.865793 -0.188792
C38   C     C_R   0.084188 0.825366 0.853055 -0.212988
H10   H     H_    0.142654 0.607276 0.656008 0.119864
H11   H     H_    0.591281 0.671931 0.619051 0.128420
H12   H     H_    0.461576 0.761866 0.676914 0.170410
H13   H     H_    0.205853 0.826734 0.879974 0.148085
H14   H     H_    0.339625 0.738882 0.819386 0.119046
H15   H     H_    0.317145 0.658481 0.737606 0.124610
C39   C     C_R   0.604397 0.175060 0.149829 -0.222847
C40   C     C_R   0.456614 0.132147 0.133191 -0.084725
C41   C     C_R   0.289616 0.135532 0.164628 -0.192359
C42   C     C_R   0.268499 0.180867 0.211581 0.090839
C43   C     C_R   0.414646 0.224446 0.227541 0.081291
C44   C     C_R   0.583279 0.221582 0.196461 0.097847
C45   C     C_R   0.102771 0.183338 0.242719 -0.197403
C46   C     C_R   0.080777 0.228768 0.289283 -0.107708
C47   C     C_R   0.223601 0.273524 0.305889 0.021929
C48   C     C_R   0.391871 0.270981 0.274533 -0.002242
C49   C     C_R   0.537988 0.314680 0.289991 0.095874
C50   C     C_R   0.704579 0.311684 0.258717 -0.130985
C51   C     C_R   0.726935 0.265629 0.212427 -0.197575
C52   C     C_R   0.202743 0.320274 0.352968 0.327454
C53   C     C_R   0.350035 0.364590 0.368338 -0.146691
C54   C     C_R   0.515987 0.360766 0.336354 -0.178537
H16   H     H_    0.733497 0.173011 0.125986 0.127001
H17   H     H_    0.175371 0.102441 0.152707 0.126922
H18   H     H_    0.988940 0.150123 0.230929 0.144511
H19   H     H_    0.949463 0.228518 0.311605 0.196951
H20   H     H_    0.629430 0.394253 0.347444 0.173031
H21   H     H_    0.818464 0.344918 0.270212 0.159852
H22   H     H_    0.857147 0.264398 0.189188 0.139068
C55   C     C_R   0.275380 0.113654 0.876340 -0.147706
H23   H     H_    0.143906 0.093440 0.886392 0.116732
C56   C     C_R   0.263672 0.149142 0.840123 -0.136105
H24   H     H_    0.124035 0.154718 0.823066 0.103312
C57   C     C_R   0.430072 0.176168 0.825414 0.122945
C58   C     C_R   0.609017 0.166303 0.847686 -0.134763
H25   H     H_    0.739872 0.186929 0.837790 0.104734
C59   C     C_R   0.620896 0.130573 0.883852 -0.186910
H26   H     H_    0.760878 0.124051 0.900250 0.120320
C60   C     C_R   0.453999 0.103965 0.898815 -0.063379
C61   C     C_R   0.560397 0.213450 0.748888 -0.132593
H27   H     H_    0.683033 0.184363 0.746273 0.127347
C62   C     C_R   0.545776 0.248756 0.712548 -0.182178
H28   H     H_    0.657853 0.245972 0.683034 0.145916
C63   C     C_R   0.387098 0.286305 0.713422 -0.023901
C64   C     C_R   0.243690 0.288583 0.752580 0.465139
C65   C     C_R   0.257882 0.252196 0.788314 -0.226291
H29   H     H_    0.145926 0.254623 0.817801 0.127083
C66   C     C_R   0.416282 0.214472 0.787104 0.013517
C67   C     C_R   0.201291 0.328603 0.647427 -0.075143
H30   H     H_    0.073224 0.304313 0.653890 0.140816
C68   C     C_R   0.190801 0.364538 0.611443 -0.173711
H31   H     H_    0.054192 0.367598 0.591742 0.134343
C69   C     C_R   0.355047 0.395560 0.600674 -0.045141
C70   C     C_R   0.529916 0.389678 0.626810 -0.155539
H32   H     H_    0.659264 0.413025 0.619687 0.121759
C71   C     C_R   0.539746 0.354308 0.663201 -0.165835
H33   H     H_    0.675765 0.351677 0.683355 0.132643
C72   C     C_R   0.375420 0.323548 0.674205 0.110679
O11   O     O_R   0.308350 0.060850 0.061810 -0.544121
O12   O     O_R   0.633860 0.053770 0.953650 -0.544161
O13   O     O_R   0.798960 0.939210 0.938150 -0.513536
C73   C     C_R   0.464919 0.065731 0.937008 0.716623
O14   O     O_R   0.638360 0.067800 0.062400 -0.545658
O15   O     O_R   0.803500 0.953330 0.047670 -0.536933
C74   C     C_R   0.469991 0.084083 0.082889 0.707288
O16   O     O_R   0.303810 0.046730 0.952290 -0.540709
O17   O     O_3   0.468430 0.962490 0.995010 -0.356853
V3    V     V_3+5 0.745300 0.006960 0.000930 1.443594
O18   O     O_R   0.132880 0.946160 0.046390 -0.538154
C75   C     C_R   0.964013 0.934421 0.062777 0.702510
O19   O     O_R   0.128380 0.932130 0.937650 -0.536689
C76   C     C_R   0.958306 0.916524 0.916765 0.738586
V4    V     V_3+5 0.244670 0.992930 0.999140 1.458125
O20   O     O_3   0.971670 0.037510 0.005000 -0.381399
Cl1   Cl    Cl    0.103466 0.518649 0.336378 -0.671066
Cl2   Cl    Cl    0.404728 0.863452 0.757553 -0.634400
O21   O     O_3   0.658559 0.915090 0.839923 -0.524712
C77   C     C_3   0.735811 0.961339 0.819580 -0.084157
H34   H     H_    0.769512 0.945652 0.776267 0.149438
H35   H     H_    0.866673 0.981693 0.842431 0.081328
H36   H     H_    0.626174 0.996623 0.823839 0.156028
Cl3   Cl    Cl    0.870147 0.925045 0.259917 -0.602249
Cl4   Cl    Cl    0.996792 0.321094 0.393537 -0.662405
O22   O     O_3   0.085860 0.325105 0.755430 -0.565928
C78   C     C_3   0.128136 0.379630 0.792554 -0.267817
H37   H     H_    0.255773 0.402224 0.780100 0.141226
H38   H     H_    0.151382 0.373380 0.833407 0.142450
H39   H     H_    0.002788 0.409364 0.794242 0.166797
Cl5   Cl    Cl    0.298715 0.751461 0.186628 -0.695344

loop_
_geom_bond_atom_site_label_1
_geom_bond_atom_site_label_2
_ccdc_geom_bond_type
C23   C28   A    
C60   C73   S    
C34   C35   A    
C57   C58   A    
C12   C13   A    
O13   C76   A    
C21   H9    S    
O19   V4    S    
C6    C7    A    
C1    O6    A    
C10   C75   S    
O18   C75   A    
O13   V3    S    
C32   C33   A    
C2    C69   S    
C65   C66   A    
C11   C12   A    
O17   V3    S    
C17   C18   A    
C18   H8    S    
C1    C53   S    
O5    C3    A    
C14   H5    S    
C52   Cl4   S    
C56   C57   A    
V2    O10   S    
C67   H30   S    
C46   C47   A    
O14   V3    S    
C68   H31   S    
C64   C65   A    
C63   C64   A    
C4    C19   S    
C33   C34   A    
O8    V2    S    
C11   C16   A    
C17   H7    S    
C41   C42   A    
C71   C72   A    
C59   C60   A    
C9    H3    S    
C36   O21   S    
C43   C44   A    
O1    V2    S    
C55   C56   A    
C17   C22   A    
O7    V1    S    
C54   H20   S    
C7    C16   S    
C39   C40   A    
C62   C63   A    
O9    C4    A    
O15   C75   A    
C21   C22   A    
C63   C72   S    
C30   Cl2   S    
C78   H39   S    
O18   V4    S    
C69   C70   A    
C5    H1    S    
C26   C29   A    
C33   C38   A    
O12   C73   A    
C27   C32   A    
C77   H36   S    
C47   C48   A    
C25   H11   S    
C30   C31   A    
C62   H28   S    
C49   C50   A    
C78   H38   S    
C56   H24   S    
O4    C2    A    
C53   C54   A    
C37   C38   A    
C50   C51   A    
C20   Cl1   S    
C40   C41   A    
C15   C16   A    
C42   C45   A    
O2    C1    A    
C48   C49   A    
C39   C44   A    
C73   O16   A    
C13   C14   A    
C39   H16   S    
C77   H35   S    
C35   H15   S    
O15   V3    S    
C26   C27   A    
O17   V4    S    
C37   C76   S    
C34   H14   S    
C29   C30   A    
C64   O22   S    
C58   H25   S    
O11   C74   A    
C58   C59   A    
C46   H19   S    
C45   H18   S    
O3    C4    A    
C20   C21   A    
C61   C62   A    
O6    V2    S    
C47   C52   A    
C8    C9    A    
C29   H12   S    
O14   C74   A    
O2    V1    S    
C19   C20   A    
C31   C32   A    
C70   H32   S    
C65   H29   S    
C51   H22   S    
C25   C26   A    
C27   C28   A    
C59   H26   S    
O1    C2    A    
C41   H17   S    
C67   C72   A    
C23   C24   A    
V3    O20   S    
C45   C46   A    
C49   C54   A    
O5    V1    S    
O8    C3    A    
C3    C24   S    
C28   C35   A    
C61   C66   A    
C77   H34   S    
C38   H13   S    
C61   H27   S    
C55   C60   A    
C78   H37   S    
C5    C10   A    
C15   H6    S    
O9    V2    S    
O19   C76   A    
O7    V2    S    
O4    V1    S    
C18   C19   A    
O3    V1    S    
V1    O10   S    
C57   C66   S    
C14   C15   A    
O16   V4    S    
C36   C37   A    
C23   H10   S    
C5    C6    A    
C67   C68   A    
V4    O20   S    
C9    C10   A    
C42   C43   A    
C68   C69   A    
O11   V4    S    
C31   C36   A    
C52   C53   A    
C24   C25   A    
C11   Cl5   S    
C7    C8    A    
C50   H21   S    
C6    Cl3   S    
C12   H4    S    
O21   C77   S    
C43   C48   A    
C71   H33   S    
C55   H23   S    
C8    H2    S    
C44   C51   A    
C13   C22   S    
O22   C78   S    
C70   C71   A    
C40   C74   S    
O12   V3    S    
