data_mof_unit_63949.cif
_audit_creation_date              2012-12-10T20:28:28-0500
_audit_creation_method            fapswitch 2.2
_symmetry_space_group_name_H-M    P1
_symmetry_Int_Tables_number       1
_space_group_crystal_system       triclinic
_cell_length_a                    26.15016
_cell_length_b                    36.270558
_cell_length_c                    22.398122
_cell_angle_alpha                 89.980018
_cell_angle_beta                  126.035592
_cell_angle_gamma                 89.935469
_cell_volume                      17179.1268351

loop_
_atom_site_label
_atom_site_type_symbol
_atom_type_description
_atom_site_fract_x
_atom_site_fract_y
_atom_site_fract_z
_atom_type_partial_charge
C1    C     C_R   0.140602 0.249841 0.000448 0.515383
C2    C     C_R   0.228175 0.835843 0.076609 -0.092986
C3    C     C_R   0.736301 0.783183 0.461358 -0.082106
C4    C     C_R   0.201750 0.723864 0.461156 -0.102196
C5    C     C_R   0.798247 0.276138 0.538844 -0.102215
C6    C     C_R   0.763701 0.716817 0.538642 -0.082063
C7    C     C_R   0.237171 0.283104 0.461378 -0.081951
C8    C     C_1   0.671717 0.250147 0.343423 0.000513
C9    C     C_1   0.328283 0.749852 0.656577 0.000529
C10   C     C_1   0.328094 0.250035 0.656567 -0.016119
C11   C     C_1   0.671898 0.749957 0.343433 -0.015939
C12   C     C_1   0.171716 0.750148 0.343423 0.000576
C13   C     C_R   0.232340 0.163333 0.077714 -0.097269
C14   C     C_1   0.828284 0.249852 0.656577 0.000563
C15   C     C_1   0.828103 0.750044 0.656567 -0.015911
C16   C     C_1   0.171904 0.249965 0.343433 -0.016107
C17   C     C_1   0.861477 0.249856 0.723045 0.061588
C18   C     C_1   0.138523 0.750144 0.276955 0.061597
C19   C     C_1   0.138731 0.249923 0.276971 0.065299
C20   C     C_1   0.861274 0.750083 0.723029 0.065233
C21   C     C_1   0.361476 0.749856 0.723045 0.061540
C22   C     C_1   0.638524 0.250144 0.276955 0.061524
C23   C     C_1   0.638726 0.749917 0.276971 0.065148
C24   C     C_R   0.767769 0.836650 0.922320 -0.097125
C25   C     C_1   0.361268 0.250077 0.723029 0.065209
C26   C     C_R   0.057470 0.980284 0.047220 0.039931
C27   C     C_R   0.942534 0.019716 0.952774 0.039926
C28   C     C_R   0.942294 0.980646 0.952647 0.039009
C29   C     C_R   0.057710 0.019354 0.047347 0.039009
C30   C     C_R   0.557479 0.480284 0.047142 0.039929
C31   C     C_R   0.442518 0.519717 0.952861 0.039933
C32   C     C_R   0.442277 0.480647 0.952733 0.039000
C33   C     C_R   0.557721 0.519353 0.047270 0.038997
C34   C     C_R   0.999569 0.961290 0.001038 -0.067890
C35   C     C_R   0.271826 0.664153 0.923406 -0.093046
C36   C     C_R   0.000435 0.038710 0.998957 -0.067892
C37   C     C_R   0.499567 0.461290 0.001043 -0.067914
C38   C     C_R   0.500431 0.538710 0.998960 -0.067913
C39   C     C_1   0.999520 0.921420 0.000346 -0.087134
C40   C     C_1   0.000483 0.078580 0.999651 -0.087124
C41   C     C_1   0.499517 0.421420 0.000349 -0.087152
C42   C     C_1   0.500481 0.578580 0.999652 -0.087162
C43   C     C_1   0.000297 0.111718 0.999929 0.003046
C44   C     C_1   0.999705 0.888282 0.000070 0.003025
C45   C     C_1   0.500296 0.611718 0.999929 0.002985
C46   C     C_R   0.728171 0.335846 0.076595 -0.093038
C47   C     C_1   0.499703 0.388282 0.000071 0.003003
C48   C     C_R   0.000061 0.151074 0.000063 0.511809
C49   C     C_R   0.999939 0.848926 0.999937 0.511808
C50   C     C_R   0.500061 0.651074 0.000063 0.511788
C51   C     C_R   0.499939 0.348926 0.999937 0.511788
C52   C     C_R   0.000003 0.348940 0.000001 0.511931
C53   C     C_R   0.999996 0.651060 0.999999 0.511928
C54   C     C_R   0.500003 0.848940 0.000001 0.512005
C55   C     C_R   0.499996 0.151060 0.999999 0.512008
C56   C     C_R   0.027052 0.519265 0.970846 -0.095743
C57   C     C_R   0.732196 0.663359 0.077681 -0.097138
C58   C     C_R   0.972948 0.480735 0.029154 -0.095738
C59   C     C_R   0.972946 0.519294 0.029154 -0.095892
C60   C     C_R   0.027054 0.480706 0.970846 -0.095899
C61   C     C_R   0.519280 0.019273 0.962258 -0.095899
C62   C     C_R   0.480720 0.980726 0.037742 -0.095905
C63   C     C_R   0.480717 0.019286 0.037742 -0.096147
C64   C     C_R   0.519283 0.980714 0.962258 -0.096141
C65   C     C_R   0.999998 0.538633 0.000000 0.035965
C66   C     C_R   0.000003 0.461367 1.000000 0.035964
C67   C     C_R   0.499997 0.038633 0.000000 0.035656
C68   C     C_R   0.267711 0.336657 0.922295 -0.097265
C69   C     C_R   0.500003 0.961367 0.000000 0.035657
C70   C     C_1   0.999996 0.578298 0.000001 -0.044045
C71   C     C_1   0.000004 0.421702 0.999999 -0.044046
C72   C     C_1   0.499996 0.078299 0.000001 -0.044185
C73   C     C_1   0.500004 0.921701 0.999999 -0.044183
C74   C     C_1   0.000004 0.388473 0.999999 0.016536
C75   C     C_1   0.999995 0.611527 0.000001 0.016537
C76   C     C_1   0.500005 0.888472 0.999999 0.016504
C77   C     C_1   0.499995 0.111527 0.000001 0.016502
C78   C     C_R   0.773583 0.139158 0.877646 -0.151873
C79   C     C_R   0.748999 0.199921 0.898994 0.002899
C80   C     C_R   0.226415 0.860843 0.122351 -0.151877
C81   C     C_R   0.232410 0.137700 0.123843 -0.155378
C82   C     C_R   0.767700 0.862273 0.876176 -0.155283
C83   C     C_R   0.273585 0.639150 0.877668 -0.151908
C84   C     C_R   0.726410 0.360848 0.122332 -0.151899
C85   C     C_R   0.732256 0.637744 0.123830 -0.155232
C86   C     C_R   0.267656 0.362281 0.876164 -0.155317
C87   C     C_2   0.116561 0.040584 0.100245 0.288202
C88   C     C_2   0.883444 0.959416 0.899747 0.288207
C89   C     C_2   0.882611 0.041364 0.907964 0.284942
C90   C     C_R   0.251001 0.800080 0.101005 0.002897
C91   C     C_2   0.117392 0.958636 0.092031 0.284938
C92   C     C_2   0.616593 0.540582 0.100092 0.288118
C93   C     C_2   0.383404 0.459418 0.899912 0.288114
C94   C     C_2   0.382590 0.541365 0.908141 0.284940
C95   C     C_2   0.617407 0.458635 0.091861 0.284944
C96   C     C_2   0.762060 0.121600 0.764262 0.263422
C97   C     C_2   0.237940 0.878402 0.235735 0.263422
C98   C     C_2   0.256073 0.117129 0.242282 0.271754
C99   C     C_2   0.743956 0.882842 0.757696 0.271669
C100  C     C_2   0.262062 0.621582 0.764289 0.263489
C101  C     C_R   0.251651 0.199601 0.101097 0.001200
C102  C     C_2   0.737933 0.378414 0.235712 0.263490
C103  C     C_2   0.756005 0.617188 0.242319 0.271730
C104  C     C_2   0.243987 0.382843 0.757717 0.271813
C105  C     C_2   0.696949 0.248154 0.800121 0.252653
C106  C     C_2   0.303053 0.751848 0.199879 0.252663
C107  C     C_2   0.287026 0.250253 0.193392 0.254442
C108  C     C_2   0.712747 0.749761 0.806524 0.254375
C109  C     C_2   0.196957 0.748144 0.800122 0.252702
C110  C     C_2   0.803049 0.251856 0.199880 0.252692
C111  C     C_2   0.787331 0.750243 0.193498 0.254378
C112  C     C_R   0.859399 0.750159 0.999553 0.515384
C113  C     C_R   0.748350 0.800397 0.898905 0.001211
C114  C     C_2   0.212878 0.249748 0.806574 0.254447
C115  C     C_2   0.705398 0.196109 0.703916 0.676986
C116  C     C_2   0.294604 0.803893 0.296084 0.676985
C117  C     C_2   0.294057 0.194862 0.295570 0.685364
C118  C     C_2   0.705673 0.805141 0.704316 0.685500
C119  C     C_2   0.205406 0.696091 0.703928 0.676984
C120  C     C_2   0.794596 0.303907 0.296074 0.676987
C121  C     C_2   0.794388 0.694875 0.295716 0.685535
C122  C     C_2   0.205873 0.305127 0.704393 0.685392
C123  C     C_R   0.249003 0.699916 0.899003 0.002920
C124  C     C_R   0.750997 0.300083 0.100997 0.002921
C125  C     C_R   0.751652 0.699608 0.101099 0.001238
C126  C     C_R   0.248349 0.300395 0.898900 0.001226
C127  C     C_R   0.725211 0.210658 0.826133 0.009712
C128  C     C_R   0.274789 0.789343 0.173866 0.009702
C129  C     C_R   0.270939 0.210727 0.172164 0.012396
C130  C     C_R   0.728948 0.789276 0.827793 0.012268
C131  C     C_R   0.225217 0.710649 0.826141 0.009719
C132  C     C_R   0.859479 0.249818 0.999690 0.507098
C133  C     C_R   0.774785 0.289351 0.173860 0.009725
C134  C     C_R   0.771089 0.710732 0.172224 0.012233
C135  C     C_R   0.229020 0.289268 0.827817 0.012355
C136  C     C_R   0.728108 0.185222 0.779618 0.105717
C137  C     C_R   0.271893 0.814780 0.220381 0.105708
C138  C     C_R   0.272366 0.184203 0.220174 0.097453
C139  C     C_R   0.727511 0.815792 0.779767 0.097450
C140  C     C_R   0.228114 0.685209 0.779632 0.105718
C141  C     C_R   0.771887 0.314790 0.220369 0.105726
C142  C     C_R   0.772518 0.684223 0.220254 0.097446
C143  C     C_R   0.140521 0.750182 0.000310 0.507105
C144  C     C_R   0.227606 0.315785 0.779806 0.097445
C145  C     C_R   0.753399 0.149307 0.806540 0.000298
C146  C     C_R   0.246601 0.850694 0.193458 0.000294
C147  C     C_R   0.253240 0.147285 0.195412 -0.007289
C148  C     C_R   0.746760 0.852695 0.804564 -0.007280
C149  C     C_R   0.253402 0.649294 0.806561 0.000316
C150  C     C_R   0.746595 0.350704 0.193440 0.000321
C151  C     C_R   0.753224 0.647325 0.195450 -0.007232
C152  C     C_R   0.246790 0.352696 0.804583 -0.007243
C153  C     C_R   0.198853 0.726736 0.953403 -0.144281
C154  C     C_R   0.640601 0.749841 0.000446 0.515408
C155  C     C_R   0.801147 0.273263 0.046597 -0.144285
C156  C     C_R   0.801082 0.726576 0.046230 -0.154938
C157  C     C_R   0.198916 0.273422 0.953765 -0.154909
C158  C     C_R   0.698853 0.226737 0.953401 -0.144241
C159  C     C_R   0.301147 0.773263 0.046598 -0.144237
C160  C     C_R   0.301086 0.226580 0.046239 -0.154848
C161  C     C_R   0.698915 0.773422 0.953764 -0.154881
C162  C     C_R   0.196976 0.750617 0.001135 0.009857
C163  C     C_R   0.803024 0.249383 0.998864 0.009855
C164  C     C_R   0.802854 0.750532 0.998507 0.016491
C165  C     C_R   0.359399 0.250159 0.999553 0.515410
C166  C     C_R   0.197148 0.249470 0.001496 0.016465
C167  C     C_R   0.696975 0.250617 0.001134 0.009860
C168  C     C_R   0.303025 0.749383 0.998866 0.009862
C169  C     C_R   0.302854 0.250532 0.998508 0.016487
C170  C     C_R   0.697144 0.749467 0.001488 0.016506
C171  C     C_R   0.248985 0.774182 0.048435 -0.046802
C172  C     C_R   0.751015 0.225818 0.951565 -0.046803
C173  C     C_R   0.750838 0.774225 0.951455 -0.046748
C174  C     C_R   0.249167 0.225779 0.048555 -0.046748
C175  C     C_R   0.748984 0.274183 0.048432 -0.046822
C176  C     C_R   0.359479 0.749818 0.999690 0.507131
C177  C     C_R   0.251016 0.725816 0.951568 -0.046820
C178  C     C_R   0.250835 0.274223 0.951449 -0.046761
C179  C     C_R   0.749160 0.725774 0.048540 -0.046763
C180  C     C_R   0.759645 0.276231 0.461673 -0.073234
C181  C     C_R   0.240352 0.723771 0.538327 -0.073221
C182  C     C_R   0.275656 0.283118 0.538543 -0.095168
C183  C     C_R   0.725203 0.716799 0.461477 -0.095349
C184  C     C_R   0.259648 0.776230 0.461673 -0.073249
C185  C     C_R   0.740356 0.223768 0.538327 -0.073262
C186  C     C_R   0.774799 0.783202 0.538523 -0.095375
C187  C     C_R   0.640521 0.250182 0.000310 0.507124
C188  C     C_R   0.224340 0.216883 0.461457 -0.095198
C189  C     C_R   0.711352 0.250089 0.422732 0.040757
C190  C     C_R   0.288648 0.749910 0.577268 0.040758
C191  C     C_R   0.288531 0.250014 0.577263 0.032431
C192  C     C_R   0.711460 0.749981 0.422737 0.032646
C193  C     C_R   0.211352 0.750090 0.422732 0.040759
C194  C     C_R   0.788649 0.249910 0.577268 0.040757
C195  C     C_R   0.788542 0.750019 0.577262 0.032653
C196  C     C_R   0.211465 0.249987 0.422737 0.032432
C197  C     C_R   0.099092 0.249970 0.197944 0.529226
C198  C     C_R   0.771824 0.164158 0.923389 -0.092985
C199  C     C_R   0.900909 0.750032 0.802056 0.529118
C200  C     C_R   0.900992 0.249953 0.802079 0.518775
C201  C     C_R   0.099008 0.750047 0.197921 0.518778
C202  C     C_R   0.599091 0.749969 0.197944 0.529064
C203  C     C_R   0.400908 0.250030 0.802056 0.529163
C204  C     C_R   0.400992 0.749953 0.802079 0.518764
C205  C     C_R   0.599008 0.250047 0.197921 0.518759
C206  C     C_R   0.701754 0.223862 0.461156 -0.102263
C207  C     C_R   0.298250 0.776136 0.538844 -0.102244
C208  C     C_R   0.262825 0.216896 0.538622 -0.081994
H1    H     H_    0.048099 0.465998 0.948167 0.124986
H2    H     H_    0.207231 0.888114 0.101059 0.135851
H3    H     H_    0.217475 0.109760 0.103959 0.110674
H4    H     H_    0.782723 0.890201 0.896087 0.110607
H5    H     H_    0.292766 0.611878 0.898965 0.135804
H6    H     H_    0.707226 0.388120 0.101034 0.135802
H7    H     H_    0.717201 0.609820 0.103916 0.110537
H8    H     H_    0.282632 0.390216 0.896058 0.110588
H9    H     H_    0.789371 0.155772 0.978831 0.130524
H10   H     H_    0.210627 0.844228 0.021166 0.130528
H11   H     H_    0.216743 0.154898 0.023000 0.127957
H12   H     H_    0.951901 0.534002 0.051833 0.124997
H13   H     H_    0.783452 0.845079 0.977069 0.127934
H14   H     H_    0.289371 0.655770 0.978849 0.130414
H15   H     H_    0.710624 0.344228 0.021150 0.130409
H16   H     H_    0.716488 0.654929 0.022925 0.127786
H17   H     H_    0.283339 0.345091 0.977021 0.127804
H18   H     H_    0.159383 0.708590 0.916886 0.157973
H19   H     H_    0.840617 0.291409 0.083115 0.157979
H20   H     H_    0.840560 0.708310 0.082540 0.153113
H21   H     H_    0.159438 0.291688 0.917456 0.153112
H22   H     H_    0.659382 0.208592 0.916883 0.157976
H23   H     H_    0.951905 0.466048 0.051832 0.125645
H24   H     H_    0.340618 0.791409 0.083116 0.157970
H25   H     H_    0.340564 0.208314 0.082548 0.153111
H26   H     H_    0.659439 0.791689 0.917456 0.153110
H27   H     H_    0.835480 0.296467 0.568498 0.129268
H28   H     H_    0.164515 0.703535 0.431502 0.129287
H29   H     H_    0.227463 0.308845 0.431899 0.134447
H30   H     H_    0.774091 0.691015 0.568135 0.134342
H31   H     H_    0.335485 0.796465 0.568498 0.129184
H32   H     H_    0.664521 0.203532 0.431502 0.129165
H33   H     H_    0.725911 0.808985 0.431864 0.134249
H34   H     H_    0.048095 0.533951 0.948168 0.125635
H35   H     H_    0.272533 0.191156 0.568101 0.134355
H36   H     H_    0.767389 0.296640 0.432433 0.159067
H37   H     H_    0.232605 0.703363 0.567567 0.159070
H38   H     H_    0.295296 0.308872 0.567972 0.140032
H39   H     H_    0.706236 0.690980 0.432065 0.140264
H40   H     H_    0.267394 0.796637 0.432433 0.159052
H41   H     H_    0.732612 0.203359 0.567567 0.159047
H42   H     H_    0.793767 0.809020 0.567935 0.140226
H43   H     H_    0.204699 0.191129 0.432028 0.139990
H44   H     H_    0.124578 0.066952 0.084158 0.083222
H45   H     H_    0.534282 0.966012 0.932899 0.125490
H46   H     H_    0.875428 0.933047 0.915832 0.083186
H47   H     H_    0.881703 0.067664 0.884246 0.097468
H48   H     H_    0.118300 0.932336 0.115748 0.097473
H49   H     H_    0.624568 0.566954 0.083974 0.083154
H50   H     H_    0.375427 0.433047 0.916032 0.083178
H51   H     H_    0.381641 0.567665 0.884397 0.097425
H52   H     H_    0.618356 0.432335 0.115606 0.097412
H53   H     H_    0.768207 0.092748 0.780049 0.134753
H54   H     H_    0.231793 0.907254 0.219948 0.134752
H55   H     H_    0.229725 0.091939 0.216510 0.146067
H56   H     H_    0.465718 0.033988 0.067101 0.125479
H57   H     H_    0.770349 0.908019 0.783473 0.146053
H58   H     H_    0.268207 0.592731 0.780081 0.134690
H59   H     H_    0.731782 0.407266 0.219916 0.134686
H60   H     H_    0.729544 0.592031 0.216538 0.146108
H61   H     H_    0.270399 0.408013 0.783497 0.146124
H62   H     H_    0.712260 0.270494 0.839367 0.108944
H63   H     H_    0.287740 0.729506 0.160635 0.108948
H64   H     H_    0.304826 0.266963 0.169139 0.109413
H65   H     H_    0.694985 0.733067 0.830838 0.109461
H66   H     H_    0.212270 0.770487 0.839363 0.108998
H67   H     H_    0.465723 0.966034 0.067101 0.126183
H68   H     H_    0.787738 0.229513 0.160639 0.108994
H69   H     H_    0.805080 0.766927 0.169157 0.109526
H70   H     H_    0.195084 0.233049 0.830848 0.109482
H71   H     H_    0.646686 0.185604 0.594752 0.343720
H72   H     H_    0.353317 0.814400 0.405247 0.343737
H73   H     H_    0.274584 0.197661 0.370135 0.343563
H74   H     H_    0.724994 0.802252 0.629632 0.343395
H75   H     H_    0.146695 0.685581 0.594766 0.343772
H76   H     H_    0.853307 0.314417 0.405235 0.343757
H77   H     H_    0.775091 0.697792 0.370420 0.343431
H78   H     H_    0.534277 0.033966 0.932899 0.126194
H79   H     H_    0.225304 0.302301 0.629794 0.343606
H80   H     H_    0.792767 0.111886 0.898938 0.135852
O1    O     O_3   0.000000 0.249990 0.000000 -0.449276
O2    O     O_R   0.405540 0.228660 0.042720 -0.546786
O3    O     O_R   0.405540 0.771340 0.042720 -0.544359
O4    O     O_R   0.594460 0.228660 0.957280 -0.544362
O5    O     O_R   0.111850 0.228640 0.162930 -0.509130
O6    O     O_R   0.888150 0.771360 0.837070 -0.509234
O7    O     O_R   0.888150 0.228640 0.837070 -0.517451
O8    O     O_R   0.111850 0.771360 0.162930 -0.517454
O9    O     O_R   0.611850 0.728640 0.162930 -0.509259
O10   O     O_R   0.388150 0.271360 0.837070 -0.509163
O11   O     O_R   0.388150 0.728640 0.837070 -0.517425
O12   O     O_3   0.000000 0.750010 0.000000 -0.449261
O13   O     O_R   0.611850 0.271360 0.162930 -0.517425
O14   O     O_R   0.051760 0.168530 0.042720 -0.538255
O15   O     O_R   0.948240 0.831470 0.957280 -0.538276
O16   O     O_R   0.948240 0.168530 0.957280 -0.536493
O17   O     O_R   0.051760 0.831470 0.042720 -0.536480
O18   O     O_R   0.551760 0.668530 0.042720 -0.538303
O19   O     O_R   0.448240 0.331470 0.957280 -0.538282
O20   O     O_R   0.448240 0.668530 0.957280 -0.536475
O21   O     O_R   0.551760 0.331470 0.042720 -0.536490
O22   O     O_R   0.009000 0.331450 0.957280 -0.533028
O23   O     O_3   0.500000 0.749990 0.000000 -0.449221
O24   O     O_R   0.991000 0.668550 0.042720 -0.533020
O25   O     O_R   0.991000 0.331450 0.042720 -0.532468
O26   O     O_R   0.009000 0.668550 0.957280 -0.532481
O27   O     O_R   0.509000 0.831450 0.957280 -0.533085
O28   O     O_R   0.491000 0.168550 0.042720 -0.533094
O29   O     O_R   0.491000 0.831450 0.042720 -0.532549
O30   O     O_R   0.509000 0.168550 0.957280 -0.532535
O31   O     O_R   0.051110 0.271360 0.162930 -0.538269
O32   O     O_R   0.948890 0.728640 0.837070 -0.538267
O33   O     O_R   0.948890 0.271360 0.837070 -0.542212
O34   O     O_3   0.500000 0.250010 0.000000 -0.449234
O35   O     O_R   0.051110 0.728640 0.162930 -0.542201
O36   O     O_R   0.551110 0.771360 0.162930 -0.538346
O37   O     O_R   0.448890 0.228640 0.837070 -0.538346
O38   O     O_R   0.448890 0.771360 0.837070 -0.542291
O39   O     O_R   0.551110 0.228640 0.162930 -0.542300
O40   O     O_R   0.137190 0.228630 0.042710 -0.532082
O41   O     O_R   0.862810 0.771370 0.957290 -0.532086
O42   O     O_R   0.862810 0.228630 0.957290 -0.539752
O43   O     O_R   0.137190 0.771370 0.042710 -0.539749
O44   O     O_R   0.637190 0.728630 0.042710 -0.532093
O45   O     O_R   0.094460 0.271340 0.957280 -0.546805
O46   O     O_R   0.362810 0.271370 0.957290 -0.532089
O47   O     O_R   0.362810 0.728630 0.957290 -0.539750
O48   O     O_R   0.637190 0.271370 0.042710 -0.539752
O49   O     O_2   0.155091 0.029714 0.163328 -0.458352
O50   O     O_2   0.844912 0.970288 0.836666 -0.458348
O51   O     O_2   0.834626 0.030951 0.900162 -0.476834
O52   O     O_2   0.165379 0.969049 0.099835 -0.476854
O53   O     O_2   0.655196 0.529706 0.163153 -0.458405
O54   O     O_2   0.344803 0.470293 0.836850 -0.458408
O55   O     O_2   0.334650 0.530953 0.900447 -0.476931
O56   O     O_R   0.905540 0.728660 0.042720 -0.546801
O57   O     O_2   0.665346 0.469047 0.099553 -0.476907
O58   O     O_2   0.765141 0.130444 0.713882 -0.462117
O59   O     O_2   0.234858 0.869558 0.286116 -0.462107
O60   O     O_2   0.289364 0.119075 0.309533 -0.436358
O61   O     O_2   0.710649 0.880905 0.690444 -0.436467
O62   O     O_2   0.265147 0.630422 0.713909 -0.462042
O63   O     O_2   0.734855 0.369575 0.286097 -0.462052
O64   O     O_2   0.789364 0.619112 0.309574 -0.436373
O65   O     O_2   0.210652 0.380912 0.690464 -0.436259
O66   O     O_2   0.654591 0.254277 0.735335 -0.450958
O67   O     O_R   0.905540 0.271340 0.042720 -0.544385
O68   O     O_2   0.345414 0.745726 0.264665 -0.450926
O69   O     O_2   0.278153 0.265054 0.235524 -0.468617
O70   O     O_2   0.721481 0.734949 0.764283 -0.468450
O71   O     O_2   0.154598 0.754264 0.735335 -0.450879
O72   O     O_2   0.845408 0.245736 0.264667 -0.450911
O73   O     O_2   0.778649 0.765062 0.235777 -0.468397
O74   O     O_2   0.221698 0.234937 0.764405 -0.468558
O75   O     O_2   0.727851 0.223120 0.694542 -0.495279
O76   O     O_R   0.658188 0.175479 0.643436 -0.633303
O77   O     O_2   0.272154 0.776881 0.305460 -0.495273
O78   O     O_R   0.094460 0.728660 0.957280 -0.544381
O79   O     O_R   0.341813 0.824524 0.356563 -0.633301
O80   O     O_2   0.346754 0.208041 0.338612 -0.457519
O81   O     O_R   0.254181 0.189750 0.317242 -0.653322
O82   O     O_2   0.652901 0.792046 0.661317 -0.457491
O83   O     O_R   0.745498 0.810158 0.682548 -0.653446
O84   O     O_2   0.227860 0.723101 0.694550 -0.495282
O85   O     O_R   0.158196 0.675459 0.643451 -0.633193
O86   O     O_2   0.772143 0.276897 0.305451 -0.495290
O87   O     O_R   0.841806 0.324539 0.356550 -0.633191
O88   O     O_2   0.847178 0.707949 0.338708 -0.457370
O89   O     O_R   0.594460 0.771340 0.957280 -0.546781
O90   O     O_R   0.754570 0.689884 0.317501 -0.653509
O91   O     O_2   0.153153 0.291974 0.661362 -0.457410
O92   O     O_R   0.245734 0.310210 0.682694 -0.653368
Zn1   Zn    Zn3+2 0.987140 0.280510 0.061030 0.960693
Zn2   Zn    Zn3+2 0.926080 0.780520 0.938970 0.973215
Zn3   Zn    Zn3+2 0.926080 0.219480 0.938970 0.960435
Zn4   Zn    Zn3+2 0.073920 0.780520 0.061030 0.960448
Zn5   Zn    Zn3+2 0.573920 0.719480 0.061030 0.973162
Zn6   Zn    Zn3+2 0.426080 0.280520 0.938970 0.973244
Zn7   Zn    Zn3+2 0.426080 0.719480 0.938970 0.960460
Zn8   Zn    Zn3+2 0.573920 0.280520 0.061030 0.960445
Zn9   Zn    Zn3+2 0.012860 0.719490 0.938970 0.960665
Zn10  Zn    Zn3+2 0.012860 0.280510 0.938970 0.955405
Zn11  Zn    Zn3+2 0.987140 0.719490 0.061030 0.955410
Zn12  Zn    Zn3+2 0.487140 0.780510 0.061030 0.960587
Zn13  Zn    Zn3+2 0.512860 0.219490 0.938970 0.960615
Zn14  Zn    Zn3+2 0.512860 0.780510 0.938970 0.955333
Zn15  Zn    Zn3+2 0.487140 0.219490 0.061030 0.955326
Zn16  Zn    Zn3+2 0.073920 0.219480 0.061030 0.973302

loop_
_geom_bond_atom_site_label_1
_geom_bond_atom_site_label_2
_ccdc_geom_bond_type
C165  O46   A    
C107  C129  S    
O67   Zn1   S    
C124  C175  S    
C96   C145  S    
C6    H30   S    
O23   Zn14  S    
C124  C133  A    
C85   H7    S    
C181  H37   S    
C115  C136  S    
C203  O37   A    
C122  O92   S    
C184  C193  A    
C154  C170  S    
C11   C192  S    
C3    H33   S    
C2    C90   A    
H74   O83   S    
C79   C127  A    
C131  C140  A    
O1    Zn10  S    
C40   C43   T    
C162  C171  A    
C7    H29   S    
C84   H6    S    
O23   Zn5   S    
C199  O6    A    
C125  C179  S    
C143  O43   A    
C199  O32   A    
C156  H20   S    
C80   C146  A    
C14   C194  S    
C184  H40   S    
C46   C124  A    
C53   C75   S    
C158  C167  A    
O34   Zn8   S    
O26   Zn9   S    
C165  C169  S    
C15   C20   T    
C112  C164  S    
C197  O5    A    
C166  C174  A    
O7    Zn3   S    
C52   O25   A    
C137  C146  A    
C127  C136  A    
C108  H65   S    
C33   C92   S    
O39   Zn15  S    
C121  O88   D    
C42   C45   T    
O89   Zn14  S    
C204  O11   A    
O35   Zn11  S    
C85   C151  A    
C86   C152  A    
C181  C190  A    
C189  C206  A    
C164  C173  A    
C163  C172  A    
C159  C171  A    
C46   C84   A    
C81   H3    S    
C27   C36   A    
O24   Zn11  S    
C80   H2    S    
C105  H62   S    
C56   H34   S    
C107  H64   S    
C54   C76   S    
O20   Zn7   S    
C121  C142  S    
C10   C191  S    
C64   C69   A    
C153  C162  A    
C33   C38   A    
C100  O62   D    
C104  C152  S    
C182  H38   S    
C132  C163  S    
C55   O28   A    
O9    Zn5   S    
C158  C172  A    
O34   Zn13  S    
C100  H58   S    
C45   C50   S    
C11   C23   T    
C52   O22   A    
C126  C178  S    
C18   C201  S    
C86   H8    S    
C185  H41   S    
C2    H10   S    
C78   C198  A    
C7    C196  A    
O29   Zn12  S    
C165  O2    A    
O34   Zn6   S    
C187  O48   A    
O48   Zn8   S    
C120  O87   S    
C106  C128  S    
C79   C172  S    
C208  H35   S    
C9    C21   T    
C63   H56   S    
C92   H49   S    
C157  H21   S    
C24   H13   S    
C109  O71   D    
O12   Zn2   S    
C121  O90   S    
C184  C207  A    
C119  C140  S    
C111  H69   S    
C52   C74   S    
C180  C189  A    
C112  O56   A    
C57   C125  A    
C98   C147  S    
O1    Zn16  S    
O41   Zn2   S    
O22   Zn10  S    
O2    Zn15  S    
C67   C72   S    
C132  O67   A    
C205  O13   A    
C187  O4    A    
C104  H61   S    
C57   C85   A    
C90   C171  S    
C8    C22   T    
C4    C181  A    
C108  C130  S    
C109  H66   S    
C32   C93   S    
C104  O65   D    
C89   O51   D    
C79   C198  A    
C4    H28   S    
C14   C17   T    
H72   O79   S    
C78   H80   S    
O19   Zn6   S    
C141  C150  A    
C82   H4    S    
O37   Zn13  S    
C95   H52   S    
C153  C177  A    
C139  C148  A    
C113  C130  A    
C105  C127  S    
C34   C39   S    
C118  O82   D    
O36   Zn12  S    
C155  C163  A    
C32   C37   A    
C117  O80   D    
C91   O52   D    
C154  O89   A    
C1    O45   A    
O44   Zn5   S    
C61   C67   A    
C31   C32   A    
C160  C169  A    
H77   O90   S    
C41   C47   T    
O10   Zn6   S    
C61   H78   S    
C87   O49   D    
O31   Zn1   S    
C112  O41   A    
C10   C25   T    
C95   O57   D    
C102  H59   S    
C110  H68   S    
O15   Zn2   S    
C167  C175  A    
C116  C137  S    
O12   Zn9   S    
C168  C176  S    
O12   Zn4   S    
C202  O9    A    
C185  C206  A    
C120  C141  S    
O56   Zn11  S    
C25   C203  S    
H76   O87   S    
O3    Zn12  S    
C50   O20   A    
C111  C134  S    
C39   C44   T    
C103  C151  S    
C31   C94   S    
C48   O14   A    
C170  C179  A    
O34   Zn15  S    
C35   C123  A    
C144  C152  A    
C3    C192  A    
C59   C65   A    
O16   Zn3   S    
C81   C147  A    
C110  O72   D    
C1    C166  S    
C27   C89   S    
C157  C178  A    
O30   Zn13  S    
C37   C41   S    
C106  O68   D    
C29   C87   S    
O28   Zn15  S    
C28   C34   A    
C190  C207  A    
C118  O83   S    
C70   C75   T    
C5    C194  A    
O78   Zn9   S    
C51   O21   A    
C140  C149  A    
C84   C150  A    
C101  C129  A    
C125  C134  A    
C12   C193  S    
C117  C138  S    
C185  C194  A    
C123  C177  S    
C183  C192  A    
C205  O39   A    
C120  O86   D    
C113  C173  S    
C115  O76   S    
C64   H45   S    
C49   O17   A    
C59   H12   S    
C201  O35   A    
O25   Zn1   S    
C168  C177  A    
C13   C81   A    
O43   Zn4   S    
C97   C146  S    
C50   O18   A    
C117  O81   S    
C109  C131  S    
C53   O26   A    
C69   C73   S    
C60   H1    S    
C7    C182  A    
C207  H31   S    
C15   C195  S    
O12   Zn11  S    
C107  O69   D    
C60   C66   A    
C130  C139  A    
C176  O47   A    
C6    C195  A    
O6    Zn2   S    
H75   O85   S    
C4    C193  A    
C19   C197  S    
C23   C202  S    
C153  H18   S    
C49   O15   A    
C35   H14   S    
C200  O33   A    
C35   C83   A    
C68   H17   S    
C47   C51   S    
C122  O91   D    
C46   H15   S    
C56   C60   A    
C30   C37   A    
C61   C64   A    
C97   O59   D    
C5    C180  A    
C62   C63   A    
C16   C196  S    
C134  C142  A    
C161  C173  A    
C56   C65   A    
C132  O42   A    
C66   C71   S    
C8    C189  S    
C155  H19   S    
C197  O31   A    
O1    Zn1   S    
C119  O85   S    
C176  O3    A    
C183  H39   S    
C103  H60   S    
C143  O78   A    
C97   H54   S    
C102  C150  S    
C126  C135  A    
O38   Zn14  S    
C98   O60   D    
C160  H25   S    
C73   C76   T    
C58   C59   A    
C198  H9    S    
C182  C191  A    
C118  C139  S    
C55   O30   A    
C155  C175  A    
O17   Zn4   S    
C188  C208  A    
C123  C131  A    
C160  C174  A    
H79   O92   S    
C71   C74   T    
C88   H46   S    
C100  C149  S    
C133  C141  A    
C31   C38   A    
C6    C183  A    
C159  H24   S    
O11   Zn7   S    
C26   C91   S    
C92   O53   D    
C108  O70   D    
C105  O66   D    
C94   O55   D    
C16   C19   T    
C62   H67   S    
C202  O36   A    
C186  H42   S    
C1    O40   A    
C93   H50   S    
O40   Zn16  S    
C62   C69   A    
O13   Zn8   S    
C93   O54   D    
C65   C70   S    
C83   C149  A    
C57   H16   S    
O8    Zn4   S    
C44   C49   S    
C142  C151  A    
C99   C148  S    
C96   H53   S    
C188  H43   S    
C68   C86   A    
C119  O84   D    
C122  C144  S    
C158  H22   S    
C29   C36   A    
C30   C95   S    
C96   O58   D    
C82   C148  A    
C102  O63   D    
C38   C42   S    
H73   O81   S    
C55   C77   S    
C156  C179  A    
C91   H48   S    
O23   Zn12  S    
O1    Zn3   S    
C159  C168  A    
C17   C200  S    
C53   O24   A    
C24   C82   A    
C58   H23   S    
C78   C145  A    
C116  O77   D    
C58   C66   A    
C161  H26   S    
O42   Zn3   S    
O5    Zn16  S    
C28   C88   S    
C114  C135  S    
C54   O29   A    
C103  O64   D    
O4    Zn13  S    
C143  C162  S    
C136  C145  A    
C54   O27   A    
O47   Zn7   S    
C24   C113  A    
C114  O74   D    
C21   C204  S    
C101  C174  S    
C98   H55   S    
C83   H5    S    
C26   C34   A    
C180  H36   S    
C87   H44   S    
C63   C67   A    
C129  C138  A    
C186  C195  A    
C36   C40   S    
O21   Zn8   S    
O27   Zn14  S    
C22   C205  S    
C154  O44   A    
C128  C137  A    
C20   C199  S    
C72   C77   T    
O18   Zn5   S    
C94   H51   S    
C138  C147  A    
C167  C187  S    
C203  O10   A    
C88   O50   D    
C13   H11   S    
C156  C164  A    
C51   O19   A    
C161  C170  A    
C135  C144  A    
C111  O73   D    
O23   Zn7   S    
C89   H47   S    
C200  O7    A    
O45   Zn10  S    
C13   C101  A    
C3    C186  A    
C68   C126  A    
C169  C178  A    
O14   Zn16  S    
C43   C48   S    
O32   Zn9   S    
C99   H57   S    
C30   C33   A    
O33   Zn10  S    
C48   O16   A    
C157  C166  A    
C99   O61   D    
C115  O75   D    
O46   Zn6   S    
C204  O38   A    
C116  O79   S    
C201  O8    A    
H71   O76   S    
C191  C208  A    
C2    C80   A    
C114  H70   S    
C106  H63   S    
C188  C196  A    
C26   C29   A    
C5    H27   S    
C12   C18   T    
C27   C28   A    
C90   C128  A    
C110  C133  S    
C206  H32   S    
C9    C190  S    
