data_mof_unit_31261.cif
_audit_creation_date              2012-12-11T16:07:16-0500
_audit_creation_method            fapswitch 2.2
_symmetry_space_group_name_H-M    P1
_symmetry_Int_Tables_number       1
_space_group_crystal_system       triclinic
_cell_length_a                    17.10902
_cell_length_b                    17.108794
_cell_length_c                    17.240598
_cell_angle_alpha                 90.0553
_cell_angle_beta                  89.945256
_cell_angle_gamma                 90.017462
_cell_volume                      5046.5715623

loop_
_atom_site_label
_atom_site_type_symbol
_atom_type_description
_atom_site_fract_x
_atom_site_fract_y
_atom_site_fract_z
_atom_type_partial_charge
C1    C     C_R   0.394650 0.698101 0.607476 -0.139870
C2    C     C_R   0.577703 0.670832 0.645544 -0.130000
C3    C     C_3   0.775540 0.192185 0.635742 -0.146490
C4    C     C_3   0.721242 0.750236 0.279532 -0.137118
C5    C     C_3   0.278715 0.250123 0.720203 -0.137104
C6    C     C_3   0.776886 0.192723 0.365075 -0.146252
C7    C     C_3   0.192419 0.776509 0.635009 -0.146409
C8    C     C_3   0.693397 0.722109 0.865359 -0.150295
C9    C     C_3   0.307034 0.277132 0.134847 -0.150309
C10   C     C_3   0.780220 0.251906 0.779436 -0.138101
C11   C     C_3   0.251806 0.780105 0.220498 -0.138019
C12   C     C_3   0.277689 0.306564 0.865266 -0.150065
C13   C     C_R   0.698086 0.394657 0.392479 -0.139960
C14   C     C_3   0.722423 0.693139 0.134711 -0.150425
C15   C     C_3   0.251007 0.779929 0.779089 -0.137554
C16   C     C_3   0.779564 0.250705 0.220741 -0.137343
C17   C     C_R   0.301906 0.606421 0.606850 -0.152816
C18   C     C_R   0.577857 0.669920 0.353861 -0.142403
C19   C     C_R   0.422373 0.330284 0.646253 -0.142164
C20   C     C_R   0.302032 0.606275 0.392869 -0.152737
C21   C     C_R   0.697984 0.394797 0.607716 -0.139764
C22   C     C_R   0.922237 0.169929 0.146203 -0.143085
C23   C     C_R   0.077714 0.829184 0.854476 -0.128715
C24   C     C_R   0.198003 0.106317 0.107081 -0.151444
C25   C     C_R   0.606404 0.301913 0.393112 -0.152710
C26   C     C_R   0.801950 0.893627 0.893084 -0.151574
C27   C     C_R   0.077791 0.829049 0.145361 -0.128967
C28   C     C_R   0.922090 0.170119 0.853986 -0.143541
C29   C     C_R   0.801921 0.894629 0.107546 -0.140984
C30   C     C_R   0.198002 0.105277 0.892190 -0.140963
C31   C     C_R   0.894635 0.801931 0.892418 -0.141065
C32   C     C_R   0.105291 0.198027 0.107737 -0.140803
C33   C     C_R   0.169949 0.922210 0.853810 -0.143176
C34   C     C_R   0.829216 0.077697 0.145545 -0.128821
C35   C     C_R   0.106286 0.197987 0.892855 -0.151302
C36   C     C_R   0.669902 0.577835 0.646149 -0.142285
C37   C     C_R   0.893613 0.801942 0.106885 -0.151664
C38   C     C_R   0.829035 0.077800 0.854648 -0.128940
C39   C     C_R   0.170107 0.922105 0.146020 -0.143527
C40   C     C_3   0.323182 0.321692 0.250781 0.189530
C41   C     C_3   0.676934 0.678382 0.749163 0.189235
C42   C     C_3   0.266398 0.735100 0.334898 0.188769
C43   C     C_3   0.735111 0.266387 0.665062 0.188776
C44   C     C_3   0.678415 0.676944 0.250840 0.189260
C45   C     C_3   0.321741 0.323188 0.749211 0.189504
C46   C     C_3   0.735367 0.266095 0.335427 0.188830
C47   C     C_R   0.330258 0.422340 0.353762 -0.142372
C48   C     C_3   0.266086 0.735397 0.664490 0.188829
C49   C     C_3   0.766081 0.764694 0.835304 0.189120
C50   C     C_3   0.233880 0.235300 0.164837 0.189163
C51   C     C_3   0.821223 0.177352 0.751305 0.188520
C52   C     C_3   0.177349 0.821240 0.248695 0.188511
C53   C     C_3   0.235248 0.233863 0.835030 0.189174
C54   C     C_3   0.764671 0.766075 0.164632 0.189115
C55   C     C_3   0.176982 0.821627 0.750817 0.188390
C56   C     C_3   0.821667 0.176976 0.249183 0.188371
C57   C     C_R   0.318510 0.682430 0.625668 0.038336
C58   C     C_R   0.606284 0.302025 0.607108 -0.152792
C59   C     C_R   0.682400 0.318524 0.374253 0.038365
C60   C     C_R   0.635610 0.636590 0.689253 0.028924
C61   C     C_R   0.364555 0.363551 0.310653 0.027863
C62   C     C_R   0.682220 0.318730 0.626135 0.037560
C63   C     C_R   0.318743 0.682206 0.373822 0.037567
C64   C     C_R   0.363631 0.364611 0.689397 0.027763
C65   C     C_R   0.636639 0.635647 0.310779 0.028970
C66   C     C_R   0.863465 0.135662 0.189261 0.029248
C67   C     C_R   0.135702 0.863405 0.810776 0.029302
C68   C     C_R   0.181379 0.182294 0.126093 0.037239
C69   C     C_R   0.394805 0.697977 0.392258 -0.139776
C70   C     C_R   0.818536 0.817642 0.874151 0.038043
C71   C     C_R   0.136010 0.863095 0.188916 0.028715
C72   C     C_R   0.863069 0.136027 0.811100 0.028754
C73   C     C_R   0.817620 0.818524 0.125786 0.038014
C74   C     C_R   0.182244 0.181353 0.873778 0.037290
C75   C     C_3   0.720585 0.647989 0.820409 -0.160528
C76   C     C_3   0.280137 0.351812 0.179057 -0.160736
C77   C     C_3   0.705926 0.224642 0.737911 -0.153599
C78   C     C_3   0.293936 0.809317 0.293540 -0.168657
C79   C     C_3   0.248836 0.351391 0.792613 -0.165334
C80   C     C_R   0.329349 0.422502 0.645647 -0.129950
C81   C     C_3   0.751383 0.648718 0.207563 -0.165946
C82   C     C_3   0.293778 0.809253 0.706454 -0.168699
C83   C     C_3   0.705979 0.223115 0.263340 -0.154190
C84   C     C_3   0.808961 0.293908 0.293093 -0.168626
C85   C     C_3   0.223537 0.706086 0.736856 -0.153953
C86   C     C_3   0.648079 0.720232 0.179352 -0.160374
C87   C     C_3   0.351963 0.279487 0.820501 -0.160988
C88   C     C_3   0.224505 0.705891 0.262141 -0.153686
C89   C     C_3   0.809409 0.293889 0.706301 -0.168679
C90   C     C_3   0.351204 0.248385 0.207929 -0.165322
C91   C     C_R   0.670859 0.577721 0.354475 -0.129891
C92   C     C_3   0.648612 0.751128 0.792744 -0.165958
C93   C     C_3   0.277251 0.205876 0.236593 -0.154440
C94   C     C_3   0.722103 0.794396 0.764017 -0.154560
C95   C     C_3   0.149619 0.747117 0.290228 -0.167430
C96   C     C_3   0.851113 0.218761 0.678494 -0.158016
C97   C     C_3   0.691597 0.794070 0.207749 -0.168008
C98   C     C_3   0.308253 0.205887 0.791788 -0.167963
C99   C     C_3   0.851757 0.219621 0.321224 -0.157951
C100  C     C_3   0.149082 0.747870 0.708684 -0.168104
C101  C     C_3   0.219191 0.851646 0.678495 -0.157785
C102  C     C_R   0.422476 0.329306 0.354382 -0.129776
C103  C     C_3   0.748174 0.148949 0.291677 -0.168157
C104  C     C_3   0.205711 0.277881 0.763705 -0.154813
C105  C     C_3   0.794311 0.722456 0.236158 -0.154363
C106  C     C_3   0.747019 0.149660 0.709888 -0.167386
C107  C     C_3   0.218907 0.851152 0.321414 -0.158049
C108  C     C_3   0.794167 0.691841 0.791876 -0.167934
C109  C     C_3   0.206076 0.308707 0.207518 -0.168068
C110  C     C_3   0.249664 0.279275 0.279539 -0.137384
C111  C     C_3   0.749974 0.721546 0.720335 -0.136951
C112  C     C_3   0.192293 0.775660 0.364283 -0.146417
H1    H     H_    0.422693 0.754733 0.606428 0.083850
H2    H     H_    0.543561 0.721818 0.660165 0.093120
H3    H     H_    0.754724 0.422689 0.393522 0.083893
H4    H     H_    0.244937 0.579002 0.606232 0.090218
H5    H     H_    0.543706 0.720623 0.338391 0.099191
H6    H     H_    0.456744 0.279719 0.661751 0.099024
H7    H     H_    0.245083 0.578809 0.393340 0.090709
H8    H     H_    0.754587 0.422907 0.606814 0.084182
H9    H     H_    0.956414 0.220654 0.161715 0.099279
H10   H     H_    0.043548 0.778203 0.839908 0.092794
H11   H     H_    0.254929 0.078838 0.106540 0.090620
H12   H     H_    0.578988 0.244943 0.393733 0.090153
H13   H     H_    0.745000 0.921049 0.893733 0.090166
H14   H     H_    0.043400 0.778190 0.159874 0.092447
H15   H     H_    0.956450 0.220750 0.838535 0.098953
H16   H     H_    0.745268 0.922597 0.106532 0.083871
H17   H     H_    0.254635 0.077258 0.893079 0.084215
H18   H     H_    0.922592 0.745273 0.893426 0.083903
H19   H     H_    0.077255 0.254651 0.106834 0.084145
H20   H     H_    0.220674 0.956384 0.838294 0.099264
H21   H     H_    0.778233 0.043536 0.160125 0.092893
H22   H     H_    0.078810 0.254916 0.893399 0.090537
H23   H     H_    0.720606 0.543685 0.661617 0.099179
H24   H     H_    0.921037 0.744992 0.106241 0.090218
H25   H     H_    0.778175 0.043410 0.840140 0.092411
H26   H     H_    0.220735 0.956472 0.161472 0.098970
H27   H     H_    0.226668 0.280568 0.339817 0.109640
H28   H     H_    0.772614 0.720886 0.659915 0.110037
H29   H     H_    0.169796 0.772183 0.424568 0.101397
H30   H     H_    0.771964 0.169597 0.575497 0.101364
H31   H     H_    0.720334 0.773096 0.339867 0.110002
H32   H     H_    0.279558 0.227522 0.659771 0.109694
H33   H     H_    0.774118 0.170881 0.425596 0.101580
H34   H     H_    0.279698 0.456715 0.338256 0.099056
H35   H     H_    0.170328 0.773436 0.574591 0.101559
H36   H     H_    0.672228 0.724004 0.926220 0.105321
H37   H     H_    0.328534 0.274593 0.074122 0.105265
H38   H     H_    0.782564 0.275855 0.839311 0.109483
H39   H     H_    0.275666 0.782355 0.160585 0.109501
H40   H     H_    0.275605 0.327683 0.926139 0.105312
H41   H     H_    0.724569 0.671757 0.073931 0.105295
H42   H     H_    0.274490 0.781753 0.839124 0.109748
H43   H     H_    0.781089 0.273932 0.160600 0.109791
H44   H     H_    0.718243 0.586957 0.842060 0.108070
H45   H     H_    0.578816 0.245076 0.606637 0.090735
H46   H     H_    0.283038 0.412643 0.156921 0.107169
H47   H     H_    0.645689 0.228210 0.761723 0.106744
H48   H     H_    0.353843 0.834193 0.294971 0.101735
H49   H     H_    0.225773 0.412027 0.792303 0.102046
H50   H     H_    0.774609 0.588147 0.208139 0.102959
H51   H     H_    0.353837 0.833789 0.705478 0.101145
H52   H     H_    0.645497 0.225703 0.240139 0.106466
H53   H     H_    0.833241 0.354076 0.293730 0.101168
H54   H     H_    0.226474 0.645694 0.760251 0.106513
H55   H     H_    0.587120 0.717600 0.157534 0.108089
H56   H     H_    0.422911 0.754583 0.393157 0.084195
H57   H     H_    0.412927 0.281863 0.842337 0.107112
H58   H     H_    0.227958 0.645623 0.238387 0.106754
H59   H     H_    0.834367 0.353759 0.704756 0.101718
H60   H     H_    0.411679 0.224919 0.208716 0.101937
H61   H     H_    0.587955 0.774132 0.792432 0.103044
H62   H     H_    0.274904 0.145336 0.259676 0.106396
H63   H     H_    0.723878 0.855138 0.741407 0.106132
H64   H     H_    0.089487 0.722815 0.288337 0.101927
H65   H     H_    0.911632 0.214644 0.655609 0.107356
H66   H     H_    0.667747 0.854400 0.207765 0.101109
H67   H     H_    0.278509 0.456875 0.660307 0.093018
H68   H     H_    0.331939 0.145493 0.791499 0.101803
H69   H     H_    0.912529 0.216461 0.343471 0.108187
H70   H     H_    0.088788 0.723940 0.710173 0.102975
H71   H     H_    0.215681 0.912327 0.656056 0.108207
H72   H     H_    0.724509 0.088542 0.290502 0.103074
H73   H     H_    0.145037 0.276059 0.740924 0.106318
H74   H     H_    0.854979 0.724519 0.258936 0.106187
H75   H     H_    0.722632 0.089566 0.711887 0.101897
H76   H     H_    0.214906 0.911702 0.344241 0.107329
H77   H     H_    0.854581 0.668206 0.791576 0.101131
H78   H     H_    0.721845 0.543576 0.339865 0.093027
H79   H     H_    0.145839 0.332783 0.207292 0.101744
H80   H     H_    0.456858 0.278469 0.339738 0.092877
N1    N     N_R   0.424590 0.632770 0.578330 -0.033525
N2    N     N_R   0.575410 0.632770 0.578330 -0.042175
N3    N     N_R   0.632770 0.424590 0.421670 -0.033520
N4    N     N_R   0.367230 0.575410 0.578330 -0.032801
N5    N     N_R   0.575410 0.632770 0.421670 -0.041961
N6    N     N_R   0.424590 0.367230 0.578330 -0.041657
N7    N     N_R   0.367230 0.575410 0.421670 -0.032480
N8    N     N_R   0.632770 0.424590 0.578330 -0.033199
N9    N     N_R   0.924590 0.132770 0.078330 -0.041930
N10   N     N_R   0.075410 0.867230 0.921670 -0.042128
N11   N     N_R   0.132770 0.075410 0.078330 -0.032694
N12   N     N_R   0.575410 0.367230 0.421670 -0.032806
N13   N     N_R   0.867230 0.924590 0.921670 -0.033155
N14   N     N_R   0.075410 0.867230 0.078330 -0.041807
N15   N     N_R   0.924590 0.132770 0.921670 -0.041586
N16   N     N_R   0.867230 0.924590 0.078330 -0.033346
N17   N     N_R   0.132770 0.075410 0.921670 -0.032856
N18   N     N_R   0.924590 0.867230 0.921670 -0.033339
N19   N     N_R   0.075410 0.132770 0.078330 -0.032882
N20   N     N_R   0.132770 0.924590 0.921670 -0.041910
N21   N     N_R   0.867230 0.075410 0.078330 -0.042138
N22   N     N_R   0.075410 0.132770 0.921670 -0.032687
N23   N     N_R   0.632770 0.575410 0.578330 -0.041973
N24   N     N_R   0.924590 0.867230 0.078330 -0.033157
N25   N     N_R   0.867230 0.075410 0.921670 -0.041808
N26   N     N_R   0.132770 0.924590 0.078330 -0.041585
N27   N     N_R   0.367230 0.424590 0.421670 -0.041636
N28   N     N_R   0.575410 0.367230 0.578330 -0.032488
N29   N     N_R   0.424590 0.632770 0.421670 -0.033195
N30   N     N_R   0.367230 0.424590 0.578330 -0.041847
N31   N     N_R   0.632770 0.575410 0.421670 -0.042167
N32   N     N_R   0.424590 0.367230 0.421670 -0.041840
Ni1   Ni    Ni4+2 0.500000 0.631570 0.500000 0.206937
Ni2   Ni    Ni4+2 0.500000 0.368430 0.500000 0.206848
Ni3   Ni    Ni4+2 0.631570 0.500000 0.500000 0.206947
Ni4   Ni    Ni4+2 0.368430 0.500000 0.500000 0.206832
Ni5   Ni    Ni4+2 0.000000 0.131570 0.000000 0.206306
Ni6   Ni    Ni4+2 1.000000 0.868430 0.000000 0.207444
Ni7   Ni    Ni4+2 0.131570 0.000000 0.000000 0.206309
Ni8   Ni    Ni4+2 0.868430 0.000000 0.000000 0.207435

loop_
_geom_bond_atom_site_label_1
_geom_bond_atom_site_label_2
_ccdc_geom_bond_type
C58   C62   A    
C83   H52   S    
N4    Ni4   S    
C24   N11   A    
C46   C59   S    
N14   Ni6   S    
C81   H50   S    
C12   H40   S    
C39   N26   A    
C53   C74   S    
C25   N12   A    
N25   Ni8   S    
C34   C66   A    
C30   N17   A    
C102  N32   A    
C48   C57   S    
C35   C74   A    
C28   C72   A    
N14   N26   A    
C18   C65   A    
N9    N21   A    
C104  H73   S    
C76   H46   S    
C43   C89   S    
C29   N16   A    
C83   C103  S    
C22   H9    S    
C85   H54   S    
N2    Ni1   S    
C110  H27   S    
N6    N30   A    
C45   C64   S    
C106  H75   S    
C21   H8    S    
C7    C101  S    
C95   C112  S    
C36   N23   A    
N17   Ni7   S    
C43   C77   S    
C30   C74   A    
C33   N20   A    
N31   Ni3   S    
C8    C49   S    
C29   C73   A    
C82   H51   S    
C11   C52   S    
C53   C104  S    
C87   H57   S    
C12   C79   S    
N29   Ni1   S    
C93   H62   S    
C16   C84   S    
C35   H22   S    
C52   C95   S    
C107  C112  S    
C6    C99   S    
C23   C67   A    
C10   C89   S    
C86   C97   S    
C42   C112  S    
C22   C66   A    
C15   H42   S    
C80   N30   A    
C84   H53   S    
C41   C60   S    
C50   C68   S    
N27   N32   A    
C58   N28   A    
C75   H44   S    
C82   C101  S    
C31   C70   A    
C63   C69   A    
C52   C107  S    
C76   C109  S    
C55   C100  S    
N24   Ni6   S    
C56   C66   S    
C54   C97   S    
C3    C96   S    
N7    N29   A    
C9    C76   S    
C49   C94   S    
C15   C82   S    
C100  H70   S    
N7    Ni4   S    
C11   C88   S    
C37   N24   A    
C69   N29   A    
C12   C53   S    
C101  H71   S    
C28   H15   S    
C94   H63   S    
N10   Ni6   S    
C87   C98   S    
N9    Ni5   S    
C5    C104  S    
C75   C108  S    
N16   N24   A    
C105  H74   S    
C4    C97   S    
C64   C80   A    
C38   N25   A    
N11   N19   A    
C44   C65   S    
C8    H36   S    
C3    H30   S    
C1    H1    S    
C79   H49   S    
C44   C86   S    
C10   C51   S    
C4    H31   S    
C25   H12   S    
C10   C77   S    
C111  H28   S    
C23   H10   S    
C7    H35   S    
C3    C106  S    
C9    H37   S    
C91   H78   S    
C38   C72   A    
N15   N25   A    
C88   H58   S    
C7    C100  S    
C9    C50   S    
C23   N10   A    
C103  H72   S    
C80   H67   S    
C2    C60   A    
C14   C86   S    
C44   C81   S    
N2    N23   A    
N20   Ni7   S    
C24   C68   A    
N15   Ni5   S    
C5    H32   S    
C40   C110  S    
N3    N12   A    
C4    C44   S    
C34   H21   S    
C36   C60   A    
C47   H34   S    
C5    C45   S    
C107  H76   S    
C22   N9    A    
C24   H11   S    
C15   C85   S    
C40   C76   S    
C78   C107  S    
C2    N2    A    
C26   H13   S    
C15   C55   S    
C112  H29   S    
N27   Ni4   S    
C1    N1    A    
C95   H64   S    
C16   C56   S    
C20   N7    A    
C20   H7    S    
C11   C78   S    
C1    C57   A    
C41   C75   S    
C54   C73   S    
C96   H65   S    
C102  H80   S    
N30   Ni4   S    
C19   C64   A    
N1    N4    A    
C3    C43   S    
C93   C110  S    
C16   H43   S    
C92   C94   S    
N18   Ni6   S    
C37   H24   S    
N28   Ni2   S    
C45   C79   S    
C6    C103  S    
C40   C61   S    
C18   H5    S    
C89   H59   S    
C21   C62   A    
C13   H3    S    
N21   Ni8   S    
C77   H47   S    
C8    C92   S    
C33   H20   S    
C11   H39   S    
C14   C54   S    
N16   Ni8   S    
C42   C78   S    
C49   C70   S    
C14   H41   S    
C41   C111  S    
C26   C70   A    
C46   C84   S    
C108  H77   S    
C26   N13   A    
C42   C88   S    
C51   C72   S    
C21   N8    A    
C91   N31   A    
C6    H33   S    
C36   H23   S    
C27   C71   A    
C33   C67   A    
C90   C93   S    
C78   H48   S    
C65   C91   A    
C81   C105  S    
C37   C73   A    
C77   C106  S    
C19   N6    A    
C6    C46   S    
C54   C105  S    
C45   C87   S    
C84   C99   S    
C30   H17   S    
C86   H55   S    
C56   C103  S    
N10   N20   A    
N5    N31   A    
C34   N21   A    
N32   Ni2   S    
C9    C90   S    
C47   C61   A    
C55   C67   S    
C50   C93   S    
C88   C95   S    
C13   C59   A    
N3    Ni3   S    
C53   C98   S    
C31   H18   S    
C94   C111  S    
N13   Ni8   S    
C4    C105  S    
C51   C96   S    
C18   N5    A    
N17   N22   A    
C14   C81   S    
C108  C111  S    
C32   C68   A    
C39   H26   S    
C27   N14   A    
C40   C90   S    
C7    C48   S    
C20   C63   A    
C61   C102  A    
C69   H56   S    
N1    Ni1   S    
C12   C87   S    
C85   C100  S    
C92   H61   S    
C109  C110  S    
C32   N19   A    
N12   Ni2   S    
N11   Ni7   S    
C2    H2    S    
C97   H66   S    
C31   N18   A    
C47   N27   A    
N13   N18   A    
C109  H79   S    
C51   C106  S    
N8    N28   A    
C58   H45   S    
C19   H6    S    
C55   C101  S    
C27   H14   S    
C38   H25   S    
C48   C82   S    
N23   Ni3   S    
C50   C109  S    
C79   C104  S    
C35   N22   A    
C49   C108  S    
N26   Ni7   S    
C99   H69   S    
C8    C75   S    
N19   Ni5   S    
C46   C83   S    
C41   C92   S    
C5    C98   S    
C17   H4    S    
C13   N3    A    
C29   H16   S    
C90   H60   S    
C52   C71   S    
C28   N15   A    
C39   C71   A    
C48   C85   S    
C17   N4    A    
C16   C83   S    
C25   C59   A    
C56   C99   S    
C89   C96   S    
N22   Ni5   S    
C98   H68   S    
C42   C63   S    
N8    Ni3   S    
C32   H19   S    
C10   H38   S    
N6    Ni2   S    
C43   C62   S    
C17   C57   A    
N5    Ni1   S    
