data_mof_unit_50889.cif
_audit_creation_date              2012-12-11T14:21:04-0500
_audit_creation_method            fapswitch 2.2
_symmetry_space_group_name_H-M    P1
_symmetry_Int_Tables_number       1
_space_group_crystal_system       triclinic
_cell_length_a                    22.018959
_cell_length_b                    7.207929
_cell_length_c                    14.862237
_cell_angle_alpha                 90.000302
_cell_angle_beta                  106.809845
_cell_angle_gamma                 90.000054
_cell_volume                      2258.00985098

loop_
_atom_site_label
_atom_site_type_symbol
_atom_type_description
_atom_site_fract_x
_atom_site_fract_y
_atom_site_fract_z
_atom_type_partial_charge
O1    O     O_R   0.584770 0.505770 0.002090 -0.520861
O2    O     O_R   0.415230 0.005770 0.997910 -0.520861
O3    O     O_R   0.467060 0.173340 0.861950 -0.527131
O4    O     O_R   0.532940 0.673340 0.138050 -0.527131
C1    C     C_R   0.455561 0.344439 0.825718 0.758696
C2    C     C_R   0.544439 0.844440 0.174282 0.758697
O5    O     O_R   0.587510 0.175890 0.993210 -0.530195
O6    O     O_R   0.412490 0.675890 0.006790 -0.530196
O7    O     O_R   0.536540 0.008150 0.130100 -0.539830
O8    O     O_R   0.463460 0.508150 0.869900 -0.539829
C3    C     C_R   0.613175 0.344098 0.998908 0.765937
C4    C     C_R   0.386825 0.844098 0.001092 0.765937
O9    O     O_3   0.483140 0.340040 0.044760 -0.370825
O10   O     O_3   0.516860 0.840040 0.955240 -0.370825
V1    V     V_3+5 0.503130 0.064190 0.991700 1.625389
V2    V     V_3+5 0.496870 0.564190 0.008300 1.625388
C5    C     C_2   0.214996 0.735233 0.007565 -0.118045
C6    C     C_2   0.785004 0.235233 0.992436 -0.118046
C7    C     C_2   0.181803 0.891144 0.008886 -0.275121
C8    C     C_2   0.818196 0.391143 0.991114 -0.275121
H1    H     H_    0.191310 0.601712 0.001682 0.164324
H2    H     H_    0.808690 0.101712 0.998319 0.164325
H3    H     H_    0.206375 0.023402 0.022044 0.190247
H4    H     H_    0.793625 0.523401 0.977955 0.190247
C9    C     C_2   0.285144 0.733815 0.026770 0.244144
C10   C     C_2   0.714856 0.233814 0.973230 0.244144
C11   C     C_2   0.317329 0.853539 0.986180 0.067686
C12   C     C_2   0.682671 0.353540 0.013820 0.067687
C13   C     C_R   0.925561 0.885928 0.723933 -0.031256
C14   C     C_R   0.074439 0.385933 0.276067 -0.031256
C15   C     C_R   0.571333 0.853704 0.276653 -0.148599
C16   C     C_R   0.428666 0.353701 0.723347 -0.148598
C17   C     C_R   0.934760 0.869856 0.566397 -0.157738
C18   C     C_R   0.065241 0.369898 0.433603 -0.157738
C19   C     C_R   0.963168 0.879715 0.662952 -0.171044
C20   C     C_R   0.036832 0.379748 0.337048 -0.171045
C21   C     C_R   0.859395 0.883156 0.688517 -0.198399
C22   C     C_R   0.140605 0.383146 0.311483 -0.198399
C23   C     C_R   0.829084 0.874808 0.590516 0.086348
C24   C     C_R   0.170916 0.374813 0.409484 0.086348
C25   C     C_R   0.868364 0.867105 0.529835 0.130786
C26   C     C_R   0.131637 0.367134 0.470165 0.130785
C27   C     C_R   0.761500 0.874044 0.550910 0.042357
C28   C     C_R   0.238501 0.374043 0.449090 0.042357
C29   C     C_R   0.734405 0.862942 0.451224 0.088475
C30   C     C_R   0.265595 0.362951 0.548775 0.088476
C31   C     C_R   0.775986 0.854652 0.394339 -0.151326
C32   C     C_R   0.224014 0.354681 0.605661 -0.151323
C33   C     C_R   0.841333 0.857002 0.433032 -0.191145
C34   C     C_R   0.158667 0.357042 0.566968 -0.191146
C35   C     C_R   0.720177 0.885551 0.607632 -0.170079
C36   C     C_R   0.279823 0.385541 0.392367 -0.170080
C37   C     C_R   0.654875 0.886904 0.569076 -0.047204
C38   C     C_R   0.345125 0.386894 0.430924 -0.047203
C39   C     C_R   0.626969 0.876145 0.471878 -0.002684
C40   C     C_R   0.373031 0.376140 0.528122 -0.002684
C41   C     C_R   0.666703 0.862399 0.411701 0.050824
C42   C     C_R   0.333297 0.362400 0.588298 0.050823
C43   C     C_R   0.559954 0.879772 0.433835 0.316847
C44   C     C_R   0.440046 0.379767 0.566164 0.316848
C45   C     C_R   0.532417 0.870214 0.335991 0.246976
C46   C     C_R   0.467583 0.370208 0.664009 0.246977
C47   C     C_R   0.637133 0.849150 0.313936 -0.240450
C48   C     C_R   0.362867 0.349150 0.686064 -0.240451
H5    H     H_    0.871113 0.851079 0.386352 0.136377
H6    H     H_    0.128888 0.351136 0.613648 0.136377
H7    H     H_    0.663616 0.835399 0.263741 0.146833
H8    H     H_    0.336384 0.335399 0.736259 0.146833
H9    H     H_    0.964776 0.864411 0.520087 0.121195
H10   H     H_    0.035225 0.364473 0.479913 0.121196
H11   H     H_    0.759968 0.847765 0.318882 0.156041
H12   H     H_    0.240033 0.347807 0.681118 0.156035
H13   H     H_    0.736566 0.895479 0.683031 0.153606
H14   H     H_    0.263434 0.395466 0.316969 0.153605
O11   O     O_R   0.036450 0.233070 0.130130 -0.538526
O12   O     O_R   0.963550 0.733070 0.869870 -0.538526
O13   O     O_R   0.912470 0.560570 0.006790 -0.539073
O14   O     O_R   0.087530 0.060570 0.993210 -0.539073
C49   C     C_R   0.886796 0.392595 0.000239 0.735886
C50   C     C_R   0.113204 0.892595 0.999761 0.735885
O15   O     O_R   0.032920 0.562940 0.138050 -0.538565
O16   O     O_R   0.967080 0.062940 0.861950 -0.538565
O17   O     O_R   0.084790 0.730500 0.002090 -0.539858
O18   O     O_R   0.915210 0.230500 0.997910 -0.539858
C51   C     C_R   0.045140 0.394423 0.174555 0.688863
C52   C     C_R   0.954860 0.894422 0.825446 0.688863
O19   O     O_3   0.016820 0.396170 0.955260 -0.379103
O20   O     O_3   0.983180 0.896170 0.044740 -0.379103
V3    V     V_3+5 0.996880 0.672090 0.008300 1.453868
V4    V     V_3+5 0.003120 0.172090 0.991700 1.453867
H15   H     H_    0.014433 0.881716 0.690169 0.117742
H16   H     H_    0.985568 0.381764 0.309831 0.117742
H17   H     H_    0.833428 0.887286 0.739746 0.107210
H18   H     H_    0.166572 0.387252 0.260254 0.107211
Br1   Br    Br    0.504845 0.898412 0.514049 -0.401471
Br2   Br    Br    0.495155 0.398410 0.485951 -0.401471
Br3   Br    Br    0.327340 0.544550 0.114056 -0.476413
Br4   Br    Br    0.672659 0.044546 0.885945 -0.476414
Br5   Br    Br    0.274047 0.029680 0.891199 -0.585929
Br6   Br    Br    0.725953 0.529685 0.108800 -0.585933
Br7   Br    Br    0.441569 0.881135 0.282450 -0.416407
Br8   Br    Br    0.558431 0.381127 0.717550 -0.416408
H19   H     H_    0.626628 0.897170 0.617460 0.210625
H20   H     H_    0.373372 0.397153 0.382539 0.210624

loop_
_geom_bond_atom_site_label_1
_geom_bond_atom_site_label_2
_ccdc_geom_bond_type
C39   C43   A    
C15   C45   A    
C45   Br7   S    
C6    C10   S    
O2    C4    A    
C2    O7    A    
C23   C25   A    
O14   V4    S    
O5    C3    A    
O13   V3    S    
C33   H5    S    
C48   H8    S    
C38   H20   S    
C37   H19   S    
C36   H14   S    
C49   O18   A    
O14   C50   A    
C14   C22   A    
C44   C46   A    
C29   C31   A    
O11   V4    S    
C17   C19   A    
O11   C51   A    
C8    H4    S    
C28   C30   A    
C18   C26   A    
C18   H10   S    
C18   C20   A    
C17   H9    S    
O12   V3    S    
C1    C16   S    
O15   V3    S    
C12   Br6   S    
C32   C34   A    
C2    C15   S    
O6    V2    S    
C30   C42   A    
O18   V4    S    
C32   H12   S    
C50   O17   A    
C25   C33   A    
C36   C38   A    
C41   C47   A    
C38   C40   A    
C37   C39   A    
C42   C48   A    
O17   V3    S    
C47   H7    S    
C43   C45   A    
C4    C11   S    
C15   C47   A    
C16   C48   A    
O4    C2    A    
C23   C27   A    
O5    V1    S    
O16   C52   A    
C5    H1    S    
C40   C44   A    
C35   C37   A    
O4    V2    S    
C7    H3    S    
C34   H6    S    
O6    C4    A    
C29   C41   A    
C22   H18   S    
O13   C49   A    
C21   H17   S    
O1    V2    S    
C14   C51   S    
O2    V1    S    
C27   C29   A    
C31   H11   S    
C13   C52   S    
C10   Br4   S    
C44   Br2   S    
C9    Br3   S    
C26   C34   A    
C39   C41   A    
O19   V4    S    
O12   C52   A    
O3    V1    S    
C8    C49   S    
C6    H2    S    
C35   H13   S    
O3    C1    A    
C9    C11   D    
C13   C19   A    
C10   C12   D    
O16   V4    S    
C14   C20   A    
C5    C9    S    
O7    V1    S    
C17   C25   A    
C1    O8    A    
C21   C23   A    
O8    V2    S    
C31   C33   A    
C22   C24   A    
C28   C36   A    
C3    C12   S    
C27   C35   A    
C24   C26   A    
C5    C7    D    
C40   C42   A    
C6    C8    D    
C7    C50   S    
C11   Br5   S    
C20   H16   S    
C16   C46   A    
C30   C32   A    
C24   C28   A    
O20   V3    S    
O9    V2    S    
C13   C21   A    
O10   V1    S    
C43   Br1   S    
O1    C3    A    
O15   C51   A    
C46   Br8   S    
C19   H15   S    
