data_mof_unit_12174.cif
_audit_creation_date              2012-12-11T16:26:29-0500
_audit_creation_method            fapswitch 2.2
_symmetry_space_group_name_H-M    P1
_symmetry_Int_Tables_number       1
_space_group_crystal_system       triclinic
_cell_length_a                    6.948293
_cell_length_b                    17.447427
_cell_length_c                    19.537621
_cell_angle_alpha                 108.353981
_cell_angle_beta                  89.308271
_cell_angle_gamma                 90.883905
_cell_volume                      2247.72051359

loop_
_atom_site_label
_atom_site_type_symbol
_atom_type_description
_atom_site_fract_x
_atom_site_fract_y
_atom_site_fract_z
_atom_type_partial_charge
O1    O     O_R   0.494330 0.415720 0.413720 -0.546042
O2    O     O_R   0.819330 0.430070 0.560210 -0.524938
O3    O     O_R   0.994320 0.584280 0.586280 -0.540131
C1    C     C_R   0.649859 0.414156 0.580962 0.749742
O4    O     O_R   0.823730 0.406300 0.412670 -0.530461
O5    O     O_R   0.998760 0.560340 0.437690 -0.539667
C2    C     C_R   0.654294 0.383051 0.385218 0.713662
O6    O     O_R   0.489890 0.439660 0.562310 -0.542537
O7    O     O_3   0.662340 0.550560 0.508380 -0.373515
V1    V     V_3+5 0.935370 0.490620 0.498450 1.458001
O8    O     O_R   0.328750 0.569930 0.439790 -0.545774
C3    C     C_R   0.161831 0.584885 0.418000 0.742394
O9    O     O_R   0.324340 0.593700 0.587330 -0.543040
C4    C     C_R   0.154638 0.616271 0.615321 0.676010
V2    V     V_3+5 0.435940 0.509380 0.501550 1.416441
O10   O     O_3   0.159100 0.449440 0.491620 -0.364603
H1    H     H_    0.827829 0.847267 0.578012 0.146342
C5    C     C_R   0.287217 0.600409 0.750584 -0.143473
C6    C     C_R   0.347827 0.590168 0.814818 -0.127000
C7    C     C_R   0.339601 0.653824 0.878880 -0.121960
C8    C     C_R   0.267642 0.728045 0.879468 -0.132591
C9    C     C_R   0.201551 0.740050 0.815448 0.070345
C10   C     C_R   0.212632 0.674972 0.749432 0.074538
C11   C     C_R   0.120584 0.814647 0.816853 -0.185290
C12   C     C_R   0.046202 0.823402 0.752666 0.072804
C13   C     C_R   0.047405 0.756980 0.687643 0.050826
C14   C     C_R   0.140450 0.684007 0.684797 -0.188841
C15   C     C_R   0.973375 0.898320 0.751473 -0.139466
C16   C     C_R   0.898535 0.906767 0.688589 -0.172455
C17   C     C_R   0.887647 0.840647 0.626663 -0.130302
C18   C     C_R   0.957959 0.766289 0.626236 -0.104848
H2    H     H_    0.294575 0.548556 0.702445 0.113404
H3    H     H_    0.398688 0.532142 0.815108 0.113701
H4    H     H_    0.386906 0.645357 0.928581 0.105477
H5    H     H_    0.260977 0.775232 0.930871 0.097349
H6    H     H_    0.976982 0.951573 0.798488 0.115576
H7    H     H_    0.849387 0.964850 0.687777 0.127819
H8    H     H_    0.946649 0.717262 0.576372 0.160893
C19   C     C_R   0.222187 0.601846 0.296838 -0.306592
C20   C     C_R   0.157378 0.634374 0.368506 -0.136638
C21   C     C_R   0.093190 0.714765 0.392966 0.364308
C22   C     C_R   0.065900 0.757860 0.343376 0.003111
C23   C     C_R   0.133350 0.725103 0.271840 -0.000976
C24   C     C_R   0.215470 0.647510 0.248903 0.106816
C25   C     C_R   0.977506 0.833982 0.364569 -0.175607
C26   C     C_R   0.961850 0.878083 0.316366 -0.198867
C27   C     C_R   0.036215 0.847663 0.246168 0.107226
C28   C     C_R   0.123008 0.770942 0.223717 0.075037
C29   C     C_R   0.201730 0.740533 0.153548 0.104183
C30   C     C_R   0.283934 0.663438 0.131378 -0.187106
C31   C     C_R   0.288798 0.617025 0.178322 -0.170124
C32   C     C_R   0.026620 0.892928 0.198275 -0.225661
C33   C     C_R   0.109308 0.864011 0.129193 -0.067988
C34   C     C_R   0.197588 0.788009 0.107136 -0.214965
H9    H     H_    0.279447 0.541237 0.278737 0.128130
H10   H     H_    0.919793 0.859697 0.418570 0.153257
H11   H     H_    0.893962 0.936639 0.334403 0.137917
H12   H     H_    0.959087 0.951639 0.215232 0.112870
H13   H     H_    0.260689 0.765563 0.053672 0.102730
H14   H     H_    0.344007 0.638881 0.077573 0.119709
H15   H     H_    0.352128 0.557588 0.159668 0.121992
C35   C     C_R   0.634299 0.218311 0.895557 -0.222101
C36   C     C_R   0.625966 0.133657 0.869099 -0.058084
C37   C     C_R   0.617967 0.094655 0.794552 -0.199816
C38   C     C_R   0.621458 0.139518 0.746083 0.041399
C39   C     C_R   0.629202 0.224483 0.772401 0.059045
C40   C     C_R   0.635029 0.264043 0.847659 0.127165
C41   C     C_R   0.612140 0.100709 0.671827 -0.279036
C42   C     C_R   0.611376 0.144669 0.622929 0.436333
C43   C     C_R   0.633089 0.230308 0.647963 -0.043960
C44   C     C_R   0.631187 0.269944 0.723628 -0.029451
C45   C     C_R   0.633992 0.355154 0.750981 0.136303
C46   C     C_R   0.639927 0.393692 0.825829 -0.181746
C47   C     C_R   0.640990 0.348618 0.873657 -0.190940
C48   C     C_R   0.656208 0.277871 0.600843 0.099516
C49   C     C_R   0.640463 0.362873 0.628599 -0.100356
C50   C     C_R   0.631082 0.400611 0.703265 -0.253412
H16   H     H_    0.638176 0.248346 0.953306 0.098549
H17   H     H_    0.606505 0.029349 0.774578 0.108829
H18   H     H_    0.599264 0.035557 0.651206 0.134976
H19   H     H_    0.630232 0.465982 0.724109 0.110753
H20   H     H_    0.646044 0.458927 0.847569 0.118126
H21   H     H_    0.646111 0.380008 0.931106 0.122571
H22   H     H_    0.205587 0.171555 0.410795 0.136095
C51   C     C_R   0.849800 0.390202 0.255033 -0.142910
C52   C     C_R   0.944271 0.396023 0.193570 -0.128447
C53   C     C_R   0.931850 0.333134 0.129189 -0.127209
C54   C     C_R   0.824989 0.263906 0.125770 -0.135161
C55   C     C_R   0.730277 0.255274 0.187655 0.072726
C56   C     C_R   0.742560 0.319959 0.253819 0.067485
C57   C     C_R   0.619263 0.184974 0.183709 -0.189601
C58   C     C_R   0.514360 0.180779 0.245304 0.068865
C59   C     C_R   0.520949 0.246592 0.310780 0.075561
C60   C     C_R   0.641233 0.315095 0.316026 -0.182670
C61   C     C_R   0.403861 0.111096 0.243470 -0.134956
C62   C     C_R   0.292959 0.108352 0.302450 -0.122729
C63   C     C_R   0.292691 0.173703 0.365121 -0.103517
C64   C     C_R   0.407661 0.241231 0.370046 -0.092744
H23   H     H_    0.858900 0.442409 0.302684 0.116565
H24   H     H_    0.024816 0.450269 0.195586 0.117765
H25   H     H_    0.003031 0.338477 0.081269 0.113669
H26   H     H_    0.815005 0.218309 0.073559 0.110606
H27   H     H_    0.401799 0.057571 0.196849 0.120153
H28   H     H_    0.207507 0.055046 0.299625 0.116876
H29   H     H_    0.407231 0.288070 0.421540 0.141981
O11   O     O_R   0.775200 0.060470 0.937800 -0.541986
O12   O     O_R   0.441110 0.093720 0.087350 -0.540295
O13   O     O_R   0.266330 0.939630 0.062280 -0.542702
C65   C     C_R   0.609742 0.116564 0.115010 0.690017
O14   O     O_R   0.445750 0.069950 0.939820 -0.537179
O15   O     O_R   0.271000 0.915700 0.913700 -0.537358
C66   C     C_R   0.615563 0.085542 0.918947 0.698645
O16   O     O_R   0.770530 0.084400 0.086380 -0.537781
O17   O     O_3   0.602830 0.949510 0.991680 -0.367715
V3    V     V_3+5 0.329710 0.009370 0.001550 1.423573
O18   O     O_R   0.940990 0.906170 0.912570 -0.538670
C67   C     C_R   0.110165 0.883022 0.885400 0.692806
O19   O     O_R   0.936350 0.929940 0.060100 -0.537194
C68   C     C_R   0.103868 0.913879 0.080662 0.699636
V4    V     V_3+5 0.829160 0.990450 0.998310 1.426445
O20   O     O_3   0.105910 0.050480 0.008320 -0.368505
O21   O     O_3   0.065545 0.751798 0.465973 -0.596329
C69   C     C_3   0.213419 0.810387 0.493318 0.019391
H30   H     H_    0.142652 0.865679 0.528012 0.159858
H31   H     H_    0.294379 0.829932 0.451811 0.106366
C70   C     C_3   0.358268 0.779816 0.537091 -0.270678
H32   H     H_    0.295127 0.729129 0.552665 0.206204
H33   H     H_    0.487411 0.756190 0.503335 0.175719
C71   C     C_3   0.419521 0.846438 0.605312 -0.830028
H34   H     H_    0.503808 0.893677 0.590826 0.217142
H35   H     H_    0.507040 0.820118 0.639202 0.245118
H36   H     H_    0.292981 0.875041 0.637868 0.248999
O22   O     O_3   0.584458 0.101772 0.550985 -0.558349
C72   C     C_3   0.389516 0.106485 0.532336 0.128586
H37   H     H_    0.386433 0.097539 0.473573 0.163685
H38   H     H_    0.324830 0.166761 0.559450 0.116988
C73   C     C_3   0.267485 0.039254 0.546830 -0.400537
H39   H     H_    0.333526 0.980116 0.518370 0.202535
H40   H     H_    0.263154 0.047333 0.605509 0.200546
C74   C     C_3   0.061523 0.039746 0.520783 -0.755196
H41   H     H_    0.994507 0.098838 0.548674 0.271687
H42   H     H_    0.975062 0.991688 0.533230 0.222315
H43   H     H_    0.059855 0.028777 0.461617 0.233174
I1    I     I_    0.759667 0.227487 0.492261 -0.483151

loop_
_geom_bond_atom_site_label_1
_geom_bond_atom_site_label_2
_ccdc_geom_bond_type
C41   H18   S    
C53   C54   A    
C59   C60   A    
V3    O20   S    
C21   C22   A    
C61   C62   A    
C31   H15   S    
C74   H43   S    
C47   H21   S    
C1    O6    A    
C72   C73   S    
C63   C64   A    
C69   H30   S    
O11   C66   A    
C51   C52   A    
V4    O20   S    
C12   C15   A    
C73   H40   S    
C11   C67   S    
C45   C50   A    
C64   H29   S    
C35   C40   A    
H22   C63   S    
O13   V3    S    
C15   C16   A    
C74   H42   S    
O5    C3    A    
C17   C18   A    
C69   H31   S    
C29   C34   A    
O18   C67   A    
C5    C6    A    
C46   C47   A    
C36   C66   S    
O19   C68   A    
C53   H25   S    
O8    V2    S    
C19   H9    S    
C6    C7    A    
C25   H10   S    
C41   C42   A    
C70   H33   S    
C11   C12   A    
C43   C44   A    
O1    V2    S    
C10   C14   A    
C4    C14   S    
C55   C57   A    
C52   H24   S    
O7    V1    S    
C65   O16   A    
C71   H36   S    
C7    H4    S    
C39   C40   A    
C13   C18   A    
O9    C4    A    
H1    C17   S    
O12   C65   A    
O13   C68   A    
C61   H27   S    
C56   C60   A    
O19   V4    S    
C34   H13   S    
C73   C74   S    
C5    C10   A    
C27   C28   A    
C49   C50   A    
C6    H3    S    
C55   C56   A    
C57   C58   A    
O4    C2    A    
C52   C53   A    
C69   C70   S    
C72   H38   S    
C70   C71   S    
C12   C13   A    
C33   C34   A    
C58   C61   A    
O18   V4    S    
C22   C25   A    
C21   O21   S    
C3    C20   S    
O2    C1    A    
C48   C49   A    
C16   C17   A    
C51   H23   S    
O16   V4    S    
C39   C44   A    
C50   H19   S    
C51   C56   A    
C38   C41   A    
C62   C63   A    
C7    C8    A    
C35   C36   A    
C30   C31   A    
C13   C14   A    
C40   C47   A    
C74   H41   S    
O12   V3    S    
C19   C24   A    
O3    C4    A    
C32   H12   S    
C24   C31   A    
C28   C29   A    
C38   C39   A    
O6    V2    S    
O9    V2    S    
C23   C24   A    
O22   C72   S    
C37   H17   S    
C9    C11   A    
C5    H2    S    
C22   C23   A    
O2    V1    S    
C46   H20   S    
C19   C20   A    
C32   C33   A    
C71   H34   S    
C23   C28   A    
C2    C60   S    
C26   C27   A    
C20   C21   A    
C42   O22   S    
O11   V4    S    
O1    C2    A    
C35   H16   S    
C45   C46   A    
O5    V1    S    
C54   H26   S    
O8    C3    A    
C33   C68   S    
O17   V3    S    
C27   C32   A    
C8    H5    S    
C73   H39   S    
C72   H37   S    
C18   H8    S    
O15   C67   A    
C30   H14   S    
C37   C38   A    
C57   C65   S    
C62   H28   S    
O7    V2    S    
O4    V1    S    
C26   H11   S    
O3    V1    S    
V1    O10   S    
C70   H32   S    
C59   C64   A    
C58   C59   A    
C42   C43   A    
O14   C66   A    
C1    C49   S    
C48   I1    S    
C36   C37   A    
C25   C26   A    
C44   C45   A    
C54   C55   A    
C15   H6    S    
C29   C30   A    
C16   H7    S    
C43   C48   A    
C9    C10   A    
O15   V3    S    
O21   C69   S    
C8    C9    A    
O14   V3    S    
O17   V4    S    
V2    O10   S    
C71   H35   S    
