data_mof_unit_27874.cif
_audit_creation_date              2012-12-11T15:07:39-0500
_audit_creation_method            fapswitch 2.2
_symmetry_space_group_name_H-M    P1
_symmetry_Int_Tables_number       1
_space_group_crystal_system       triclinic
_cell_length_a                    21.665116
_cell_length_b                    7.209245
_cell_length_c                    18.544052
_cell_angle_alpha                 90.010826
_cell_angle_beta                  95.901926
_cell_angle_gamma                 90.012624
_cell_volume                      2881.02653782

loop_
_atom_site_label
_atom_site_type_symbol
_atom_type_description
_atom_site_fract_x
_atom_site_fract_y
_atom_site_fract_z
_atom_type_partial_charge
O1    O     O_R   0.449650 0.506500 0.414480 -0.532960
O2    O     O_R   0.550350 0.006500 0.585520 -0.532947
O3    O     O_R   0.432010 0.173150 0.560250 -0.539722
O4    O     O_R   0.567990 0.673150 0.439750 -0.539709
C1    C     C_R   0.415785 0.344517 0.580458 0.684066
C2    C     C_R   0.584220 0.844525 0.419549 0.684012
O5    O     O_R   0.442320 0.176650 0.413480 -0.533411
O6    O     O_R   0.557680 0.676650 0.586520 -0.533373
O7    O     O_R   0.560730 0.008380 0.437700 -0.532589
O8    O     O_R   0.439270 0.508380 0.562300 -0.532636
C3    C     C_R   0.428449 0.344866 0.387560 0.680393
C4    C     C_R   0.571536 0.844925 0.612445 0.680455
O9    O     O_3   0.538840 0.339860 0.508120 -0.373427
O10   O     O_3   0.461160 0.839860 0.491880 -0.373485
V1    V     V_3+5 0.492800 0.064220 0.498490 1.441253
V2    V     V_3+5 0.507200 0.564220 0.501510 1.441239
C5    C     C_R   0.868669 0.018454 0.691714 -0.172279
C6    C     C_R   0.131525 0.521001 0.308099 -0.172556
H1    H     H_    0.956187 0.049623 0.755775 0.121030
H2    H     H_    0.044026 0.552211 0.244034 0.120998
H3    H     H_    0.786111 0.028358 0.576060 0.122439
H4    H     H_    0.214184 0.532181 0.423639 0.122445
H5    H     H_    0.887277 0.066087 0.642906 0.108143
H6    H     H_    0.113019 0.569840 0.356791 0.108286
C7    C     C_R   0.886162 0.945377 0.819596 -0.036926
C8    C     C_R   0.113836 0.445694 0.180421 -0.037068
C9    C     C_R   0.587228 0.796550 0.744297 -0.144238
C10   C     C_R   0.412603 0.294648 0.255821 -0.143950
C11   C     C_R   0.623929 0.785062 0.810173 -0.096127
C12   C     C_R   0.375838 0.282360 0.190014 -0.096283
C13   C     C_R   0.687272 0.822988 0.814501 -0.158719
C14   C     C_R   0.312549 0.320971 0.185653 -0.158715
C15   C     C_R   0.715878 0.875142 0.752347 0.073989
C16   C     C_R   0.284067 0.374671 0.247698 0.074034
C17   C     C_R   0.677490 0.890223 0.684784 0.070941
C18   C     C_R   0.322531 0.390632 0.315180 0.070951
C19   C     C_R   0.781138 0.913483 0.755096 0.074613
C20   C     C_R   0.218855 0.413682 0.244916 0.074589
C21   C     C_R   0.805696 0.971760 0.690599 0.145326
C22   C     C_R   0.194430 0.473534 0.309278 0.145397
C23   C     C_R   0.767304 0.985160 0.625367 -0.202866
C24   C     C_R   0.232892 0.487770 0.374432 -0.202898
C25   C     C_R   0.704426 0.943811 0.622278 -0.193530
C26   C     C_R   0.295714 0.445740 0.377569 -0.193783
C27   C     C_R   0.823071 0.898082 0.819412 -0.212041
C28   C     C_R   0.176851 0.397507 0.180684 -0.212138
C29   C     C_R   0.908168 0.007867 0.755761 -0.172522
C30   C     C_R   0.091973 0.509734 0.244115 -0.172460
C31   C     C_R   0.612915 0.849197 0.681241 -0.091916
C32   C     C_R   0.387049 0.348857 0.318769 -0.092030
H7    H     H_    0.808120 0.853929 0.870346 0.097110
H8    H     H_    0.191703 0.352190 0.129852 0.097259
H9    H     H_    0.538300 0.763158 0.742380 0.140292
H10   H     H_    0.461476 0.260591 0.257778 0.140200
H11   H     H_    0.712492 0.810800 0.867437 0.116135
H12   H     H_    0.287270 0.308047 0.132777 0.116095
H13   H     H_    0.603123 0.744820 0.858467 0.145707
H14   H     H_    0.396546 0.240891 0.141808 0.145623
H15   H     H_    0.676881 0.955921 0.570359 0.109249
H16   H     H_    0.323314 0.458539 0.429426 0.109613
C33   C     C_R   0.640572 0.718944 0.318117 -0.150652
C34   C     C_R   0.359439 0.218977 0.681903 -0.150686
C35   C     C_R   0.634545 0.855572 0.371034 -0.099672
C36   C     C_R   0.365469 0.355556 0.628982 -0.099623
C37   C     C_R   0.676008 0.005951 0.376599 -0.170898
C38   C     C_R   0.324016 0.505894 0.623420 -0.170858
C39   C     C_R   0.722956 0.021021 0.330104 0.136649
C40   C     C_R   0.277077 0.520979 0.669923 0.136689
C41   C     C_R   0.727778 0.886958 0.275646 0.003341
C42   C     C_R   0.272246 0.386966 0.724379 0.003359
C43   C     C_R   0.686411 0.733880 0.269494 0.004873
C44   C     C_R   0.313601 0.233920 0.730527 0.004907
C45   C     C_R   0.766097 0.165998 0.338777 -0.190692
C46   C     C_R   0.233945 0.665899 0.661246 -0.190557
C47   C     C_R   0.814309 0.181301 0.293874 -0.007784
C48   C     C_R   0.185727 0.681184 0.706136 -0.007743
C49   C     C_R   0.817152 0.054689 0.235585 0.075832
C50   C     C_R   0.182870 0.554638 0.764425 0.075862
C51   C     C_R   0.774453 0.904938 0.227914 0.044909
C52   C     C_R   0.225567 0.404948 0.772106 0.044927
C53   C     C_R   0.779141 0.770524 0.173397 0.037144
C54   C     C_R   0.220865 0.270576 0.826618 0.037106
C55   C     C_R   0.738262 0.619169 0.167711 -0.221063
C56   C     C_R   0.261733 0.119247 0.832300 -0.221082
C57   C     C_R   0.692454 0.599429 0.215191 0.378195
C58   C     C_R   0.307542 0.099497 0.784822 0.378193
C59   C     C_R   0.861438 0.072827 0.184947 -0.213915
C60   C     C_R   0.138565 0.572767 0.815040 -0.213882
C61   C     C_R   0.866206 0.938918 0.130664 -0.078244
C62   C     C_R   0.133796 0.438930 0.869334 -0.078229
C63   C     C_R   0.825284 0.787199 0.125968 -0.171099
C64   C     C_R   0.174718 0.287263 0.874042 -0.171110
H17   H     H_    0.608321 0.603859 0.314178 0.179621
H18   H     H_    0.391685 0.103924 0.685839 0.179564
H19   H     H_    0.672301 0.110220 0.418100 0.119296
H20   H     H_    0.327723 0.610115 0.581915 0.119195
H21   H     H_    0.763707 0.263973 0.382812 0.119151
H22   H     H_    0.236335 0.763808 0.617204 0.119110
H23   H     H_    0.893150 0.189231 0.187996 0.135285
H24   H     H_    0.106843 0.689110 0.811963 0.135227
H25   H     H_    0.828940 0.682573 0.084598 0.123319
H26   H     H_    0.171056 0.182678 0.915413 0.123300
H27   H     H_    0.742293 0.514324 0.126548 0.166679
H28   H     H_    0.257689 0.014424 0.873457 0.166677
O11   O     O_R   0.060820 0.290050 0.937800 -0.538185
O12   O     O_R   0.939180 0.790050 0.062200 -0.538180
O13   O     O_R   0.057690 0.616620 0.086540 -0.534520
O14   O     O_R   0.942310 0.116620 0.913460 -0.534493
C65   C     C_R   0.071712 0.449059 0.112461 0.686582
C66   C     C_R   0.928283 0.948999 0.887550 0.686561
O15   O     O_R   0.068010 0.619890 0.939770 -0.537858
O16   O     O_R   0.931990 0.119890 0.060230 -0.537870
O17   O     O_R   0.949640 0.787940 0.914460 -0.534619
O18   O     O_R   0.050360 0.287940 0.085540 -0.534639
C67   C     C_R   0.084255 0.451092 0.918993 0.690268
C68   C     C_R   0.915744 0.951086 0.081003 0.690183
O19   O     O_3   0.961210 0.453080 0.991940 -0.373694
O20   O     O_3   0.038790 0.953080 0.008060 -0.373720
V3    V     V_3+5 0.007200 0.728820 0.001500 1.419755
V4    V     V_3+5 0.992800 0.228820 0.998500 1.419718
C69   C     C_R   0.863562 0.320814 0.313731 0.091192
C70   C     C_R   0.848221 0.507958 0.323073 -0.112722
C71   C     C_R   0.894369 0.637797 0.344756 -0.113456
C72   C     C_R   0.956044 0.580880 0.359151 -0.110734
C73   C     C_R   0.971537 0.394033 0.352028 -0.125870
C74   C     C_R   0.925620 0.264435 0.329324 -0.149313
H29   H     H_    0.800524 0.552670 0.314209 0.114143
H30   H     H_    0.882192 0.782033 0.351215 0.109574
H31   H     H_    0.991722 0.681148 0.376450 0.103601
H32   H     H_    0.019098 0.349184 0.364386 0.117692
H33   H     H_    0.938266 0.119805 0.324900 0.105816
C75   C     C_R   0.136454 0.820458 0.686210 0.091138
C76   C     C_R   0.151749 0.007637 0.676864 -0.112770
C77   C     C_R   0.105592 0.137191 0.655027 -0.113520
C78   C     C_R   0.043962 0.079942 0.640474 -0.110734
C79   C     C_R   0.028523 0.893046 0.647600 -0.126026
C80   C     C_R   0.074442 0.763752 0.670481 -0.149226
H34   H     H_    0.199420 0.052581 0.685831 0.114177
H35   H     H_    0.117730 0.281458 0.648559 0.109576
H36   H     H_    0.008279 0.179994 0.623052 0.103726
H37   H     H_    0.981004 0.847918 0.635107 0.117535
H38   H     H_    0.061841 0.619089 0.674912 0.105870
Cl1   Cl    Cl    0.644633 0.401232 0.205241 -0.665020
Cl2   Cl    Cl    0.355343 0.901319 0.794763 -0.665132

loop_
_geom_bond_atom_site_label_1
_geom_bond_atom_site_label_2
_ccdc_geom_bond_type
C38   C40   A    
C80   H38   S    
C35   C37   A    
O12   V3    S    
C9    C11   A    
C45   C47   A    
O14   V4    S    
O1    C3    A    
O2    C4    A    
C57   Cl1   S    
C2    O7    A    
C4    C31   S    
O3    V1    S    
C71   C72   A    
C46   H22   S    
H4    C24   S    
C45   H21   S    
C5    H5    S    
C55   H27   S    
C6    H6    S    
O15   V3    S    
C56   C58   A    
H1    C29   S    
C27   H7    S    
C40   C46   A    
C28   H8    S    
C54   C64   A    
C41   C43   A    
C5    C21   A    
C70   H29   S    
C33   C35   A    
C6    C22   A    
O20   V3    S    
C34   C36   A    
O17   V3    S    
C10   C32   A    
C73   H32   S    
C75   C76   A    
C37   C39   A    
C17   C31   A    
C13   C15   A    
O11   V4    S    
C39   C45   A    
C61   C63   A    
C17   C25   A    
C7    C29   A    
C16   C18   A    
C25   H15   S    
C33   C43   A    
C22   C24   A    
C61   C68   S    
C76   H34   S    
O6    V2    S    
C43   C57   A    
O13   C65   A    
C24   C26   A    
C63   H25   S    
O13   V3    S    
C53   C55   A    
C59   H23   S    
C49   C51   A    
C78   H36   S    
C19   C21   A    
C42   C44   A    
C11   H13   S    
C38   H20   S    
C42   C52   A    
C12   C14   A    
C78   C79   A    
C8    C30   A    
C52   C54   A    
O19   V4    S    
C77   H35   S    
C51   C53   A    
C10   H10   S    
C16   C20   A    
C75   C80   A    
C15   C19   A    
C1    C36   S    
O12   C68   A    
C39   C41   A    
C36   C38   A    
C2    C35   S    
O4    V2    S    
O5    C3    A    
C79   H37   S    
C62   C64   A    
C66   O17   A    
C37   H19   S    
O6    C4    A    
C34   C44   A    
O1    V2    S    
C60   H24   S    
C62   C67   S    
O2    V1    S    
C47   C49   A    
C8    C65   S    
C49   C59   A    
C69   C70   A    
H2    C30   S    
C46   C48   A    
C7    C66   S    
H3    C23   S    
C65   O18   A    
O4    C2    A    
C55   C57   A    
C60   C62   A    
C54   C56   A    
C34   H18   S    
C73   C74   A    
C56   H28   S    
C41   C51   A    
C19   C27   A    
C7    C27   A    
O16   C68   A    
C18   C32   A    
O16   V4    S    
C50   C60   A    
C47   C69   S    
O11   C67   A    
C23   C25   A    
C5    C29   A    
C48   C50   A    
C79   C80   A    
O3    C1    A    
C6    C30   A    
C44   C58   A    
C9    H9    S    
C77   C78   A    
C64   H26   S    
C10   C12   A    
O7    V1    S    
C69   C74   A    
C11   C13   A    
C3    C32   S    
O8    V2    S    
C20   C22   A    
C48   C75   S    
C71   H30   S    
C76   C77   A    
C74   H33   S    
C26   H16   S    
C12   H14   S    
O5    V1    S    
C15   C17   A    
O14   C66   A    
C72   H31   S    
C58   Cl2   S    
C50   C52   A    
C20   C28   A    
C18   C26   A    
C8    C28   A    
C53   C63   A    
C1    O8    A    
C21   C23   A    
C40   C42   A    
O9    V2    S    
C59   C61   A    
O10   V1    S    
O15   C67   A    
C13   H11   S    
C70   C71   A    
C33   H17   S    
C14   H12   S    
O18   V4    S    
C9    C31   A    
C14   C16   A    
C72   C73   A    
