data_mof_unit_52587.cif
_audit_creation_date              2012-12-10T16:52:08-0500
_audit_creation_method            fapswitch 2.2
_symmetry_space_group_name_H-M    P1
_symmetry_Int_Tables_number       1
_space_group_crystal_system       triclinic
_cell_length_a                    7.884225
_cell_length_b                    8.631666
_cell_length_c                    14.899367
_cell_angle_alpha                 92.660355
_cell_angle_beta                  85.154404
_cell_angle_gamma                 94.083453
_cell_volume                      1006.93976997

loop_
_atom_site_label
_atom_site_type_symbol
_atom_type_description
_atom_site_fract_x
_atom_site_fract_y
_atom_site_fract_z
_atom_type_partial_charge
C1    C     C_R   0.545228 0.794009 0.500071 0.864862
C2    C     C_R   0.528566 0.648686 0.816686 0.301496
C3    C     C_R   0.500954 0.495609 0.231565 -0.282822
C4    C     C_R   0.498541 0.507824 0.767993 -0.286988
C5    C     C_R   0.572813 0.625376 0.186788 0.469045
C6    C     C_R   0.450691 0.369341 0.810531 0.480794
C7    C     C_R   0.560012 0.632850 0.095052 0.012934
C8    C     C_R   0.445786 0.366393 0.903593 -0.001006
C9    C     C_R   0.498849 0.499222 0.046410 -0.024857
C10   C     C_R   0.495102 0.503232 0.953113 -0.024977
C11   C     C_R   0.441722 0.361733 0.091031 0.026633
C12   C     C_R   0.454943 0.206401 0.505074 0.888918
C13   C     C_R   0.536385 0.645063 0.909752 0.041508
C14   C     C_R   0.603677 0.772059 0.051620 -0.170614
C15   C     C_R   0.392473 0.229627 0.947918 -0.169858
C16   C     C_3   0.492591 0.137623 0.248929 0.048888
C17   C     C_3   0.407453 0.989834 0.288435 -0.728090
C18   C     C_3   0.686674 0.843040 0.742814 -0.000618
C19   C     C_3   0.692078 0.017144 0.730752 -0.641587
C20   C     C_3   0.938312 0.288024 0.356932 0.226062
C21   C     C_3   0.979153 0.122764 0.326778 -0.729093
C22   C     C_3   0.056122 0.699264 0.648435 0.251595
C23   C     C_R   0.585437 0.779713 0.960206 -0.190296
C24   C     C_3   0.017025 0.580927 0.722153 -0.870952
C25   C     C_R   0.387212 0.228124 0.041229 -0.197409
C26   C     C_2   0.568913 0.957320 0.503651 0.250435
C27   C     C_2   0.431577 0.043934 0.511835 0.278267
C28   C     C_R   0.500968 0.505585 0.672465 0.976120
C29   C     C_R   0.499410 0.498372 0.327395 0.977886
C30   C     C_R   0.439153 0.361733 0.184790 0.321590
F1    F     F_    0.655671 0.743159 0.232590 -0.698774
F2    F     F_    0.401200 0.240104 0.761088 -0.685925
F3    F     F_    0.733595 0.018269 0.497439 -0.644624
F4    F     F_    0.266934 0.983407 0.523410 -0.644100
H1    H     H_    0.647396 0.876219 0.088607 0.182991
H2    H     H_    0.716710 0.785394 0.675946 0.202457
H3    H     H_    0.785656 0.822554 0.789336 0.137531
H4    H     H_    0.667556 0.078881 0.797113 0.243083
H5    H     H_    0.819652 0.058761 0.700326 0.231604
H6    H     H_    0.594272 0.043780 0.685625 0.289420
H7    H     H_    0.967223 0.366895 0.299899 0.129012
H8    H     H_    0.802179 0.279962 0.375003 0.185120
H9    H     H_    0.009538 0.056492 0.384818 0.330879
H10   H     H_    0.867921 0.061164 0.296348 0.213750
H11   H     H_    0.086236 0.124092 0.274303 0.267549
H12   H     H_    0.353318 0.124069 0.910731 0.211295
H13   H     H_    0.013898 0.813172 0.675105 0.138847
H14   H     H_    0.193468 0.723554 0.632447 0.216347
H15   H     H_    0.879402 0.573800 0.744751 0.229387
H16   H     H_    0.050426 0.463116 0.696958 0.289471
H17   H     H_    0.090935 0.616410 0.780816 0.231286
H18   H     H_    0.615244 0.890187 0.929051 0.177370
H19   H     H_    0.342995 0.121474 0.073910 0.185457
H20   H     H_    0.574460 0.194441 0.299320 0.127687
H21   H     H_    0.573680 0.105817 0.186842 0.148696
H22   H     H_    0.347997 0.915399 0.235236 0.249505
H23   H     H_    0.502746 0.925987 0.319260 0.252015
H24   H     H_    0.308458 0.018412 0.342559 0.268043
N1    N     N_2   0.950330 0.457950 0.475660 0.173959
N2    N     N_2   0.049670 0.542050 0.524340 0.186325
O1    O     O_R   0.389250 0.738570 0.505970 -0.619473
O2    O     O_3   0.521709 0.789611 0.776464 -0.607007
O3    O     O_3   0.031141 0.341397 0.430205 -0.494425
O4    O     O_3   0.968291 0.655356 0.571959 -0.520339
O5    O     O_R   0.610750 0.261430 0.494030 -0.626979
O6    O     O_R   0.678390 0.711620 0.490370 -0.536669
O7    O     O_R   0.321610 0.288380 0.509630 -0.526501
O8    O     O_R   0.355420 0.513510 0.639950 -0.646179
O9    O     O_R   0.644580 0.486490 0.360050 -0.676011
O10   O     O_R   0.644560 0.486560 0.624350 -0.616074
O11   O     O_R   0.355440 0.513440 0.375650 -0.582331
O12   O     O_3   0.365184 0.235716 0.230894 -0.624329
Zn1   Zn    Zn3+2 0.306940 0.517990 0.510420 1.087595
Zn2   Zn    Zn3+2 0.693060 0.482010 0.489580 1.065198

loop_
_geom_bond_atom_site_label_1
_geom_bond_atom_site_label_2
_ccdc_geom_bond_type
C14   C23   A    
O10   Zn2   S    
C3    C30   A    
C6    F2    S    
O7    Zn1   S    
C19   H4    S    
C21   H10   S    
C5    C7    A    
C9    C10   A    
C26   F3    S    
C22   H14   S    
C16   O12   S    
C17   H24   S    
N2    O4    S    
O1    Zn1   S    
C24   H17   S    
C20   H7    S    
C26   C27   D    
C16   H21   S    
N1    N2    D    
C20   H8    S    
C9    C11   A    
C17   H22   S    
C23   H18   S    
C16   C17   S    
C19   H5    S    
C20   O3    S    
C2    C4    A    
C22   C24   S    
C8    C10   A    
C28   O8    A    
C18   H3    S    
C25   H19   S    
C22   H13   S    
C8    C15   A    
C21   H11   S    
C27   F4    S    
C24   H16   S    
C1    C26   S    
C12   O7    A    
C16   H20   S    
N1    O3    S    
C15   C25   A    
C19   H6    S    
C11   C25   A    
C12   C27   S    
N1    Zn2   S    
O6    Zn2   S    
C29   O11   A    
C7    C9    A    
N2    Zn1   S    
O9    Zn2   S    
C2    C13   A    
C1    O1    A    
C20   C21   S    
C13   C23   A    
C4    C6    A    
C18   C19   S    
C12   O5    A    
O11   Zn1   S    
C24   H15   S    
C3    C29   S    
C29   O9    A    
C4    C28   S    
C18   O2    S    
C6    C8    A    
C22   O4    S    
C5    F1    S    
O8    Zn1   S    
C21   H9    S    
C15   H12   S    
C18   H2    S    
C14   H1    S    
C7    C14   A    
C28   O10   A    
O5    Zn2   S    
C2    O2    S    
C11   C30   A    
C17   H23   S    
C30   O12   S    
C3    C5    A    
C10   C13   A    
C1    O6    A    
