data_mof_unit_41363.cif
_audit_creation_date              2013-03-05T15:44:33-0500
_audit_creation_method            fapswitch 2.2
_symmetry_space_group_name_H-M    P1
_symmetry_Int_Tables_number       1
_space_group_crystal_system       triclinic
_cell_length_a                    27.809813
_cell_length_b                    10.912268
_cell_length_c                    9.723978
_cell_angle_alpha                 91.010856
_cell_angle_beta                  90.809866
_cell_angle_gamma                 90.189474
_cell_volume                      2950.14479265

loop_
_atom_site_label
_atom_site_type_symbol
_atom_site_description
_atom_site_fract_x
_atom_site_fract_y
_atom_site_fract_z
_atom_type_partial_charge
O1    O     O_R   0.500010 0.321960 0.617040 -0.584502
O2    O     O_R   0.499990 0.321920 0.382900 -0.514957
C1    C     C_R   0.499480 0.265347 0.498528 0.866359
O3    O     O_R   0.430270 0.500040 0.617060 -0.595478
O4    O     O_R   0.430260 0.500000 0.382910 -0.544651
C2    C     C_R   0.407495 0.501783 0.499158 0.842107
Cu1   Cu    Cu3+1 0.500010 0.500020 0.638630 0.933724
Cu2   Cu    Cu3+1 0.499990 0.499980 0.361370 0.995097
O5    O     O_R   0.500010 0.678080 0.617100 -0.581002
O6    O     O_R   0.499990 0.678040 0.382960 -0.586129
O7    O     O_R   0.569740 0.500000 0.617090 -0.598039
O8    O     O_R   0.569730 0.499960 0.382940 -0.531348
C3    C     C_R   0.503012 0.734320 0.501333 0.841571
C4    C     C_R   0.592473 0.498516 0.500981 0.830663
C5    C     C_R   0.177418 0.410006 0.458105 0.560389
O9    O     O_2   0.201740 0.310850 0.412397 -0.560600
N1    N     N_R   0.201976 0.512225 0.502026 -0.440900
C6    C     C_R   0.178710 0.615572 0.546037 0.617235
C7    C     C_R   0.277836 0.547323 0.384709 -0.270525
C8    C     C_R   0.328100 0.546949 0.382371 0.473835
C9    C     C_R   0.329538 0.470533 0.615992 -0.382636
C10   C     C_R   0.279122 0.470610 0.617579 0.548272
C11   C     C_R   0.253473 0.510809 0.501839 0.204403
C12   C     C_R   0.102070 0.511776 0.508645 -0.110027
C13   C     C_R   0.127104 0.407587 0.460906 0.011848
C14   C     C_R   0.101402 0.304393 0.413921 -0.163731
C15   C     C_R   0.127963 0.618470 0.549136 -0.142693
C16   C     C_R   0.354424 0.505766 0.498089 -0.201521
H1    H     H_    0.349174 0.442481 0.707027 0.185011
H2    H     H_    0.119639 0.225633 0.370050 0.177538
C17   C     C_R   0.645620 0.498111 0.503159 -0.156324
C18   C     C_R   0.975446 0.392192 0.503624 0.021002
C19   C     C_R   0.974756 0.616651 0.540820 0.084569
C20   C     C_R   0.949817 0.503898 0.519469 0.032283
C21   C     C_R   0.949131 0.279673 0.509587 0.169390
C22   C     C_R   0.898927 0.281251 0.499120 -0.147901
C23   C     C_R   0.873601 0.391643 0.499206 -0.071350
C24   C     C_R   0.898828 0.502955 0.514545 -0.053480
C25   C     C_R   0.872958 0.613408 0.524911 -0.010820
C26   C     C_R   0.822491 0.610345 0.519557 0.546994
N2    N     N_R   0.798595 0.501070 0.502715 -0.446072
C27   C     C_R   0.823134 0.392801 0.491555 0.557979
C28   C     C_R   0.722340 0.435954 0.603058 -0.103417
C29   C     C_R   0.672000 0.432902 0.604268 0.062149
C30   C     C_R   0.670718 0.563673 0.402190 0.415818
C31   C     C_R   0.720962 0.561815 0.400911 -0.184269
C32   C     C_R   0.746883 0.499517 0.501891 0.235667
O10   O     O_2   0.798761 0.286509 0.472725 -0.540596
C33   C     C_R   0.025897 0.398639 0.482685 0.068701
C34   C     C_R   0.051107 0.509024 0.514630 0.072145
C35   C     C_R   0.025720 0.616646 0.550769 -0.027375
C36   C     C_R   0.051612 0.301144 0.421938 -0.218454
H3    H     H_    0.742894 0.388201 0.680868 0.161685
H4    H     H_    0.879502 0.194895 0.498502 0.193344
H5    H     H_    0.033559 0.222576 0.376095 0.164941
O11   O     O_2   0.204814 0.714524 0.586509 -0.479849
C37   C     C_R   0.102464 0.724072 0.590982 0.521419
H6    H     H_    0.257632 0.577120 0.295373 0.179565
C38   C     C_R   0.947793 0.726125 0.548880 -0.206340
C39   C     C_R   0.897874 0.724278 0.541112 -0.148214
O12   O     O_2   0.797491 0.715579 0.533121 -0.547780
C40   C     C_R   0.052192 0.721269 0.593849 -0.295258
H7    H     H_    0.964397 0.815475 0.556713 0.138719
H8    H     H_    0.878867 0.810661 0.547470 0.186781
H9    H     H_    0.739893 0.609977 0.321516 0.173533
H10   H     H_    0.034778 0.801977 0.634563 0.158072
C41   C     C_2   0.503512 0.931233 0.394093 -0.290822
C42   C     C_2   0.514720 0.864207 0.504897 -0.017966
H11   H     H_    0.486465 0.888264 0.304164 0.152153
C43   C     C_2   0.511261 0.064467 0.388192 0.533145
C44   C     C_2   0.496054 0.133076 0.495132 -0.408540
H12   H     H_    0.480664 0.090634 0.584717 0.137159
C45   C     C_2   0.462409 0.477523 0.923055 0.035749
N3    N     N_2   0.499480 0.498660 0.846910 -0.140193
H13   H     H_    0.429710 0.443046 0.874065 0.126855
C46   C     C_2   0.461212 0.500417 0.076076 -0.090264
N4    N     N_2   0.499460 0.498630 0.153040 -0.284238
H14   H     H_    0.426624 0.515777 0.122639 0.207845
H15   H     H_    0.529344 0.458231 0.111478 0.234162
O13   O     O_3   0.126462 0.828479 0.637580 -0.530123
C47   C     C_3   0.122335 0.919684 0.536983 -0.240195
H16   H     H_    0.084709 0.952975 0.527026 0.130729
H17   H     H_    0.135571 0.886476 0.435392 0.159074
H18   H     H_    0.145019 0.999143 0.569506 0.202690
O14   O     O_3   0.646295 0.625785 0.300261 -0.563167
C48   C     C_3   0.640318 0.748419 0.344543 -0.283149
H19   H     H_    0.675619 0.795824 0.357879 0.175514
H20   H     H_    0.619543 0.754467 0.441447 0.144732
H21   H     H_    0.619522 0.797332 0.264473 0.180297
C49   C     C_3   0.544293 0.912350 0.626618 -0.871456
H22   H     H_    0.571116 0.842599 0.657991 0.222502
H23   H     H_    0.565149 0.995800 0.602074 0.237794
H24   H     H_    0.520464 0.931426 0.715031 0.242102
O15   O     O_3   0.527761 0.120375 0.269782 -0.550429
C50   C     C_3   0.562683 0.047949 0.203272 -0.298405
H25   H     H_    0.545789 0.967814 0.149278 0.158437
H26   H     H_    0.591304 0.018021 0.276443 0.152833
H27   H     H_    0.580199 0.104187 0.124209 0.191540
O16   O     O_3   0.254402 0.440148 0.734742 -0.560630
C51   C     C_3   0.259662 0.313674 0.758154 -0.270983
H28   H     H_    0.296782 0.291880 0.793568 0.153381
H29   H     H_    0.249781 0.257446 0.665208 0.184119
H30   H     H_    0.234882 0.287508 0.841161 0.201099
C52   C     C_3   0.537726 0.580179 0.898120 -0.475936
H31   H     H_    0.551356 0.636346 0.813732 0.224698
H32   H     H_    0.525247 0.648089 0.976167 0.171253
H33   H     H_    0.568804 0.526119 0.935632 0.163296
C53   C     C_3   0.647759 0.356346 0.711055 -0.776649
H34   H     H_    0.674057 0.300406 0.769520 0.221433
H35   H     H_    0.629148 0.416563 0.786199 0.244532
H36   H     H_    0.621550 0.292299 0.660720 0.228744
C54   C     C_3   0.971311 0.158639 0.549045 -0.904802
H37   H     H_    0.948612 0.112718 0.626094 0.238356
H38   H     H_    0.973624 0.096906 0.457412 0.227329
H39   H     H_    0.007096 0.170538 0.599348 0.247344
O17   O     O_3   0.351008 0.583673 0.264854 -0.574785
C55   C     C_3   0.357630 0.711779 0.272857 -0.288830
H40   H     H_    0.380224 0.739142 0.363833 0.148372
H41   H     H_    0.322550 0.760563 0.275112 0.171499
H42   H     H_    0.376827 0.741153 0.179718 0.184222

loop_
_geom_bond_atom_site_label_1
_geom_bond_atom_site_label_2
_geom_bond_distance
_ccdc_geom_bond_type
N2    C27   1.369764 A    
C30   O14   1.382322 S    
C21   C22   1.398626 A    
C12   C15   1.413978 A    
C4    C17   1.477872 S    
C54   H38   1.110233 S    
C47   H16   1.112256 S    
C50   H27   1.109164 S    
C37   C40   1.398979 A    
O14   C48   1.409620 S    
O17   C55   1.410043 S    
Cu1   O7    1.953396 S    
N1    C11   1.432263 S    
C22   C23   1.397417 A    
C43   O15   1.395136 S    
C46   H14   1.081213 S    
C55   H41   1.113194 S    
O4    C2    1.303274 A    
O7    C4    1.301640 A    
C48   H20   1.113340 S    
C5    C13   1.400041 A    
C5    O9    1.349876 S    
C53   H34   1.110927 S    
N1    C6    1.367199 A    
C45   N3    1.300107 D    
C23   C27   1.404505 A    
O5    C3    1.295197 A    
C54   H37   1.111514 S    
C28   H3    1.083703 S    
C2    C16   1.476582 S    
C50   H25   1.111384 S    
C42   C49   1.516898 S    
C43   C44   1.344530 D    
C36   H5    1.078507 S    
C6    O11   1.348908 S    
N4    H15   1.026637 S    
C38   C39   1.389288 A    
C19   C38   1.414131 A    
O1    Cu1   1.950662 S    
C9    C10   1.402360 A    
C45   H13   1.083776 S    
C37   O13   1.384547 S    
C35   C40   1.410564 A    
O3    Cu1   1.947819 S    
C52   H32   1.111249 S    
C52   H31   1.103502 S    
C47   H17   1.114100 S    
C34   C35   1.413899 A    
Cu1   N3    2.025887 S    
C29   C53   1.509073 S    
C7    H6    1.083273 S    
C12   C34   1.419514 A    
C17   C29   1.420906 A    
C40   H10   1.078353 S    
C41   C42   1.346418 D    
C18   C21   1.429766 A    
Cu1   Cu2   2.696055 S    
C12   C13   1.410169 A    
C31   H9    1.083228 S    
O3    C2    1.302399 A    
C15   C37   1.411871 A    
C55   H42   1.109421 S    
C25   C26   1.403993 A    
C8    O17   1.381065 S    
C48   H19   1.113038 S    
C8    C16   1.414477 A    
C13   C14   1.398200 A    
C30   C31   1.397724 A    
C9    H1    1.082827 S    
O6    C3    1.296592 A    
C51   H30   1.109280 S    
C26   O12   1.349802 S    
O1    C1    1.297787 A    
C18   C20   1.421207 A    
C1    C44   1.445972 S    
C28   C29   1.400450 A    
C23   C24   1.405293 A    
C14   C36   1.388311 A    
C49   H23   1.109375 S    
O16   C51   1.410472 S    
Cu2   O8    1.947814 S    
C33   C36   1.409615 A    
C51   H29   1.114064 S    
C19   C20   1.421009 A    
N2    C32   1.438066 S    
C27   O10   1.349851 S    
C46   N4    1.292294 D    
C26   N2    1.369346 A    
C9    C16   1.406199 A    
O8    C4    1.303064 A    
C14   H2    1.083476 S    
Cu2   N4    2.025435 S    
C45   C46   1.505300 S    
C47   H18   1.109441 S    
C7    C11   1.396830 A    
C49   H24   1.110088 S    
N3    C52   1.460709 S    
C5    N1    1.364903 A    
C31   C32   1.397404 A    
C10   O16   1.383870 S    
C20   C24   1.418129 A    
O2    Cu2   1.957955 S    
C6    C15   1.412470 A    
O13   C47   1.411569 S    
C48   H21   1.108861 S    
O4    Cu2   1.953399 S    
C50   H26   1.113711 S    
C19   C35   1.419224 A    
C38   H7    1.078458 S    
C53   H36   1.110744 S    
C39   H8    1.083495 S    
C41   C43   1.471305 S    
C7    C8    1.398346 A    
O2    C1    1.292435 A    
C44   H12   1.086267 S    
C55   H40   1.113687 S    
C49   H22   1.111001 S    
C24   C25   1.408524 A    
C25   C39   1.397597 A    
C51   H28   1.111421 S    
C53   H35   1.108866 S    
C54   H39   1.108889 S    
O15   C50   1.410968 S    
C18   C33   1.422280 A    
C22   H4    1.084534 S    
Cu1   O5    1.957955 S    
Cu2   O6    1.950661 S    
C33   C34   1.419165 A    
C17   C30   1.415567 A    
C10   C11   1.401671 A    
C41   H11   1.087042 S    
C28   C32   1.398075 A    
C52   H33   1.109092 S    
C21   C54   1.512829 S    
C3    C42   1.452935 S    
