data_mof_unit_55657.cif
_audit_creation_date              2012-12-10T17:02:28-0500
_audit_creation_method            fapswitch 2.2
_symmetry_space_group_name_H-M    P1
_symmetry_Int_Tables_number       1
_space_group_crystal_system       triclinic
_cell_length_a                    10.784364
_cell_length_b                    11.014468
_cell_length_c                    9.957223
_cell_angle_alpha                 110.858042
_cell_angle_beta                  100.321998
_cell_angle_gamma                 91.687038
_cell_volume                      1081.75402215

loop_
_atom_site_label
_atom_site_type_symbol
_atom_type_description
_atom_site_fract_x
_atom_site_fract_y
_atom_site_fract_z
_atom_type_partial_charge
C1    C     C_R   0.490222 0.254304 0.440804 0.906586
C2    C     C_R   0.509776 0.745696 0.559196 0.906581
C3    C     C_2   0.486193 0.114869 0.407781 -0.233533
C4    C     C_2   0.513798 0.885130 0.592219 -0.233526
C5    C     C_2   0.502519 0.069591 0.516400 -0.109528
C6    C     C_2   0.497435 0.930408 0.483602 -0.109534
C7    C     C_2   0.511608 0.511524 0.081421 0.207417
C8    C     C_2   0.488391 0.488477 0.918579 0.207415
C9    C     C_R   0.262530 0.512489 0.500099 0.852563
C10   C     C_R   0.737471 0.487512 0.499901 0.852563
C11   C     C_R   0.158061 0.681814 0.755670 0.301902
C12   C     C_R   0.841938 0.318192 0.244328 0.301903
C13   C     C_R   0.126188 0.710404 0.893728 0.146269
C14   C     C_R   0.873809 0.289606 0.106269 0.146268
C15   C     C_R   0.018047 0.644384 0.904568 0.349043
C16   C     C_R   0.981951 0.355626 0.095432 0.349045
C17   C     C_R   0.938058 0.558773 0.777908 -0.163191
C18   C     C_R   0.061942 0.441233 0.222093 -0.163193
C19   C     C_R   0.963856 0.536427 0.637119 -0.033515
C20   C     C_R   0.036144 0.463577 0.362881 -0.033517
C21   C     C_R   0.084402 0.582272 0.629392 -0.029961
C22   C     C_R   0.915598 0.417732 0.370608 -0.029962
C23   C     C_R   0.873884 0.470236 0.504493 -0.061700
C24   C     C_R   0.126116 0.529766 0.495507 -0.061699
Cu1   Cu    Cu3+1 0.521920 0.521810 0.644910 1.041812
Cu2   Cu    Cu3+1 0.478080 0.478190 0.355090 1.041811
H1    H     H_    0.859340 0.505856 0.793195 0.227122
H2    H     H_    0.140660 0.494150 0.206807 0.227119
H3    H     H_    0.479992 0.864672 0.369419 0.205000
H4    H     H_    0.519939 0.135328 0.630587 0.205001
H5    H     H_    0.529307 0.951116 0.706086 0.196888
H6    H     H_    0.470710 0.048881 0.293910 0.196894
H7    H     H_    0.626135 0.624825 0.929967 0.235183
H8    H     H_    0.373867 0.375172 0.070033 0.235184
N1    N     N_2   0.445130 0.445420 0.137360 -0.290957
N2    N     N_2   0.554870 0.554580 0.862640 -0.290955
O1    O     O_R   0.511700 0.332340 0.577400 -0.575197
O2    O     O_R   0.488300 0.667660 0.422600 -0.575198
O3    O     O_R   0.474680 0.295500 0.332650 -0.531867
O4    O     O_R   0.525320 0.704500 0.667350 -0.531868
O5    O     O_R   0.338170 0.518410 0.622370 -0.534568
O6    O     O_R   0.661830 0.481590 0.377630 -0.534567
O7    O     O_R   0.301150 0.481570 0.377630 -0.603674
O8    O     O_R   0.698850 0.518430 0.622370 -0.603673
Cl1   Cl    Cl    0.025449 0.326564 0.925420 -0.546390
Cl2   Cl    Cl    0.974549 0.673449 0.074580 -0.546389
Cl3   Cl    Cl    0.271417 0.790552 0.737382 -0.561959
Cl4   Cl    Cl    0.728583 0.209451 0.262613 -0.561956
I1    I     I_    0.241459 0.851538 0.086029 -0.174261
I2    I     I_    0.758530 0.148483 0.913964 -0.174263
I3    I     I_    0.338359 0.339096 0.783276 -0.219490
I4    I     I_    0.661636 0.660908 0.216725 -0.219479

loop_
_geom_bond_atom_site_label_1
_geom_bond_atom_site_label_2
_ccdc_geom_bond_type
C16   Cl1   S    
Cu2   O7    S    
C19   C23   A    
C9    C24   S    
C2    O4    A    
C10   C23   S    
C10   O6    A    
C2    O2    A    
C9    O5    A    
C1    O1    A    
C12   Cl4   S    
H7    N2    S    
C3    C5    D    
C7    C8    S    
C5    C6    S    
C11   C13   A    
C8    I3    S    
C14   I2    S    
C7    N1    D    
C13   I1    S    
C2    C4    S    
Cu1   O8    S    
C4    C6    D    
C19   C21   A    
C20   C22   A    
C7    I4    S    
H8    N1    S    
C18   C20   A    
C13   C15   A    
Cu1   O4    S    
C3    H6    S    
C14   C16   A    
Cu2   O3    S    
C9    O7    A    
C4    H5    S    
C1    O3    A    
Cu1   N2    S    
C10   O8    A    
C17   H1    S    
C17   C19   A    
C12   C22   A    
Cu2   N1    S    
C6    H3    S    
C18   H2    S    
Cu2   O6    S    
C16   C18   A    
C5    H4    S    
C8    N2    D    
C21   C24   A    
Cu1   O5    S    
C15   C17   A    
C22   C23   A    
Cu2   O2    S    
C15   Cl2   S    
Cu1   O1    S    
Cu1   Cu2   S    
C11   Cl3   S    
C11   C21   A    
C20   C24   A    
C12   C14   A    
C1    C3    S    
