data_mof_unit_39104.cif
_audit_creation_date              2012-12-11T21:12:15-0500
_audit_creation_method            fapswitch 2.2
_symmetry_space_group_name_H-M    P1
_symmetry_Int_Tables_number       1
_space_group_crystal_system       triclinic
_cell_length_a                    8.428279
_cell_length_b                    18.949578
_cell_length_c                    26.863881
_cell_angle_alpha                 99.262493
_cell_angle_beta                  93.154766
_cell_angle_gamma                 86.861159
_cell_volume                      4223.54488291

loop_
_atom_site_label
_atom_site_type_symbol
_atom_type_description
_atom_site_fract_x
_atom_site_fract_y
_atom_site_fract_z
_atom_type_partial_charge
Ba1   Ba    Ba6+2 0.160810 0.465630 0.521640 1.674776
Ba2   Ba    Ba6+2 0.649380 0.534380 0.478400 1.659694
C1    C     C_3   0.564057 0.215527 0.674082 -0.358316
C2    C     C_3   0.496400 0.279551 0.650343 0.468264
C3    C     C_3   0.504010 0.310384 0.364147 0.319497
C4    C     C_3   0.528638 0.246227 0.322751 -0.393339
C5    C     C_3   0.860664 0.733191 0.340927 0.454653
C6    C     C_3   0.824709 0.777110 0.296773 0.052275
C7    C     C_3   0.322458 0.690987 0.357263 0.363135
C8    C     C_3   0.289460 0.711469 0.305120 -0.403713
C9    C     C_R   0.003574 0.051748 0.489826 0.008985
C10   C     C_R   0.088127 0.101669 0.469846 -0.095251
C11   C     C_R   0.209448 0.953594 0.468472 -0.101485
C12   C     C_3   0.978478 0.281402 0.665919 0.469533
C13   C     C_R   0.063204 0.979565 0.489625 0.019291
C14   C     C_R   0.264886 0.883033 0.467330 -0.086001
C15   C     C_R   0.178139 0.834129 0.487164 -0.041663
C16   C     C_R   0.031709 0.858170 0.509391 0.012395
C17   C     C_R   0.973948 0.931249 0.510725 0.026587
C18   C     C_R   0.235849 0.762293 0.486383 -0.017976
C19   C     C_R   0.150989 0.716436 0.510274 -0.081935
C20   C     C_R   0.995488 0.735610 0.525337 0.055351
C21   C     C_R   0.940536 0.808665 0.528777 -0.068463
C22   C     C_R   0.853791 0.075200 0.509794 0.038070
C23   C     C_3   0.065459 0.229150 0.696773 -0.315659
C24   C     C_R   0.793072 0.147730 0.508494 0.027762
C25   C     C_R   0.882796 0.196942 0.488067 -0.065816
C26   C     C_R   0.027790 0.170829 0.468888 -0.050169
C27   C     C_R   0.800666 0.834534 0.552798 -0.043173
C28   C     C_R   0.744760 0.905467 0.554489 -0.100790
C29   C     C_R   0.825883 0.954922 0.532166 0.000887
C30   C     C_R   0.763710 0.026623 0.530494 0.021011
C31   C     C_R   0.611850 0.051206 0.547597 -0.100551
C32   C     C_R   0.642838 0.170530 0.527320 -0.052860
C33   C     C_R   0.553384 0.121016 0.545957 -0.105812
C34   C     C_3   0.834404 0.615193 0.629029 0.286138
C35   C     C_R   0.583468 0.241429 0.525497 -0.022510
C36   C     C_R   0.666438 0.287806 0.500778 -0.099729
C37   C     C_R   0.823784 0.269422 0.485898 0.046760
C38   C     C_R   0.328501 0.455782 0.177120 0.589630
C39   C     C_R   0.144536 0.553508 0.166209 0.582528
C40   C     C_2   0.035422 0.539423 0.268147 -0.168652
C41   C     C_3   0.024080 0.571337 0.323130 -0.026588
C42   C     C_1   0.277229 0.504669 0.338153 0.004768
C43   C     C_2   0.313462 0.507509 0.290910 -0.133814
C44   C     C_2   0.182742 0.517219 0.251236 0.217359
C45   C     C_3   0.833218 0.628055 0.686369 -0.390990
C46   C     C_R   0.298641 0.497009 0.095371 -0.089132
C47   C     C_R   0.375855 0.452142 0.126847 -0.071798
C48   C     C_R   0.494723 0.402659 0.106851 -0.039808
C49   C     C_R   0.177543 0.545908 0.114748 -0.016116
C50   C     C_2   0.144512 0.538149 0.357021 -0.091284
C51   C     C_2   0.640388 0.465318 0.634067 -0.243218
C52   C     C_R   0.533005 0.457581 0.978489 -0.000438
C53   C     C_R   0.285294 0.524143 0.959819 0.020014
C54   C     C_R   0.432038 0.490103 0.944063 0.051178
C55   C     C_R   0.689454 0.437409 0.964630 -0.114611
C56   C     C_3   0.978679 0.317849 0.347351 0.552765
C57   C     C_R   0.741409 0.439844 0.916078 0.067631
C58   C     C_R   0.634714 0.467034 0.879669 -0.036733
C59   C     C_R   0.478609 0.489777 0.893792 -0.093824
C60   C     C_R   0.367909 0.512659 0.857758 -0.035425
C61   C     C_R   0.407809 0.505556 0.806950 0.591338
C62   C     C_R   0.677950 0.474821 0.830286 0.568920
C63   C     C_2   0.712873 0.430807 0.720037 -0.057716
C64   C     C_3   0.740845 0.417509 0.664166 -0.105920
C65   C     C_1   0.532276 0.512073 0.655566 -0.000531
C66   C     C_2   0.519700 0.527048 0.705194 -0.089430
C67   C     C_3   0.868403 0.330831 0.300564 -0.163369
C68   C     C_2   0.603902 0.481244 0.740073 0.228637
C69   C     C_R   0.476435 0.449770 0.026599 0.000777
C70   C     C_R   0.342152 0.493198 0.044444 0.029705
C71   C     C_R   0.250004 0.532715 0.011598 0.025337
C72   C     C_R   0.544438 0.400012 0.057619 0.120334
C73   C     C_R   0.093531 0.587756 0.082594 -0.068449
C74   C     C_R   0.179237 0.548859 0.923250 -0.129625
C75   C     C_R   0.217812 0.540963 0.872938 -0.052735
C76   C     C_R   0.126680 0.580302 0.031849 -0.109891
C77   C     C_3   0.268919 0.689539 0.646435 0.455533
C78   C     C_3   0.285148 0.697488 0.704658 -0.166285
H1    H     H_    0.742343 0.670706 0.699423 0.107387
H2    H     H_    0.807289 0.578422 0.700373 0.088541
H3    H     H_    0.951889 0.643756 0.702656 0.124604
H4    H     H_    0.790477 0.285495 0.289567 0.089122
H5    H     H_    0.941190 0.331375 0.267121 0.053458
H6    H     H_    0.160232 0.661158 0.632792 0.076801
H7    H     H_    0.467399 0.188106 0.688596 0.109741
H8    H     H_    0.246472 0.647869 0.716572 0.091784
H9    H     H_    0.411933 0.704824 0.717244 0.107454
H10   H     H_    0.596256 0.299795 0.632234 -0.045131
H11   H     H_    0.649433 0.233402 0.705986 0.081329
H12   H     H_    0.617123 0.336913 0.371396 0.098969
H13   H     H_    0.469691 0.289591 0.397896 -0.040870
H14   H     H_    0.531247 0.264013 0.285413 0.136877
H15   H     H_    0.641132 0.216027 0.330964 0.085624
H16   H     H_    0.432094 0.208946 0.320703 0.105147
H17   H     H_    0.627735 0.176794 0.645709 0.100082
H18   H     H_    0.989588 0.183581 0.698594 0.075512
H19   H     H_    0.976299 0.705240 0.332453 -0.130265
H20   H     H_    0.918728 0.816941 0.300444 0.049078
H21   H     H_    0.207272 0.682801 0.373114 -0.058088
H22   H     H_    0.396992 0.640432 0.352605 0.079063
H23   H     H_    0.204206 0.674697 0.283215 0.094847
H24   H     H_    0.399493 0.704926 0.284018 0.110932
H25   H     H_    0.239187 0.767310 0.308012 0.116909
H26   H     H_    0.378668 0.867859 0.451118 0.101771
H27   H     H_    0.101290 0.203951 0.453503 0.124634
H28   H     H_    0.732820 0.800706 0.571451 0.106918
H29   H     H_    0.434996 0.135026 0.558932 0.107809
H30   H     H_    0.285899 0.986197 0.452002 0.066868
H31   H     H_    0.203405 0.089810 0.454434 0.062364
H32   H     H_    0.636982 0.919909 0.574177 0.066252
H33   H     H_    0.864456 0.296668 0.684237 -0.036569
H34   H     H_    0.532271 0.017252 0.561623 0.071113
H35   H     H_    0.436779 0.502851 0.280890 0.129992
H36   H     H_    0.548915 0.364355 0.129350 0.129425
H37   H     H_    0.769850 0.393220 0.742563 0.095389
H38   H     H_    0.775634 0.421624 0.992288 0.073322
H39   H     H_    0.932365 0.543653 0.242657 0.119371
H40   H     H_    0.999826 0.626163 0.096468 0.113730
H41   H     H_    0.061521 0.571019 0.932058 0.076106
H42   H     H_    0.178060 0.207900 0.679297 0.134744
H43   H     H_    0.130143 0.558717 0.846015 0.146180
H44   H     H_    0.465943 0.577728 0.721699 0.061353
H45   H     H_    0.058450 0.615005 0.009693 0.069520
H46   H     H_    0.652212 0.456159 0.593513 0.099110
H47   H     H_    0.092694 0.256535 0.735830 0.087775
H48   H     H_    0.714605 0.601296 0.613064 0.032307
H49   H     H_    0.920751 0.570169 0.617286 0.091355
N1    N     N_R   0.216821 0.507845 0.197310 -0.414102
N2    N     N_R   0.562968 0.487767 0.793223 -0.421854
O1    O     O_2   0.106080 0.324280 0.466820 -0.471682
O2    O     O_3   0.405445 0.653297 0.624857 -0.637041
O3    O     O_3   0.072649 0.341128 0.666599 -0.567933
O4    O     O_2   0.704230 0.675760 0.533200 -0.454240
O5    O     O_3   0.951180 0.586390 0.529420 -0.483964
O6    O     O_3   0.434080 0.629720 0.443130 -0.503139
O7    O     O_3   0.878149 0.677814 0.613117 -0.646809
O8    O     O_3   0.351080 0.462080 0.440130 -0.479741
O9    O     O_3   0.839200 0.593040 0.416790 -0.432813
O10   O     O_2   0.694014 0.548134 0.328546 -0.502275
O11   O     O_3   0.740697 0.684692 0.344229 -0.584266
O12   O     O_3   0.859130 0.413620 0.470620 -0.463949
O13   O     O_3   0.459240 0.537930 0.559910 -0.464006
O14   O     O_2   0.583120 0.462390 0.379940 -0.442806
O15   O     O_3   0.381251 0.356077 0.348780 -0.627965
O16   O     O_2   0.569968 0.753994 0.474050 -0.481669
O17   O     O_3   0.403391 0.744834 0.389061 -0.601501
O18   O     O_2   0.386191 0.412111 0.202625 -0.614477
O19   O     O_2   0.817943 0.472525 0.820658 -0.611960
O20   O     O_2   0.053469 0.602329 0.183405 -0.643601
O21   O     O_2   0.303220 0.514496 0.774927 -0.579300
O22   O     O_3   0.376230 0.370290 0.556910 -0.443407
O23   O     O_2   0.254555 0.247191 0.524854 -0.501147
O24   O     O_3   0.884960 0.302944 0.386701 -0.663803
O25   O     O_3   0.368364 0.257878 0.616361 -0.592639
O26   O     O_2   0.227190 0.537650 0.620070 -0.475379
O27   O     O_3   0.971110 0.406970 0.583250 -0.468556
O28   O     O_2   0.040826 0.480743 0.673369 -0.448814
P1    P     P_3+3 0.929380 0.335110 0.452880 1.000434
P2    P     P_3+3 0.398530 0.559060 0.613740 0.983458
P3    P     P_3+3 0.955495 0.412866 0.648349 0.986835
P4    P     P_3+3 0.880940 0.664900 0.547160 1.003672
P5    P     P_3+3 0.824552 0.599060 0.351817 0.979046
P6    P     P_3+3 0.398374 0.278276 0.556317 0.958523
P7    P     P_3+3 0.400216 0.446567 0.376023 0.975239
P8    P     P_3+3 0.412164 0.723269 0.450250 0.948227
N3    N     N_3   0.439294 0.335811 0.689891 -0.501371
H50   H     H_    0.351974 0.315936 0.709331 0.208151
H51   H     H_    0.384962 0.377172 0.672626 0.215881
C79   C     C_3   0.087690 0.251960 0.325132 -0.180248
C80   C     C_3   0.147786 0.202471 0.361208 -0.389711
H52   H     H_    0.222877 0.231900 0.391901 0.139203
H53   H     H_    0.043471 0.178551 0.374000 0.124380
H54   H     H_    0.220035 0.157042 0.341207 0.096701
H55   H     H_    0.022577 0.216520 0.294478 0.062533
H56   H     H_    0.188411 0.270078 0.306431 0.128228
N4    N     N_3   0.069342 0.380497 0.364260 -0.448729
H57   H     H_    0.108938 0.396300 0.331838 0.119614
H58   H     H_    0.987772 0.420824 0.378746 0.156103
N5    N     N_3   0.773385 0.397497 0.309047 -0.448759
H59   H     H_    0.678123 0.393921 0.282243 0.207419
H60   H     H_    0.843260 0.437345 0.300513 0.176529
N6    N     N_3   0.253406 0.759599 0.629703 -0.486924
H61   H     H_    0.141807 0.783959 0.638360 0.164447
H62   H     H_    0.341270 0.792510 0.648211 0.190823
N7    N     N_3   0.189792 0.758700 0.729277 -0.514655
H63   H     H_    0.204009 0.759541 0.768280 0.190024
H64   H     H_    0.069721 0.750680 0.719516 0.182388
C81   C     C_3   0.888779 0.781114 0.392444 -0.167903
C82   C     C_3   0.755979 0.838067 0.406393 -0.333262
H65   H     H_    0.771985 0.885803 0.388362 0.116219
H66   H     H_    0.637837 0.816929 0.395026 0.205692
H67   H     H_    0.757611 0.855367 0.447530 0.124748
H68   H     H_    0.902409 0.746154 0.421977 0.086814
H69   H     H_    0.002421 0.808280 0.392572 0.049704
N8    N     N_3   0.671802 0.817812 0.300354 -0.505836
H70   H     H_    0.650865 0.843244 0.268670 0.173135
H71   H     H_    0.580477 0.783453 0.301308 0.220344
C83   C     C_3   0.842505 0.731762 0.243945 -0.202406
C84   C     C_3   0.707776 0.681425 0.225851 -0.362593
H72   H     H_    0.735623 0.649863 0.188593 0.148662
H73   H     H_    0.693670 0.643278 0.252264 0.152256
H74   H     H_    0.594030 0.712337 0.220832 0.110824
H75   H     H_    0.850586 0.768362 0.215815 0.107150
H76   H     H_    0.956597 0.700290 0.244189 0.155666
N9    N     N_3   0.947230 0.244825 0.614356 -0.506683
H77   H     H_    0.864709 0.276118 0.596013 0.116156
H78   H     H_    0.052085 0.240589 0.594894 0.236908
N10   N     N_3   0.232715 0.657051 0.528981 -0.468168
H79   H     H_    0.217185 0.610328 0.503832 0.198107
H80   H     H_    0.354106 0.665543 0.534780 0.226062
N11   N     N_3   0.585000 0.352444 0.488904 -0.429694
H81   H     H_    0.620891 0.364324 0.455199 0.155311
H82   H     H_    0.468426 0.340443 0.476890 0.190481
C85   C     C_3   0.906792 0.407042 0.904528 -0.162693
C86   C     C_3   0.898564 0.334477 0.870369 -0.381294
H83   H     H_    0.835662 0.296765 0.889174 0.117264
H84   H     H_    0.835365 0.339365 0.833671 0.149117
H85   H     H_    0.020960 0.311978 0.862920 0.120894
H86   H     H_    0.978782 0.443431 0.887930 0.167249
H87   H     H_    0.975295 0.398231 0.939756 0.081429
N12   N     N_3   0.643784 0.338738 0.038561 -0.509648
H88   H     H_    0.621094 0.322526 0.999898 0.184270
H89   H     H_    0.763134 0.349954 0.046998 0.171463
N13   N     N_3   0.121620 0.553608 0.409834 -0.493013
H90   H     H_    0.224773 0.569951 0.427927 0.196314
H91   H     H_    0.087761 0.508923 0.423732 0.208661

loop_
_geom_bond_atom_site_label_1
_geom_bond_atom_site_label_2
_ccdc_geom_bond_type
C53   C54   A    
C47   C48   A    
C83   H75   S    
O13   P2    S    
C32   C35   A    
Ba2   O13   S    
C84   H72   S    
C60   C75   A    
N12   H88   S    
Ba1   O13   S    
C79   C80   S    
Ba1   O1    S    
C17   C29   A    
C66   H44   S    
C82   H66   S    
N4    H57   S    
C63   C64   S    
O12   P1    S    
N5    H59   S    
N6    H61   S    
C86   H85   S    
C13   C17   A    
C31   H34   S    
O1    P1    D    
C5    H19   S    
C10   C26   A    
C75   H43   S    
Ba2   O8    S    
C21   C27   A    
C8    H23   S    
C35   C36   A    
C22   C24   A    
Ba1   Ba2   S    
C48   C72   A    
O11   P5    S    
C3    C4    S    
C37   P1    S    
C41   C50   S    
C55   C57   A    
N8    H70   S    
C26   H27   S    
C38   C47   A    
C77   H6    S    
C9    C22   A    
C15   C18   A    
C77   N6    S    
C64   P3    S    
C34   C45   S    
C1    H11   S    
C32   C33   A    
C40   C44   D    
C45   H2    S    
C78   H9    S    
N8    H71   S    
C43   H35   S    
C85   H86   S    
C10   H31   S    
C9    C13   A    
C24   C32   A    
C46   C49   A    
C52   C69   A    
C29   C30   A    
C25   C37   A    
C14   C15   A    
C4    H14   S    
C83   C84   S    
C71   C76   A    
C27   H28   S    
O7    P4    S    
C45   H3    S    
Ba1   O5    S    
C7    C8    S    
Ba1   O8    S    
C80   H54   S    
C14   H26   S    
C41   P5    S    
C42   C50   D    
N3    H51   S    
O15   P7    S    
Ba1   P2    S    
C57   C58   A    
C12   N9    S    
Ba2   O12   S    
C84   H73   S    
C6    N8    S    
C34   H48   S    
C38   O18   D    
C46   C70   A    
C51   C65   D    
C80   H53   S    
C15   C16   A    
C2    H10   S    
O14   P7    D    
N11   H82   S    
C77   O2    S    
C52   C54   A    
N13   H90   S    
C1    H7    S    
N9    H77   S    
C5    C6    S    
C74   C75   A    
C56   N4    S    
C56   O24   S    
N5    H60   S    
C57   C85   S    
C16   C17   A    
C35   P6    S    
C12   O3    S    
C86   H83   S    
C43   C44   S    
C72   N12   S    
Ba2   O5    S    
O3    P3    S    
C62   O19   D    
C58   C59   A    
Ba2   O14   S    
O8    P7    S    
C65   C66   D    
C22   C30   A    
C81   C82   S    
C27   C28   A    
Ba1   O12   S    
C65   P2    S    
C3    H13   S    
C16   C21   A    
C62   N2    Am   
N11   H81   S    
C1    H17   S    
C60   C61   A    
C19   N10   S    
C24   C25   A    
O28   P3    D    
C5    C81   S    
C42   P7    S    
C85   C86   S    
Ba1   O22   S    
C51   C64   S    
C11   H30   S    
C7    H22   S    
O16   P8    D    
C61   N2    Am   
C53   C74   A    
C81   H68   S    
N10   H80   S    
C50   N13   S    
N3    H50   S    
C2    O25   S    
C4    H15   S    
C4    H16   S    
C11   C13   A    
C84   H74   S    
C77   C78   S    
C6    C83   S    
C86   H84   S    
C40   C41   S    
C74   H41   S    
C36   N11   S    
C1    C2    S    
O26   P2    D    
O6    P8    S    
C67   H5    S    
C42   C43   D    
C23   H42   S    
C82   H65   S    
O17   P8    S    
C18   P8    S    
C38   N1    Am   
C46   C47   A    
C83   H76   S    
C3    O15   S    
O22   P6    S    
O24   P1    S    
C54   C59   A    
Ba2   O6    S    
O4    P4    D    
Ba1   P1    S    
C73   H40   S    
C49   C73   A    
C70   C71   A    
O2    P2    S    
Ba2   P4    S    
C44   N1    S    
C69   C72   A    
N4    H58   S    
C9    C10   A    
N12   H89   S    
C56   C67   S    
C39   O20   D    
C81   H69   S    
O9    P5    S    
C12   H33   S    
C79   H55   S    
C7    O17   S    
N13   H91   S    
Ba2   O4    S    
C39   N1    Am   
C58   C62   A    
Ba2   O9    S    
C30   C31   A    
Ba1   O26   S    
C56   C79   S    
C6    H20   S    
C82   H67   S    
C69   C70   A    
C78   H8    S    
C67   H4    S    
C34   H49   S    
C52   C55   A    
C20   P4    S    
C28   C29   A    
Ba1   O27   S    
C36   C37   A    
O25   P6    S    
O23   P6    D    
C8    H24   S    
C68   N2    S    
C31   C33   A    
C78   N7    S    
N6    H62   S    
C33   H29   S    
C48   H36   S    
C45   H1    S    
C12   C23   S    
C23   H47   S    
C59   C60   A    
C40   H39   S    
C73   C76   A    
C85   H87   S    
C61   O21   D    
N7    H64   S    
C3    H12   S    
C51   H46   S    
O27   P3    S    
C80   H52   S    
C53   C71   A    
C2    N3    S    
C23   H18   S    
N7    H63   S    
C18   C19   A    
O10   P5    D    
C7    H21   S    
N10   H79   S    
C11   C14   A    
C28   H32   S    
C25   C26   A    
N9    H78   S    
C66   C68   S    
C63   H37   S    
C20   C21   A    
C79   H56   S    
C8    H25   S    
C19   C20   A    
C76   H45   S    
C34   O7    S    
C39   C49   A    
C5    O11   S    
C63   C68   D    
C67   N5    S    
C55   H38   S    
O5    P4    S    
