data_mof_unit_64987.cif
_audit_creation_date              2012-12-10T19:02:14-0500
_audit_creation_method            fapswitch 2.2
_symmetry_space_group_name_H-M    P1
_symmetry_Int_Tables_number       1
_space_group_crystal_system       triclinic
_cell_length_a                    13.365707
_cell_length_b                    14.26179
_cell_length_c                    16.597388
_cell_angle_alpha                 90.0
_cell_angle_beta                  83.905204
_cell_angle_gamma                 89.999986
_cell_volume                      3145.89299672

loop_
_atom_site_label
_atom_site_type_symbol
_atom_type_description
_atom_site_fract_x
_atom_site_fract_y
_atom_site_fract_z
_atom_type_partial_charge
C1    C     C_R   0.500000 0.673477 0.500000 0.922041
C2    C     C_1   0.169414 0.499993 0.499986 0.082239
C3    C     C_1   0.950475 0.499988 0.500004 -0.037187
C4    C     C_1   0.049525 0.499988 0.499995 -0.037187
C5    C     C_R   0.485296 0.501641 0.656481 0.876822
C6    C     C_R   0.514704 0.501641 0.343519 0.876822
C7    C     C_R   0.472951 0.472284 0.740439 -0.042516
C8    C     C_R   0.527049 0.472283 0.259561 -0.042514
C9    C     C_R   0.529815 0.513631 0.796463 -0.194797
C10   C     C_R   0.470188 0.513632 0.203536 -0.194798
C11   C     C_R   0.522786 0.479279 0.875125 -0.121233
C12   C     C_R   0.500000 0.326536 0.500000 0.932350
C13   C     C_R   0.477219 0.479281 0.124874 -0.121234
C14   C     C_R   0.462663 0.400223 0.897226 0.158291
C15   C     C_R   0.537341 0.400224 0.102774 0.158293
C16   C     C_R   0.405023 0.359696 0.840860 -0.062806
C17   C     C_R   0.594977 0.359695 0.159141 -0.062802
C18   C     C_R   0.409315 0.396286 0.762977 -0.188138
C19   C     C_R   0.590683 0.396284 0.237024 -0.188137
C20   C     C_2   0.457645 0.363412 0.980796 -0.159603
C21   C     C_2   0.542360 0.363413 0.019203 -0.159603
C22   C     C_2   0.643138 0.345679 0.973719 0.914638
C23   C     C_1   0.500000 0.774125 0.500000 -0.222401
C24   C     C_2   0.356868 0.345675 0.026281 0.914639
C25   C     C_1   0.500000 0.225903 0.500000 -0.221999
C26   C     C_1   0.500000 0.858686 0.500000 0.001653
C27   C     C_1   0.500000 0.141347 0.500000 0.004790
C28   C     C_1   0.500000 0.957741 0.500000 0.017850
C29   C     C_1   0.500000 0.042295 0.500000 0.019151
C30   C     C_1   0.830586 0.499993 0.500014 0.082239
H1    H     H_    0.579033 0.572312 0.779392 0.140999
H2    H     H_    0.277394 0.286270 0.123269 0.350634
H3    H     H_    0.420971 0.572315 0.220607 0.140998
H4    H     H_    0.634034 0.363019 0.280658 0.147633
H5    H     H_    0.365962 0.363022 0.719344 0.147634
H6    H     H_    0.357926 0.299287 0.856788 0.147924
H7    H     H_    0.642074 0.299285 0.143213 0.147921
H8    H     H_    0.434768 0.513847 0.081379 0.133184
H9    H     H_    0.565238 0.513845 0.918619 0.133184
H10   H     H_    0.722614 0.286277 0.876731 0.350634
N1    N     N_1   0.738130 0.500000 0.500020 -0.060434
N2    N     N_1   0.261870 0.500000 0.499980 -0.060434
O1    O     O_R   0.423530 0.626280 0.499990 -0.593577
O2    O     O_R   0.650587 0.293248 0.902093 -0.783083
O3    O     O_2   0.280676 0.376352 0.000946 -0.623297
O4    O     O_R   0.349420 0.293244 0.097907 -0.783084
O5    O     O_R   0.576470 0.373720 0.500010 -0.591202
O6    O     O_R   0.576470 0.626280 0.500010 -0.593577
O7    O     O_R   0.423530 0.373720 0.499990 -0.591202
O8    O     O_R   0.414510 0.500000 0.615790 -0.605174
O9    O     O_R   0.585490 0.500000 0.384210 -0.605173
O10   O     O_R   0.567420 0.500000 0.615810 -0.593839
O11   O     O_R   0.432580 0.500000 0.384190 -0.593839
O12   O     O_2   0.719328 0.376358 0.999054 -0.623296
Zn1   Zn    Zn3+2 0.397910 0.500000 0.499990 0.977800
Zn2   Zn    Zn3+2 0.602090 0.500000 0.500010 0.977800

loop_
_geom_bond_atom_site_label_1
_geom_bond_atom_site_label_2
_ccdc_geom_bond_type
C3    C30   S    
C2    C4    S    
C10   C13   A    
N1    Zn2   S    
N2    Zn1   S    
C25   C27   T    
C5    C7    S    
C18   H5    S    
C26   C28   S    
O8    Zn1   S    
O6    Zn2   S    
C12   C25   S    
C7    C18   A    
C24   O4    S    
C13   C15   A    
C12   O7    A    
C1    O6    A    
C17   H7    S    
C21   C22   S    
C16   H6    S    
C11   H9    S    
C9    C11   A    
C13   H8    S    
C15   C21   S    
O10   Zn2   S    
C2    N2    T    
C12   O5    A    
C24   O3    D    
O1    Zn1   S    
C28   C29   T    
C17   C19   A    
C1    C23   S    
C10   H3    S    
C7    C9    A    
C22   O12   D    
O11   Zn1   S    
C6    O9    A    
C11   C14   A    
C14   C16   A    
C5    O8    A    
C30   N1    T    
C27   C29   S    
C9    H1    S    
C6    O11   A    
C3    C4    T    
C8    C19   A    
C14   C20   S    
H10   O2    S    
C20   C21   D    
C16   C18   A    
O9    Zn2   S    
C23   C26   T    
C15   C17   A    
C6    C8    S    
C5    O10   A    
O7    Zn1   S    
H2    O4    S    
C1    O1    A    
C8    C10   A    
C22   O2    S    
C20   C24   S    
O5    Zn2   S    
C19   H4    S    
