data_mof_unit_60810.cif
_audit_creation_date              2012-12-10T18:05:47-0500
_audit_creation_method            fapswitch 2.2
_symmetry_space_group_name_H-M    P1
_symmetry_Int_Tables_number       1
_space_group_crystal_system       triclinic
_cell_length_a                    18.82184
_cell_length_b                    18.777446
_cell_length_c                    18.834111
_cell_angle_alpha                 109.390376
_cell_angle_beta                  109.545129
_cell_angle_gamma                 109.253544
_cell_volume                      5138.28016903

loop_
_atom_site_label
_atom_site_type_symbol
_atom_type_description
_atom_site_fract_x
_atom_site_fract_y
_atom_site_fract_z
_atom_type_partial_charge
C1    C     C_R   0.117801 0.999169 0.618665 0.846328
C2    C     C_R   0.928623 0.999648 0.184190 -0.161826
C3    C     C_R   0.240545 0.243086 0.419363 0.135097
C4    C     C_R   0.314629 0.312393 0.499227 -0.113251
C5    C     C_R   0.324081 0.316643 0.578617 0.017256
C6    C     C_R   0.258741 0.252187 0.577643 0.123307
C7    C     C_R   0.184287 0.184907 0.498177 -0.094202
C8    C     C_R   0.174105 0.181047 0.419006 0.023734
C9    C     C_R   0.476142 0.389036 0.703632 0.106717
C10   C     C_R   0.548378 0.462345 0.781463 0.245057
C11   C     C_R   0.543468 0.538086 0.819377 0.067181
C12   C     C_R   0.117438 0.118600 0.498668 0.826769
C13   C     C_R   0.466463 0.539204 0.780147 -0.256331
C14   C     C_R   0.394684 0.466656 0.703296 0.344964
C15   C     C_R   0.399218 0.391520 0.663524 -0.073385
C16   C     C_R   0.265107 0.024612 0.695371 -0.023771
C17   C     C_R   0.183077 0.999448 0.686617 -0.120750
C18   C     C_R   0.170113 0.990333 0.753400 0.062261
C19   C     C_R   0.236413 0.994552 0.821343 0.325376
C20   C     C_R   0.315003 0.007592 0.821332 -0.174511
C21   C     C_R   0.329948 0.029075 0.761607 -0.009813
C22   C     C_3   0.367616 0.998680 0.707312 -0.444373
C23   C     C_R   0.882759 0.001872 0.381771 0.892579
C24   C     C_3   0.294905 0.992277 0.633033 0.326003
C25   C     C_R   0.820178 0.749444 0.507353 -0.066247
C26   C     C_R   0.811641 0.816227 0.497069 -0.188667
C27   C     C_R   0.735421 0.819895 0.488646 0.312961
C28   C     C_R   0.671333 0.756544 0.491599 0.332644
C29   C     C_R   0.683672 0.689366 0.502764 -0.209150
C30   C     C_R   0.760130 0.690071 0.511941 -0.065725
C31   C     C_3   0.810782 0.644088 0.525214 0.485462
C32   C     C_3   0.880306 0.713392 0.521173 -0.044622
C33   C     C_R   0.738300 0.928873 0.255591 -0.007501
C34   C     C_R   0.880529 0.881570 0.499108 0.890066
C35   C     C_R   0.816298 0.004743 0.318134 -0.225613
C36   C     C_R   0.822420 0.084687 0.326494 0.311196
C37   C     C_R   0.756906 0.084482 0.261776 0.294033
C38   C     C_R   0.684348 0.004344 0.190732 -0.216859
C39   C     C_R   0.673384 0.928487 0.193993 -0.004911
C40   C     C_3   0.641252 0.836769 0.128408 0.448634
C41   C     C_3   0.715190 0.838250 0.198270 -0.104177
C42   C     C_R   0.500384 0.619296 0.618715 0.865189
C43   C     C_R   0.381248 0.380522 0.499612 0.796542
C44   C     C_R   0.499202 0.380365 0.381521 0.799045
C45   C     C_R   0.987000 0.971691 0.213975 0.217229
C46   C     C_R   0.618434 0.620338 0.501435 0.844422
C47   C     C_R   0.499665 0.118605 0.118160 0.813236
C48   C     C_R   0.381251 0.001972 0.883064 0.828604
C49   C     C_R   0.500904 0.881291 0.882193 0.877410
C50   C     C_R   0.618600 0.000540 0.119488 0.922227
C51   C     C_R   0.423652 0.681144 0.680150 0.089535
C52   C     C_R   0.501110 0.685968 0.685910 -0.183405
C53   C     C_R   0.580056 0.752816 0.760968 -0.246622
C54   C     C_R   0.581789 0.818774 0.825405 0.415575
C55   C     C_R   0.502940 0.814206 0.817909 -0.182826
C56   C     C_R   0.068425 0.031975 0.289344 -0.173118
C57   C     C_R   0.424501 0.742657 0.746945 -0.001041
C58   C     C_3   0.349827 0.743346 0.685684 -0.193268
C59   C     C_3   0.350819 0.677800 0.611433 0.461081
C60   C     C_R   0.488327 0.311769 0.239165 -0.000265
C61   C     C_R   0.498366 0.312287 0.315802 -0.084940
C62   C     C_R   0.509094 0.244735 0.327114 0.141919
C63   C     C_R   0.509157 0.180470 0.261315 -0.206078
C64   C     C_R   0.501016 0.184418 0.185798 -0.055130
C65   C     C_R   0.492379 0.252382 0.178286 0.042709
C66   C     C_3   0.475558 0.287482 0.117664 -0.163209
C67   C     C_R   0.090103 0.118869 0.336325 -0.003400
C68   C     C_3   0.472265 0.356642 0.188253 0.501321
C69   C     C_R   0.031904 0.146704 0.303812 0.430897
C70   C     C_R   0.951364 0.086787 0.228291 -0.211391
Cu1   Cu    Cu3+1 0.000020 0.938200 0.438220 0.987151
Cu2   Cu    Cu3+1 0.999980 0.061800 0.561780 1.122180
Cu3   Cu    Cu3+1 0.438190 0.500040 0.438260 1.145761
Cu4   Cu    Cu3+1 0.561780 0.500000 0.561820 1.058816
Cu5   Cu    Cu3+1 0.561810 0.061820 0.000020 1.068842
Cu6   Cu    Cu3+1 0.438190 0.938280 0.000080 1.089708
H1    H     H_    0.865713 0.953854 0.126270 0.221041
H2    H     H_    0.462566 0.597048 0.809804 0.201183
H3    H     H_    0.433696 0.050374 0.730756 0.208550
H4    H     H_    0.362662 0.935232 0.697699 0.157728
H5    H     H_    0.942874 0.759361 0.583239 0.185051
H6    H     H_    0.114246 0.011069 0.312549 0.154953
H7    H     H_    0.766852 0.835633 0.183104 0.194127
H8    H     H_    0.640697 0.756524 0.767140 0.205512
H9    H     H_    0.367225 0.807813 0.689977 0.126761
H10   H     H_    0.516043 0.128221 0.269546 0.161747
H11   H     H_    0.412968 0.241122 0.055528 0.187169
H12   H     H_    0.906077 0.107702 0.203729 0.214970
O1    O     O_R   0.090190 0.947810 0.538000 -0.574475
O2    O     O_R   0.552160 0.590170 0.642390 -0.594806
O3    O     O_R   0.357620 0.409850 0.447860 -0.559155
O4    O     O_R   0.461990 0.409820 0.552210 -0.601306
O5    O     O_R   0.447810 0.409860 0.357690 -0.548677
O6    O     O_R   0.552180 0.409830 0.462050 -0.566308
O7    O     O_R   0.537970 0.590210 0.447870 -0.533890
O8    O     O_R   0.642350 0.590180 0.552220 -0.559017
O9    O     O_R   0.552210 0.142430 0.090170 -0.577180
O10   O     O_R   0.447820 0.038100 0.090220 -0.574597
O11   O     O_R   0.462030 0.052220 0.909860 -0.608661
O12   O     O_R   0.090150 0.052180 0.642350 -0.565675
O13   O     O_R   0.357640 0.947890 0.909900 -0.527072
O14   O     O_R   0.552180 0.962000 0.909880 -0.556679
O15   O     O_R   0.447790 0.857670 0.909930 -0.556309
O16   O     O_R   0.642360 0.052210 0.090200 -0.524165
O17   O     O_R   0.537970 0.947880 0.090240 -0.581239
O18   O     O_R   0.090200 0.037990 0.447830 -0.628488
O19   O     O_R   0.090160 0.142360 0.552180 -0.524602
O20   O     O_R   0.909850 0.947820 0.357650 -0.606543
O21   O     O_R   0.909810 0.052190 0.462000 -0.520353
O22   O     O_R   0.909840 0.857640 0.447820 -0.569924
O23   O     O_R   0.909800 0.962010 0.552170 -0.546058
O24   O     O_R   0.447790 0.590200 0.538040 -0.521055
N1    N     N_3   0.616216 0.613715 0.898083 -0.571111
H13   H     H_    0.632572 0.665646 0.885999 0.280469
H14   H     H_    0.596800 0.628259 0.944501 0.252997
Cl1   Cl    Cl    0.298960 0.471194 0.658893 -0.514992
N2    N     N_3   0.088298 0.972900 0.749465 -0.553798
H15   H     H_    0.060939 0.913495 0.747567 0.264487
H16   H     H_    0.099560 0.021858 0.805938 0.281026
Cl2   Cl    Cl    0.219614 0.984100 0.905157 -0.566653
N3    N     N_3   0.325717 0.052667 0.603136 -0.551634
H17   H     H_    0.272080 0.053214 0.562855 0.230256
H18   H     H_    0.367284 0.115854 0.656160 0.201898
N4    N     N_3   0.232313 0.903281 0.560820 -0.530150
H19   H     H_    0.211463 0.862382 0.584739 0.216261
H20   H     H_    0.264484 0.881128 0.531005 0.237651
Cl3   Cl    Cl    0.718173 0.901112 0.471165 -0.514344
N5    N     N_3   0.962642 0.882055 0.166904 -0.537110
H21   H     H_    0.910769 0.845526 0.171822 0.220357
H22   H     H_    0.013335 0.871718 0.196193 0.220769
Cl4   Cl    Cl    0.579196 0.765499 0.486059 -0.496210
Cl5   Cl    Cl    0.848149 0.652260 0.629740 -0.525017
N6    N     N_3   0.766968 0.554542 0.454075 -0.544471
H23   H     H_    0.721519 0.514933 0.463761 0.251728
H24   H     H_    0.731148 0.549832 0.395039 0.182716
N7    N     N_3   0.892397 0.680706 0.446308 -0.545763
H25   H     H_    0.834022 0.648570 0.387939 0.239853
H26   H     H_    0.913371 0.636084 0.448901 0.266589
Cl6   Cl    Cl    0.912619 0.185039 0.415170 -0.425121
Cl7   Cl    Cl    0.766140 0.184558 0.271483 -0.473226
N8    N     N_3   0.552224 0.777106 0.102296 -0.529442
H27   H     H_    0.541246 0.713489 0.075064 0.225158
H28   H     H_    0.542478 0.790146 0.155648 0.218596
Cl8   Cl    Cl    0.654261 0.827619 0.036947 -0.640035
N9    N     N_3   0.688847 0.780671 0.232412 -0.563146
H29   H     H_    0.654655 0.716304 0.182069 0.225074
H30   H     H_    0.648745 0.791900 0.256605 0.260293
Cl9   Cl    Cl    0.683908 0.907791 0.910977 -0.510659
N10   N     N_3   0.273302 0.709485 0.694929 -0.505808
H31   H     H_    0.219556 0.695724 0.640762 0.263021
H32   H     H_    0.261725 0.651698 0.696492 0.308405
Cl10  Cl    Cl    0.257202 0.571465 0.542123 -0.452757
N11   N     N_3   0.378303 0.713955 0.561116 -0.515750
H33   H     H_    0.434594 0.774916 0.602888 0.209014
H34   H     H_    0.329617 0.723967 0.526638 0.233537
N12   N     N_3   0.517018 0.239413 0.403269 -0.562015
H35   H     H_    0.466270 0.179537 0.383684 0.220822
H36   H     H_    0.575389 0.240283 0.433245 0.253048
N13   N     N_3   0.549913 0.322552 0.106028 -0.573034
H37   H     H_    0.538153 0.356104 0.073008 0.225958
H38   H     H_    0.550380 0.270073 0.063917 0.257486
Cl11  Cl    Cl    0.058851 0.256534 0.355388 -0.432784
N14   N     N_3   0.542570 0.446467 0.232421 -0.564895
H39   H     H_    0.535300 0.468336 0.187525 0.241071
H40   H     H_    0.602714 0.448938 0.253715 0.217385
Cl12  Cl    Cl    0.367757 0.348169 0.154459 -0.539859
N15   N     N_3   0.231732 0.233387 0.337362 -0.545707
H41   H     H_    0.222297 0.282587 0.329372 0.291299
H42   H     H_    0.288018 0.237374 0.336144 0.214798
N16   N     N_3   0.266537 0.254899 0.657240 -0.568828
H43   H     H_    0.272288 0.313227 0.696799 0.270932
H44   H     H_    0.322526 0.253014 0.689369 0.193882
N17   N     N_3   0.482866 0.313212 0.665325 -0.547715
H45   H     H_    0.434805 0.260612 0.660060 0.200103
H46   H     H_    0.471633 0.299197 0.602816 0.250180
N18   N     N_3   0.626033 0.458247 0.819933 -0.524366
H47   H     H_    0.613112 0.416104 0.844570 0.223511
H48   H     H_    0.677408 0.518600 0.872352 0.256564

loop_
_geom_bond_atom_site_label_1
_geom_bond_atom_site_label_2
_ccdc_geom_bond_type
C66   C68   S    
C50   O16   A    
C16   C21   A    
N2    H15   S    
Cu3   Cu4   S    
Cu4   O6    S    
C35   C36   A    
Cu3   O5    S    
C31   N6    S    
C70   H12   S    
N5    H21   S    
N9    H29   S    
C59   N11   S    
C3    N15   S    
C7    C8    A    
N15   H42   S    
N17   H45   S    
C32   H5    S    
C31   Cl5   S    
C26   C27   A    
C33   C39   A    
C47   O10   A    
N16   H44   S    
C53   H8    S    
C54   Cl9   S    
C28   C29   A    
N14   H40   S    
C37   C38   A    
C22   H3    S    
N8    H28   S    
C6    N16   S    
C5    C6    A    
N16   H43   S    
C48   O13   A    
C45   N5    S    
Cu6   O10   S    
C41   H7    S    
Cu1   O22   S    
C24   N4    S    
C18   C19   A    
Cu4   O4    S    
C42   O24   A    
C44   O5    A    
Cu2   O21   S    
C27   Cl3   S    
C26   C34   S    
C46   O7    A    
N13   H37   S    
C45   C56   A    
C16   C17   A    
C37   Cl7   S    
Cu5   O14   S    
N13   H38   S    
C9    N17   S    
C51   C57   A    
Cu1   O20   S    
N11   H34   S    
C9    C10   A    
C58   N10   S    
C40   Cl8   S    
Cu6   O15   S    
N18   H48   S    
Cu2   O23   S    
C16   C24   S    
C13   C14   A    
C34   O23   A    
N10   H32   S    
C69   C70   A    
N8    H27   S    
C1    O12   A    
C66   N13   S    
N9    H30   S    
N17   H46   S    
C2    C45   A    
C10   N18   S    
C7    C12   S    
C23   O21   A    
C5    C15   S    
C51   C52   A    
Cu4   O8    S    
C69   Cl11  S    
Cu3   O3    S    
N7    H26   S    
C3    C8    A    
N15   H41   S    
C32   N7    S    
N7    H25   S    
C58   C59   S    
C53   C54   A    
C43   O3    A    
C60   C61   A    
C42   O2    A    
N12   H35   S    
Cu5   Cu6   S    
C49   O15   A    
C29   C30   A    
C40   N8    S    
C50   O17   A    
C31   C32   S    
Cu1   O1    S    
Cu2   O19   S    
C30   C31   S    
C62   C63   A    
Cu5   O11   S    
C17   C18   A    
C46   O8    A    
C18   N2    S    
N3    H17   S    
C20   C48   S    
C40   C41   S    
C60   C65   A    
C23   C35   S    
Cu5   O16   S    
C55   C57   A    
C63   H10   S    
N6    H23   S    
C34   O22   A    
C22   C24   S    
C51   C59   S    
Cu3   O7    S    
C3    C4    A    
C58   H9    S    
C49   O14   A    
C52   C53   A    
Cu3   O24   S    
N4    H20   S    
N1    H13   S    
Cu2   O12   S    
C68   N14   S    
Cu6   O13   S    
C25   C30   A    
C48   O11   A    
C54   C55   A    
C36   C37   A    
C1    O1    A    
C4    C5    A    
N5    H22   S    
C19   Cl2   S    
C12   O19   A    
C47   C64   S    
C56   H6    S    
C6    C7    A    
C38   C50   S    
C4    C43   S    
C44   C61   S    
C56   C67   A    
C1    C17   S    
C43   O4    A    
C47   O9    A    
Cu5   O9    S    
C59   Cl10  S    
C29   C46   S    
C28   Cl4   S    
C33   C41   S    
C64   C65   A    
Cu4   O2    S    
C19   C20   A    
N2    H16   S    
C25   C26   A    
C22   H4    S    
Cu1   Cu2   S    
C2    H1    S    
C49   C55   S    
N10   H31   S    
C12   O18   A    
C11   C13   A    
C57   C58   S    
C38   C39   A    
C2    C70   A    
C66   H11   S    
C14   Cl1   S    
C23   O20   A    
N12   H36   S    
C24   N3    S    
C33   C35   A    
C62   N12   S    
C9    C15   A    
C61   C62   A    
C11   N1    S    
C36   Cl6   S    
N3    H18   S    
N14   H39   S    
C44   O6    A    
C10   C11   A    
C13   H2    S    
N18   H47   S    
C63   C64   A    
C39   C40   S    
C41   N9    S    
C20   C21   A    
C60   C68   S    
C8    C67   S    
C65   C66   S    
Cu1   O18   S    
C27   C28   A    
N6    H24   S    
C14   C15   A    
C67   C69   A    
N11   H33   S    
C21   C22   S    
Cu6   O17   S    
C42   C52   S    
N4    H19   S    
N1    H14   S    
C25   C32   S    
C68   Cl12  S    
