data_mof_unit_16240.cif
_audit_creation_date              2012-12-10T17:00:51-0500
_audit_creation_method            fapswitch 2.2
_symmetry_space_group_name_H-M    P1
_symmetry_Int_Tables_number       1
_space_group_crystal_system       triclinic
_cell_length_a                    10.312674
_cell_length_b                    10.755291
_cell_length_c                    10.092978
_cell_angle_alpha                 91.983461
_cell_angle_beta                  100.860469
_cell_angle_gamma                 90.382571
_cell_volume                      1098.66187067

loop_
_atom_site_label
_atom_site_type_symbol
_atom_type_description
_atom_site_fract_x
_atom_site_fract_y
_atom_site_fract_z
_atom_type_partial_charge
C1    C     C_R   0.497269 0.263457 0.496869 0.921294
C2    C     C_2   0.114300 0.486870 0.424245 -0.335989
C3    C     C_2   0.058581 0.383556 0.461611 0.287141
C4    C     C_2   0.883810 0.470213 0.570555 -0.346623
C5    C     C_2   0.922314 0.388385 0.482295 -0.230965
C6    C     C_2   0.539426 0.932320 0.407429 -0.221705
C7    C     C_3   0.142470 0.208362 0.348877 -0.781147
C8    C     C_3   0.436226 0.925942 0.720153 -0.723965
C9    C     C_3   0.686725 0.775229 0.007948 -0.859417
C10   C     C_2   0.524181 0.870119 0.516779 0.047162
C11   C     C_2   0.551437 0.066293 0.411567 -0.161357
C12   C     C_2   0.482125 0.133175 0.486067 -0.251147
C13   C     C_2   0.537773 0.593279 0.939860 0.243854
C14   C     C_2   0.499227 0.598759 0.077186 -0.046333
C15   C     C_R   0.256837 0.498712 0.446412 0.930334
C16   C     C_R   0.504666 0.737586 0.503694 0.847606
C17   C     C_R   0.743239 0.495236 0.553051 0.894503
H1    H     H_    0.850518 0.328482 0.416467 0.163581
H2    H     H_    0.089176 0.207734 0.536077 0.226193
H3    H     H_    0.195673 0.119588 0.368836 0.231129
H4    H     H_    0.200802 0.268380 0.293900 0.276394
H5    H     H_    0.044258 0.187466 0.284677 0.236332
H6    H     H_    0.634863 0.906437 0.708238 0.236494
H7    H     H_    0.444053 0.007645 0.791603 0.263179
H8    H     H_    0.437895 0.840594 0.778690 0.268228
H9    H     H_    0.339904 0.929431 0.649124 0.216553
H10   H     H_    0.668193 0.668666 0.828977 0.262591
H11   H     H_    0.746699 0.842512 0.963075 0.251027
H12   H     H_    0.473512 0.687154 0.119400 0.143871
H13   H     H_    0.753949 0.721309 0.083482 0.251437
H14   H     H_    0.617109 0.829704 0.057649 0.249243
H15   H     H_    0.556056 0.429427 0.119215 0.217737
H16   H     H_    0.954506 0.524897 0.643363 0.167660
H17   H     H_    0.056853 0.570540 0.402326 0.112668
H18   H     H_    0.541867 0.884659 0.311259 0.157335
H19   H     H_    0.615180 0.109866 0.351675 0.163668
H20   H     H_    0.409992 0.093210 0.537450 0.182970
H21   H     H_    0.244993 0.260149 0.762294 0.354037
N1    N     N_2   0.501330 0.501330 0.852460 0.032199
N2    N     N_2   0.501370 0.501360 0.148130 -0.149785
N3    N     N_2   0.126795 0.268340 0.475388 -0.287350
N4    N     N_2   0.546034 0.928941 0.648851 -0.289938
N5    N     N_2   0.615118 0.692530 0.902559 -0.322160
O1    O     O_R   0.499980 0.319060 0.613030 -0.532510
O2    O     O_2   0.284795 0.448242 0.955142 -0.312470
O3    O     O_3   0.298307 0.328328 0.735026 -0.495747
O4    O     O_R   0.500020 0.319100 0.386910 -0.617140
O5    O     O_R   0.317800 0.500000 0.570840 -0.531964
O6    O     O_R   0.317840 0.500040 0.344720 -0.584699
O7    O     O_R   0.499980 0.680900 0.613090 -0.629544
O8    O     O_R   0.500020 0.680940 0.386970 -0.639509
O9    O     O_R   0.682160 0.499960 0.655280 -0.631476
O10   O     O_R   0.682200 0.500000 0.429160 -0.610693
O11   O     O_2   0.451740 0.285268 0.957635 -0.351819
S1    S     S_3+6 0.383683 0.390845 0.879992 0.092606
Zn1   Zn    Zn3+2 0.499970 0.499970 0.650990 1.045779
Zn2   Zn    Zn3+2 0.500030 0.500030 0.349010 0.970645

loop_
_geom_bond_atom_site_label_1
_geom_bond_atom_site_label_2
_ccdc_geom_bond_type
O3    S1    S    
C6    C10   D    
C11   C12   D    
C8    H8    S    
H10   N5    S    
C10   N4    S    
C7    H5    S    
C8    H9    S    
O1    Zn1   S    
C1    O1    A    
N1    Zn1   S    
C16   O8    A    
C2    H17   S    
H15   N2    S    
C2    C3    D    
C9    H11   S    
C10   C16   S    
C13   C14   S    
C7    H4    S    
C2    C15   S    
C1    C12   S    
C6    C11   S    
H6    N4    S    
O9    Zn1   S    
C15   O5    A    
O8    Zn2   S    
C4    C17   S    
C9    H13   S    
C17   O9    A    
C11   H19   S    
C8    H7    S    
C16   O7    A    
C15   O6    A    
C3    N3    S    
C13   N1    D    
N1    S1    S    
C9    N5    S    
H21   O3    S    
C9    H14   S    
C14   H12   S    
C14   N2    D    
C17   O10   A    
C13   N5    S    
O6    Zn2   S    
C6    H18   S    
O2    S1    D    
C7    H3    S    
C12   H20   S    
O4    Zn2   S    
O5    Zn1   S    
O10   Zn2   S    
C4    H16   S    
C1    O4    A    
C5    H1    S    
O11   S1    D    
N2    Zn2   S    
O7    Zn1   S    
H2    N3    S    
C7    N3    S    
C8    N4    S    
C4    C5    D    
C3    C5    S    
