data_mof_unit_60584.cif
_audit_creation_date              2012-12-10T19:02:54-0500
_audit_creation_method            fapswitch 2.2
_symmetry_space_group_name_H-M    P1
_symmetry_Int_Tables_number       1
_space_group_crystal_system       orthorhombic
_cell_length_a                    34.509822
_cell_length_b                    24.386548
_cell_length_c                    24.411581
_cell_angle_alpha                 90.0
_cell_angle_beta                  90.0
_cell_angle_gamma                 90.0
_cell_volume                      20544.1867935

loop_
_atom_site_label
_atom_site_type_symbol
_atom_type_description
_atom_site_fract_x
_atom_site_fract_y
_atom_site_fract_z
_atom_type_partial_charge
C1    C     C_R   0.750023 0.605158 0.394944 0.794667
C2    C     C_R   0.750039 0.894905 0.105117 0.792056
C3    C     C_R   0.458412 0.546725 0.482844 -0.183586
C4    C     C_R   0.041588 0.046725 0.017157 -0.183586
C5    C     C_R   0.958412 0.953275 0.017155 -0.183585
C6    C     C_R   0.041588 0.953275 0.982843 -0.183586
C7    C     C_R   0.958412 0.046725 0.982844 -0.183586
C8    C     C_R   0.581804 0.546857 0.516779 -0.192388
C9    C     C_R   0.418196 0.453143 0.516779 -0.192387
C10   C     C_R   0.581804 0.453143 0.483220 -0.192387
C11   C     C_R   0.418196 0.546857 0.483220 -0.192388
C12   C     C_R   0.081804 0.046856 0.016780 -0.192387
C13   C     C_R   0.250023 0.894842 0.105056 0.794667
C14   C     C_R   0.918196 0.953143 0.016779 -0.192388
C15   C     C_R   0.081804 0.953144 0.983220 -0.192387
C16   C     C_R   0.918196 0.046857 0.983221 -0.192388
C17   C     C_R   0.602070 0.500000 0.500000 0.007144
C18   C     C_R   0.397930 0.500000 0.500000 0.007144
C19   C     C_R   0.102070 1.000000 0.000000 0.007143
C20   C     C_R   0.897930 1.000000 0.000000 0.007143
C21   C     C_R   0.521220 0.500000 0.500000 0.115967
C22   C     C_R   0.478780 0.500000 0.500000 0.115967
C23   C     C_R   0.021220 1.000000 1.000000 0.115967
C24   C     C_R   0.750039 0.105095 0.894883 0.792056
C25   C     C_R   0.978780 1.000000 1.000000 0.115967
C26   C     C_R   0.644244 0.500000 0.500000 0.786344
C27   C     C_R   0.355756 0.500000 0.500000 0.786344
C28   C     C_R   0.144244 0.000000 0.000000 0.786344
C29   C     C_R   0.855756 1.000000 0.000000 0.786345
C30   C     C_R   0.855944 0.500000 0.500000 0.816113
C31   C     C_R   0.144056 0.500000 0.500000 0.816113
C32   C     C_R   0.355944 0.000000 0.000000 0.816113
C33   C     C_R   0.644056 0.000000 0.000000 0.816113
C34   C     C_R   0.081152 0.500005 0.549804 -0.256018
C35   C     C_R   0.749977 0.894842 0.894944 0.794666
C36   C     C_R   0.918848 0.499985 0.450196 -0.256017
C37   C     C_R   0.081152 0.499995 0.450196 -0.256018
C38   C     C_R   0.918848 0.500015 0.549804 -0.256017
C39   C     C_R   0.581152 0.999995 0.049804 -0.256018
C40   C     C_R   0.418848 0.999995 0.950196 -0.256018
C41   C     C_R   0.581152 0.000005 0.950196 -0.256018
C42   C     C_R   0.418848 0.000005 0.049804 -0.256018
C43   C     C_R   0.101525 0.500000 0.500000 -0.046680
C44   C     C_R   0.898475 0.500000 0.500000 -0.046679
C45   C     C_R   0.601525 0.000000 0.000000 -0.046679
C46   C     C_R   0.249960 0.105095 0.105117 0.792056
C47   C     C_R   0.398475 0.000000 0.000000 -0.046679
C48   C     C_R   0.040690 0.499992 0.449854 0.111872
C49   C     C_R   0.959310 0.500013 0.550146 0.111872
C50   C     C_R   0.040690 0.500008 0.550146 0.111872
C51   C     C_R   0.959310 0.499987 0.449854 0.111872
C52   C     C_R   0.540690 0.000002 0.949853 0.111872
C53   C     C_R   0.459310 0.000002 0.050146 0.111872
C54   C     C_R   0.540690 0.999998 0.050146 0.111872
C55   C     C_R   0.459310 0.999998 0.949853 0.111872
C56   C     C_R   0.020358 0.500000 0.500000 0.062188
C57   C     C_R   0.749977 0.105158 0.105056 0.794667
C58   C     C_R   0.979642 0.500000 0.500000 0.062188
C59   C     C_R   0.520358 0.000000 0.000000 0.062188
C60   C     C_R   0.479642 0.000000 0.000000 0.062188
C61   C     C_R   0.020221 0.499981 0.400234 -0.217200
C62   C     C_R   0.979779 0.500023 0.599766 -0.217200
C63   C     C_R   0.020221 0.500019 0.599766 -0.217200
C64   C     C_R   0.979779 0.499977 0.400234 -0.217200
C65   C     C_R   0.520221 0.000002 0.900234 -0.217200
C66   C     C_R   0.479779 0.000002 0.099766 -0.217200
C67   C     C_R   0.520221 0.999998 0.099766 -0.217200
C68   C     C_R   0.249960 0.894905 0.894883 0.792056
C69   C     C_R   0.479779 0.999998 0.900234 -0.217200
C70   C     C_R   0.762035 0.323462 0.740344 -0.190806
C71   C     C_R   0.218004 0.696700 0.279774 -0.191085
C72   C     C_R   0.762035 0.676538 0.259656 -0.190806
C73   C     C_R   0.218004 0.303301 0.720227 -0.191085
C74   C     C_R   0.237964 0.676538 0.740344 -0.190807
C75   C     C_R   0.781996 0.303300 0.279774 -0.191084
C76   C     C_R   0.237964 0.323462 0.259656 -0.190806
C77   C     C_R   0.781995 0.696699 0.720227 -0.191086
C78   C     C_R   0.262035 0.823462 0.240344 -0.190806
C79   C     C_R   0.761959 0.364225 0.700504 -0.200240
C80   C     C_R   0.718004 0.196700 0.779774 -0.191085
C81   C     C_R   0.262035 0.176538 0.759656 -0.190806
C82   C     C_R   0.718004 0.803300 0.220226 -0.191085
C83   C     C_R   0.737964 0.176538 0.240344 -0.190807
C84   C     C_R   0.281996 0.803300 0.779774 -0.191084
C85   C     C_R   0.737965 0.823462 0.759656 -0.190806
C86   C     C_R   0.281996 0.196700 0.220226 -0.191085
C87   C     C_R   0.217538 0.656480 0.320156 -0.201952
C88   C     C_R   0.761959 0.635775 0.299496 -0.200239
C89   C     C_R   0.250040 0.394905 0.605117 0.792056
C90   C     C_R   0.217538 0.343521 0.679845 -0.201952
C91   C     C_R   0.238040 0.635775 0.700504 -0.200240
C92   C     C_R   0.782462 0.343520 0.320156 -0.201953
C93   C     C_R   0.238040 0.364225 0.299496 -0.200241
C94   C     C_R   0.782462 0.656479 0.679845 -0.201953
C95   C     C_R   0.261959 0.864225 0.200504 -0.200239
C96   C     C_R   0.717538 0.156480 0.820156 -0.201952
C97   C     C_R   0.261959 0.135774 0.799496 -0.200239
C98   C     C_R   0.717538 0.843520 0.179844 -0.201952
C99   C     C_R   0.738040 0.135775 0.200504 -0.200239
C100  C     C_R   0.750023 0.394842 0.605056 0.794667
C101  C     C_R   0.282462 0.843520 0.820156 -0.201953
C102  C     C_R   0.738041 0.864226 0.799496 -0.200239
C103  C     C_R   0.282462 0.156480 0.179844 -0.201952
C104  C     C_R   0.750343 0.351967 0.646931 -0.014154
C105  C     C_R   0.250541 0.647145 0.352186 -0.013267
C106  C     C_R   0.750343 0.648033 0.353069 -0.014154
C107  C     C_R   0.250541 0.352855 0.647814 -0.013267
C108  C     C_R   0.249657 0.648033 0.646931 -0.014154
C109  C     C_R   0.749459 0.352855 0.352186 -0.013266
C110  C     C_R   0.249657 0.351967 0.353069 -0.014154
C111  C     C_R   0.250040 0.605095 0.394883 0.792056
C112  C     C_R   0.749459 0.647145 0.647814 -0.013267
C113  C     C_R   0.250343 0.851967 0.146931 -0.014154
C114  C     C_R   0.750541 0.147145 0.852186 -0.013267
C115  C     C_R   0.250343 0.148033 0.853069 -0.014153
C116  C     C_R   0.750541 0.852855 0.147814 -0.013267
C117  C     C_R   0.749657 0.148033 0.146931 -0.014154
C118  C     C_R   0.249459 0.852855 0.852186 -0.013266
C119  C     C_R   0.749657 0.851967 0.853069 -0.014153
C120  C     C_R   0.249459 0.147145 0.147814 -0.013267
C121  C     C_R   0.739248 0.298370 0.633378 -0.243491
C122  C     C_R   0.249977 0.394842 0.394944 0.794667
C123  C     C_R   0.284204 0.677960 0.343014 -0.246275
C124  C     C_R   0.739248 0.701630 0.366621 -0.243491
C125  C     C_R   0.284204 0.322039 0.656986 -0.246274
C126  C     C_R   0.260752 0.701630 0.633378 -0.243492
C127  C     C_R   0.715796 0.322040 0.343014 -0.246275
C128  C     C_R   0.260752 0.298370 0.366621 -0.243491
C129  C     C_R   0.715796 0.677961 0.656986 -0.246274
C130  C     C_R   0.239248 0.798370 0.133379 -0.243490
C131  C     C_R   0.784204 0.177960 0.843014 -0.246274
C132  C     C_R   0.239249 0.201630 0.866622 -0.243491
C133  C     C_R   0.749960 0.605095 0.605117 0.792056
C134  C     C_R   0.784204 0.822040 0.156986 -0.246273
C135  C     C_R   0.760752 0.201630 0.133379 -0.243491
C136  C     C_R   0.215796 0.822040 0.843013 -0.246275
C137  C     C_R   0.760751 0.798370 0.866622 -0.243491
C138  C     C_R   0.215796 0.177960 0.156986 -0.246274
C139  C     C_R   0.740147 0.256877 0.672892 0.104005
C140  C     C_R   0.285191 0.717553 0.301604 0.104150
C141  C     C_R   0.740147 0.743123 0.327108 0.104005
C142  C     C_R   0.285191 0.282446 0.698395 0.104150
C143  C     C_R   0.259853 0.743123 0.672892 0.104006
C144  C     C_R   0.249977 0.605158 0.605056 0.794667
C145  C     C_R   0.714809 0.282447 0.301604 0.104151
C146  C     C_R   0.259852 0.256877 0.327108 0.104005
C147  C     C_R   0.714809 0.717554 0.698395 0.104151
C148  C     C_R   0.240147 0.756877 0.172892 0.104004
C149  C     C_R   0.785191 0.217553 0.801605 0.104151
C150  C     C_R   0.240148 0.243123 0.827108 0.104005
C151  C     C_R   0.785191 0.782447 0.198395 0.104149
C152  C     C_R   0.759853 0.243123 0.172892 0.104005
C153  C     C_R   0.214809 0.782447 0.801604 0.104151
C154  C     C_R   0.759852 0.756877 0.827108 0.104006
C155  C     C_R   0.749960 0.394905 0.394883 0.792055
C156  C     C_R   0.214809 0.217553 0.198395 0.104150
C157  C     C_R   0.751428 0.269572 0.726913 0.126209
C158  C     C_R   0.251750 0.727233 0.269903 0.126374
C159  C     C_R   0.751428 0.730428 0.273086 0.126208
C160  C     C_R   0.251750 0.272767 0.730097 0.126374
C161  C     C_R   0.248572 0.730428 0.726913 0.126209
C162  C     C_R   0.748251 0.272767 0.269903 0.126373
C163  C     C_R   0.248572 0.269572 0.273086 0.126209
C164  C     C_R   0.748250 0.727233 0.730097 0.126374
C165  C     C_R   0.251428 0.769572 0.226914 0.126209
C166  C     C_R   0.250023 0.105158 0.894944 0.794666
C167  C     C_R   0.751749 0.227233 0.769903 0.126374
C168  C     C_R   0.251428 0.230428 0.773086 0.126209
C169  C     C_R   0.751749 0.772767 0.230097 0.126374
C170  C     C_R   0.748572 0.230428 0.226914 0.126209
C171  C     C_R   0.248251 0.772767 0.769903 0.126373
C172  C     C_R   0.748572 0.769572 0.773086 0.126208
C173  C     C_R   0.248250 0.227233 0.230097 0.126374
C174  C     C_R   0.541588 0.546725 0.517156 -0.183586
C175  C     C_R   0.458412 0.453275 0.517156 -0.183586
C176  C     C_R   0.541588 0.453275 0.482844 -0.183586
H1    H     H_    0.096739 0.500009 0.588366 0.165459
H2    H     H_    0.964510 0.500032 0.638554 0.146539
H3    H     H_    0.828480 0.267141 0.826881 0.176680
H4    H     H_    0.249301 0.310395 0.873557 0.188015
H5    H     H_    0.202370 0.298277 0.857928 0.177401
H6    H     H_    0.841970 0.781729 0.218345 0.187777
H7    H     H_    0.828480 0.732858 0.173119 0.176681
H8    H     H_    0.750702 0.310395 0.126443 0.188015
H9    H     H_    0.797633 0.298276 0.142073 0.177400
H10   H     H_    0.158030 0.781729 0.781655 0.187777
H11   H     H_    0.171519 0.732859 0.826881 0.176681
H12   H     H_    0.750699 0.689605 0.873557 0.188015
H13   H     H_    0.035490 0.500026 0.638554 0.146539
H14   H     H_    0.797631 0.701723 0.857928 0.177401
H15   H     H_    0.158030 0.218271 0.218345 0.187777
H16   H     H_    0.171520 0.267141 0.173119 0.176681
H17   H     H_    0.964510 0.499968 0.361446 0.146539
H18   H     H_    0.535490 0.000003 0.861446 0.146539
H19   H     H_    0.464510 0.000003 0.138554 0.146539
H20   H     H_    0.535490 0.999996 0.138554 0.146539
H21   H     H_    0.464510 0.999997 0.861446 0.146539
H22   H     H_    0.770208 0.334026 0.781871 0.148641
H23   H     H_    0.191898 0.704243 0.256310 0.148790
H24   H     H_    0.770208 0.665974 0.218129 0.148641
H25   H     H_    0.903261 0.499972 0.411634 0.165457
H26   H     H_    0.191899 0.295759 0.743691 0.148790
H27   H     H_    0.229792 0.665974 0.781871 0.148641
H28   H     H_    0.808102 0.295757 0.256310 0.148789
H29   H     H_    0.229792 0.334026 0.218129 0.148641
H30   H     H_    0.808101 0.704241 0.743691 0.148789
H31   H     H_    0.270208 0.834026 0.281871 0.148641
H32   H     H_    0.691898 0.204243 0.756310 0.148789
H33   H     H_    0.270207 0.165973 0.718129 0.148641
H34   H     H_    0.691898 0.795757 0.243690 0.148789
H35   H     H_    0.729792 0.165974 0.281871 0.148641
H36   H     H_    0.096739 0.499991 0.411634 0.165459
H37   H     H_    0.308102 0.795757 0.756310 0.148789
H38   H     H_    0.729793 0.834027 0.718129 0.148641
H39   H     H_    0.308102 0.204243 0.243690 0.148790
H40   H     H_    0.770357 0.405515 0.711768 0.159094
H41   H     H_    0.191194 0.633306 0.326965 0.157670
H42   H     H_    0.770357 0.594485 0.288232 0.159094
H43   H     H_    0.191194 0.366696 0.673037 0.157671
H44   H     H_    0.229643 0.594485 0.711768 0.159093
H45   H     H_    0.808806 0.366694 0.326965 0.157669
H46   H     H_    0.229643 0.405515 0.288232 0.159093
H47   H     H_    0.903261 0.500028 0.588366 0.165457
H48   H     H_    0.808805 0.633304 0.673037 0.157669
H49   H     H_    0.270357 0.905515 0.211768 0.159093
H50   H     H_    0.691194 0.133306 0.826965 0.157670
H51   H     H_    0.270356 0.094484 0.788232 0.159093
H52   H     H_    0.691194 0.866694 0.173035 0.157670
H53   H     H_    0.729643 0.094485 0.211768 0.159093
H54   H     H_    0.308806 0.866694 0.826965 0.157670
H55   H     H_    0.729644 0.905516 0.788232 0.159093
H56   H     H_    0.308806 0.133306 0.173035 0.157670
H57   H     H_    0.730660 0.288362 0.591860 0.155146
H58   H     H_    0.596739 0.999990 0.088366 0.165458
H59   H     H_    0.310031 0.670561 0.367168 0.153235
H60   H     H_    0.730660 0.711638 0.408140 0.155146
H61   H     H_    0.310031 0.329437 0.632830 0.153236
H62   H     H_    0.269340 0.711637 0.591860 0.155146
H63   H     H_    0.689969 0.329439 0.367168 0.153235
H64   H     H_    0.269340 0.288362 0.408140 0.155146
H65   H     H_    0.689969 0.670563 0.632830 0.153236
H66   H     H_    0.230660 0.788362 0.091860 0.155146
H67   H     H_    0.810031 0.170561 0.867169 0.153235
H68   H     H_    0.230662 0.211638 0.908140 0.155145
H69   H     H_    0.403261 0.999990 0.911634 0.165458
H70   H     H_    0.810031 0.829439 0.132831 0.153235
H71   H     H_    0.769340 0.211637 0.091860 0.155146
H72   H     H_    0.189969 0.829439 0.867168 0.153235
H73   H     H_    0.769338 0.788362 0.908140 0.155145
H74   H     H_    0.189969 0.170561 0.132831 0.153235
H75   H     H_    0.526447 0.582896 0.531448 0.130549
H76   H     H_    0.473553 0.417104 0.531448 0.130550
H77   H     H_    0.526447 0.417104 0.468552 0.130550
H78   H     H_    0.473553 0.582896 0.468552 0.130549
H79   H     H_    0.026447 0.082895 0.031449 0.130549
H80   H     H_    0.596739 0.000010 0.911634 0.165458
H81   H     H_    0.973553 0.917104 0.031447 0.130549
H82   H     H_    0.026447 0.917105 0.968550 0.130550
H83   H     H_    0.973553 0.082896 0.968553 0.130549
H84   H     H_    0.597019 0.583269 0.530326 0.154015
H85   H     H_    0.402981 0.416731 0.530326 0.154015
H86   H     H_    0.597019 0.416731 0.469674 0.154015
H87   H     H_    0.402981 0.583269 0.469674 0.154015
H88   H     H_    0.097018 0.083268 0.030327 0.154015
H89   H     H_    0.902981 0.916731 0.030325 0.154016
H90   H     H_    0.097019 0.916731 0.969673 0.154015
H91   H     H_    0.403261 0.000010 0.088366 0.165458
H92   H     H_    0.902981 0.083269 0.969675 0.154016
H93   H     H_    0.749299 0.189605 0.626443 0.188015
H94   H     H_    0.702368 0.201724 0.642073 0.177401
H95   H     H_    0.341970 0.718271 0.281655 0.187777
H96   H     H_    0.328480 0.767141 0.326881 0.176681
H97   H     H_    0.749299 0.810395 0.373557 0.188015
H98   H     H_    0.702368 0.798276 0.357927 0.177401
H99   H     H_    0.341970 0.281727 0.718343 0.187777
H100  H     H_    0.328479 0.232857 0.673117 0.176680
H101  H     H_    0.250701 0.810395 0.626443 0.188015
H102  H     H_    0.035490 0.499974 0.361446 0.146539
H103  H     H_    0.297633 0.798276 0.642073 0.177401
H104  H     H_    0.658030 0.281729 0.281655 0.187777
H105  H     H_    0.671520 0.232859 0.326881 0.176680
H106  H     H_    0.250701 0.189605 0.373557 0.188015
H107  H     H_    0.297632 0.201724 0.357927 0.177401
H108  H     H_    0.658030 0.718273 0.718343 0.187777
H109  H     H_    0.671521 0.767143 0.673117 0.176680
H110  H     H_    0.249299 0.689605 0.126443 0.188015
H111  H     H_    0.202368 0.701724 0.142073 0.177401
H112  H     H_    0.841970 0.218271 0.781655 0.187777
N1    N     N_3   0.730544 0.201750 0.657817 -0.470499
N2    N     N_3   0.820368 0.246865 0.790926 -0.470028
N3    N     N_3   0.230546 0.298251 0.842183 -0.470499
N4    N     N_3   0.820368 0.753135 0.209074 -0.470028
N5    N     N_3   0.769456 0.298250 0.157817 -0.470498
N6    N     N_3   0.179632 0.753135 0.790926 -0.470028
N7    N     N_3   0.769454 0.701749 0.842183 -0.470499
N8    N     N_3   0.179632 0.246865 0.209073 -0.470029
N9    N     N_3   0.320368 0.746865 0.290926 -0.470028
N10   N     N_3   0.730544 0.798250 0.342183 -0.470499
N11   N     N_3   0.320368 0.253133 0.709072 -0.470028
N12   N     N_3   0.269456 0.798250 0.657818 -0.470498
N13   N     N_3   0.679632 0.253135 0.290926 -0.470028
N14   N     N_3   0.269456 0.201750 0.342183 -0.470499
N15   N     N_3   0.679632 0.746866 0.709072 -0.470028
N16   N     N_3   0.230544 0.701750 0.157817 -0.470499
O1    O     O_3   0.750010 0.500000 0.500000 -0.474673
O2    O     O_R   0.772930 0.563990 0.609460 -0.645242
O3    O     O_R   0.227070 0.563990 0.609460 -0.643517
O4    O     O_R   0.772930 0.436010 0.390540 -0.645241
O5    O     O_R   0.272930 0.063990 0.890540 -0.643516
O6    O     O_R   0.727070 0.936010 0.109460 -0.645241
O7    O     O_R   0.272930 0.936010 0.109460 -0.643516
O8    O     O_R   0.727070 0.063990 0.890540 -0.645241
O9    O     O_R   0.727070 0.936010 0.890540 -0.643516
O10   O     O_R   0.272930 0.063990 0.109460 -0.645241
O11   O     O_R   0.727070 0.063990 0.109460 -0.643516
O12   O     O_3   0.249990 0.500000 0.500000 -0.474673
O13   O     O_R   0.272930 0.936010 0.890540 -0.645241
O14   O     O_R   0.727090 0.609470 0.563990 -0.647887
O15   O     O_R   0.272910 0.390530 0.436010 -0.644666
O16   O     O_R   0.727090 0.390530 0.436010 -0.647887
O17   O     O_R   0.272910 0.609470 0.563990 -0.644666
O18   O     O_R   0.272910 0.390530 0.563990 -0.647887
O19   O     O_R   0.727090 0.609470 0.436010 -0.644666
O20   O     O_R   0.272910 0.609470 0.436010 -0.647887
O21   O     O_R   0.727090 0.390530 0.563990 -0.644666
O22   O     O_R   0.227090 0.109470 0.063990 -0.647887
O23   O     O_3   0.250010 0.000000 0.000000 -0.474673
O24   O     O_R   0.772910 0.890530 0.936010 -0.644666
O25   O     O_R   0.227090 0.890530 0.936010 -0.647887
O26   O     O_R   0.772910 0.109470 0.063990 -0.644666
O27   O     O_R   0.772910 0.890530 0.063990 -0.647887
O28   O     O_R   0.227090 0.109470 0.936010 -0.644666
O29   O     O_R   0.772910 0.109470 0.936010 -0.647887
O30   O     O_R   0.227090 0.890530 0.063990 -0.644666
O31   O     O_R   0.662570 0.545500 0.500000 -0.647744
O32   O     O_R   0.337430 0.454500 0.500000 -0.647743
O33   O     O_R   0.662570 0.454500 0.500000 -0.647743
O34   O     O_3   0.749990 0.000000 0.000000 -0.474673
O35   O     O_R   0.337430 0.545500 0.500000 -0.647744
O36   O     O_R   0.162570 0.045500 0.000000 -0.647744
O37   O     O_R   0.837430 0.954500 0.000000 -0.647744
O38   O     O_R   0.162570 0.954500 0.000000 -0.647744
O39   O     O_R   0.837430 0.045500 0.000000 -0.647744
O40   O     O_R   0.837440 0.500000 0.454520 -0.648497
O41   O     O_R   0.162560 0.500000 0.545480 -0.648497
O42   O     O_R   0.837440 0.500000 0.545480 -0.648497
O43   O     O_R   0.162560 0.500000 0.454520 -0.648497
O44   O     O_R   0.337440 0.000000 0.954520 -0.648497
O45   O     O_R   0.772930 0.563990 0.390540 -0.643515
O46   O     O_R   0.662560 0.000000 0.045480 -0.648497
O47   O     O_R   0.337440 0.000000 0.045480 -0.648497
O48   O     O_R   0.662560 0.000000 0.954520 -0.648497
O49   O     O_R   0.227070 0.436010 0.609460 -0.645241
O50   O     O_R   0.772930 0.436010 0.609460 -0.643515
O51   O     O_R   0.227070 0.563990 0.390540 -0.645240
O52   O     O_R   0.227070 0.436010 0.390540 -0.643517
Zn1   Zn    Zn3+2 0.782760 0.500000 0.564970 0.964958
Zn2   Zn    Zn3+2 0.282740 0.435020 0.500000 0.962036
Zn3   Zn    Zn3+2 0.717260 0.435020 0.500000 0.962036
Zn4   Zn    Zn3+2 0.282740 0.564980 0.500000 0.962036
Zn5   Zn    Zn3+2 0.217260 0.064980 0.000000 0.962036
Zn6   Zn    Zn3+2 0.782740 0.935020 0.000000 0.962036
Zn7   Zn    Zn3+2 0.217260 0.935020 0.000000 0.962036
Zn8   Zn    Zn3+2 0.782740 0.064980 0.000000 0.962036
Zn9   Zn    Zn3+2 0.217240 0.500000 0.435030 0.964958
Zn10  Zn    Zn3+2 0.782760 0.500000 0.435030 0.964958
Zn11  Zn    Zn3+2 0.217240 0.500000 0.564970 0.964958
Zn12  Zn    Zn3+2 0.282760 0.000000 0.064970 0.964958
Zn13  Zn    Zn3+2 0.717240 0.000000 0.935030 0.964958
Zn14  Zn    Zn3+2 0.282760 0.000000 0.935030 0.964958
Zn15  Zn    Zn3+2 0.717240 0.000000 0.064970 0.964958
Zn16  Zn    Zn3+2 0.717260 0.564980 0.500000 0.962036

loop_
_geom_bond_atom_site_label_1
_geom_bond_atom_site_label_2
_ccdc_geom_bond_type
C81   H33   S    
C150  N3    S    
O7    Zn12  S    
C33   C45   S    
C61   H102  S    
O18   Zn2   S    
C7    H83   S    
C139  N1    S    
C84   C171  A    
C73   C160  A    
C166  O5    A    
C75   C162  A    
C90   C107  A    
C31   O43   A    
C147  C164  A    
C28   O38   A    
C92   C109  A    
C74   H27   S    
C126  C143  A    
C100  C104  S    
C132  C150  A    
C105  C123  A    
C78   H31   S    
C72   C88   A    
C2    C116  S    
C109  C127  A    
O39   Zn8   S    
C112  C129  A    
C4    C12   A    
C26   O31   A    
C93   C110  A    
C54   C59   A    
C27   O35   A    
C59   C60   A    
C166  O28   A    
C21   C22   S    
C148  C165  A    
C82   C98   A    
C96   C114  A    
H99   N11   S    
C143  N12   S    
C147  N15   S    
C156  C173  A    
C29   O39   A    
C46   O22   A    
O35   Zn4   S    
C32   O47   A    
C4    C23   A    
C10   H86   S    
O30   Zn7   S    
C96   H50   S    
C38   H47   S    
O42   Zn1   S    
O14   Zn16  S    
C152  C170  A    
C41   H80   S    
C16   C20   A    
C40   C55   A    
C150  C168  A    
H11   N6    S    
C127  C145  A    
C5    C25   A    
C32   C47   S    
C36   C44   A    
C120  C138  A    
C117  C135  A    
C108  C144  S    
H100  N11   S    
C118  C136  A    
O5    Zn14  S    
C65   H18   S    
C78   C165  A    
C49   C62   A    
C70   C79   A    
C51   C64   A    
O20   Zn4   S    
C31   O41   A    
H8    N5    S    
C35   O24   A    
C54   C67   A    
O41   Zn11  S    
C8    C17   A    
O47   Zn12  S    
C70   C157  A    
C122  O52   A    
O43   Zn9   S    
C136  C153  A    
C134  C151  A    
C160  C168  S    
C129  C147  A    
C3    C11   A    
H106  N14   S    
C124  H60   S    
C139  C157  A    
O27   Zn6   S    
C155  O16   A    
C106  C124  A    
C41   C45   A    
C34   H1    S    
O17   Zn4   S    
C108  C126  A    
C68   O25   A    
C134  H70   S    
C102  C119  A    
C158  C165  S    
C110  C128  A    
O16   Zn3   S    
C11   C18   A    
C24   C114  S    
C49   C58   A    
O38   Zn7   S    
C111  O20   A    
C15   H90   S    
H94   N1    S    
C40   H69   S    
C31   C43   S    
H104  N13   S    
C73   C90   A    
C42   C53   A    
C8    C174  A    
C174  H75   S    
C39   C54   A    
C72   H24   S    
C30   O40   A    
C135  C152  A    
C77   C94   A    
C151  N4    S    
C12   H88   S    
C144  O17   A    
C68   C118  S    
C176  H77   S    
C13   O30   A    
C141  C159  A    
C142  N11   S    
C101  H54   S    
C144  O3    A    
C39   C45   A    
C77   C164  A    
C66   C67   A    
C82   C169  A    
C70   H22   S    
O6    Zn15  S    
C94   H48   S    
C50   C63   A    
H10   N6    S    
C99   H53   S    
C53   C60   A    
C145  N13   S    
C115  C132  A    
C113  C130  A    
C135  H71   S    
C107  C125  A    
C50   C56   A    
H97   N10   S    
C13   O7    A    
H112  N2    S    
C8    H84   S    
C95   H49   S    
H93   N1    S    
C99   C117  A    
C87   C105  A    
C100  O21   A    
C5    H81   S    
C46   C120  S    
C19   C28   S    
C55   C69   A    
C79   H40   S    
C80   H32   S    
O24   Zn6   S    
C21   C174  A    
H111  N16   S    
C124  C141  A    
C164  C172  S    
C97   C115  A    
C36   H25   S    
C67   H20   S    
C163  C173  S    
C84   H37   S    
C141  N10   S    
O3    Zn11  S    
C149  N2    S    
C34   C43   A    
C138  H74   S    
C140  N9    S    
C153  N6    S    
C151  C169  A    
C35   O9    A    
C121  C139  A    
C152  N5    S    
C85   H38   S    
C130  H66   S    
C128  C146  A    
C148  N16   S    
C94   C112  A    
C88   H42   S    
C9    C175  A    
O48   Zn13  S    
C133  O2    A    
C52   C65   A    
C161  C171  S    
C9    C18   A    
H9    N5    S    
O11   Zn15  S    
C76   C163  A    
C42   H91   S    
O31   Zn16  S    
O44   Zn14  S    
C85   C102  A    
C89   O49   A    
C82   H34   S    
C57   O26   A    
H108  N15   S    
C127  H63   S    
O28   Zn5   S    
C114  C131  A    
C103  C120  A    
C149  C167  A    
C157  C167  S    
C66   H19   S    
C38   C49   A    
C15   C19   A    
C72   C159  A    
H109  N15   S    
O10   Zn12  S    
C89   O18   A    
H110  N16   S    
C92   H45   S    
O34   Zn15  S    
C26   O33   A    
C143  C161  A    
C116  C134  A    
C136  H72   S    
H3    N2    S    
C91   H44   S    
C93   H46   S    
O34   Zn8   S    
C24   O8    A    
C14   H89   S    
O45   Zn10  S    
C105  C111  S    
O52   Zn9   S    
H16   N8    S    
C83   C99   A    
C55   C60   A    
C30   C44   S    
O15   Zn2   S    
C22   C175  A    
C154  N7    S    
C14   C20   A    
C24   O29   A    
C1    O45   A    
O1    Zn3   S    
O9    Zn13  S    
C2    O27   A    
O32   Zn2   S    
C74   C91   A    
C37   C43   A    
C61   C64   A    
C37   H36   S    
C38   C44   A    
C62   C63   A    
C76   C93   A    
H101  N12   S    
C162  C170  S    
O4    Zn10  S    
C78   C95   A    
C33   O46   A    
C89   C107  S    
O36   Zn5   S    
C51   C58   A    
C115  C166  S    
C5    C14   A    
C71   C87   A    
C146  N14   S    
H107  N14   S    
C7    C16   A    
C97   H51   S    
C121  H57   S    
C102  H55   S    
C57   O11   A    
C101  C118  A    
C125  H61   S    
C76   H29   S    
C57   C117  S    
O33   Zn3   S    
C71   C158  A    
C159  C169  S    
C91   C108  A    
O34   Zn13  S    
O22   Zn5   S    
H7    N4    S    
C39   H58   S    
C137  H73   S    
O46   Zn15  S    
C71   H23   S    
C128  H64   S    
C73   H26   S    
C7    C25   A    
C6    H82   S    
C86   C173  A    
C3    H78   S    
C77   H30   S    
C110  C122  S    
C129  H65   S    
C65   C69   A    
C12   C19   A    
C81   C168  A    
C137  C154  A    
O34   Zn6   S    
C109  C155  S    
C155  O4    A    
O2    Zn1   S    
C27   O32   A    
H5    N3    S    
H6    N4    S    
O1    Zn10  S    
C40   C47   A    
C33   O48   A    
O23   Zn7   S    
C35   C119  S    
C112  C133  S    
C48   C61   A    
C68   O13   A    
C17   C26   S    
C133  O14   A    
H98   N10   S    
O1    Zn1   S    
O49   Zn11  S    
O25   Zn7   S    
C145  C162  A    
C10   C17   A    
O51   Zn9   S    
C83   C170  A    
C86   H39   S    
O12   Zn9   S    
C6    C15   A    
C56   C58   A    
C9    H85   S    
O8    Zn13  S    
C11   H87   S    
C80   C96   A    
C41   C52   A    
C30   O42   A    
C1    C106  S    
C140  C158  A    
C23   C25   S    
H14   N7    S    
C111  O51   A    
C122  O15   A    
O23   Zn12  S    
C69   H21   S    
C84   C101  A    
C32   O44   A    
O12   Zn2   S    
C86   C103  A    
C1    O19   A    
C132  H68   S    
C98   H52   S    
C20   C29   S    
O21   Zn3   S    
C10   C176  A    
C34   C50   A    
C85   C172  A    
C156  N8    S    
H4    N3    S    
C130  C148  A    
C119  C137  A    
H95   N9    S    
C104  C121  A    
C63   H13   S    
C123  C140  A    
H103  N12   S    
O23   Zn14  S    
O19   Zn16  S    
C52   C59   A    
C28   O36   A    
C88   C106  A    
C98   C116  A    
C125  C142  A    
C21   C176  A    
C64   H17   S    
C153  C171  A    
C154  C172  A    
C37   C48   A    
C53   C66   A    
C90   H43   S    
C16   H92   S    
C36   C51   A    
C75   C92   A    
H15   N8    S    
O23   Zn5   S    
C123  H59   S    
C79   C104  A    
O37   Zn6   S    
H105  N13   S    
C138  C156  A    
C103  H56   S    
C48   C56   A    
C80   C167  A    
O29   Zn8   S    
C18   C27   S    
C142  C160  A    
C3    C22   A    
C62   H2    S    
C74   C161  A    
C75   H28   S    
O50   Zn1   S    
C146  C163  A    
C29   O37   A    
O40   Zn10  S    
O12   Zn11  S    
C131  H67   S    
C46   O10   A    
C100  O50   A    
C175  H76   S    
C81   C97   A    
C95   C113  A    
C6    C23   A    
C42   C47   A    
C87   H41   S    
C83   H35   S    
H12   N7    S    
C131  C149  A    
O26   Zn8   S    
O1    Zn16  S    
C2    O6    A    
O13   Zn14  S    
C4    H79   S    
O12   Zn4   S    
H96   N9    S    
C13   C113  S    
C126  H62   S    
