data_mof_unit_61521.cif
_audit_creation_date              2012-12-10T19:38:45-0500
_audit_creation_method            fapswitch 2.2
_symmetry_space_group_name_H-M    P1
_symmetry_Int_Tables_number       1
_space_group_crystal_system       triclinic
_cell_length_a                    25.895131
_cell_length_b                    43.152983
_cell_length_c                    25.021854
_cell_angle_alpha                 89.957515
_cell_angle_beta                  120.789766
_cell_angle_gamma                 90.013084
_cell_volume                      24019.6909472

loop_
_atom_site_label
_atom_site_type_symbol
_atom_type_description
_atom_site_fract_x
_atom_site_fract_y
_atom_site_fract_z
_atom_type_partial_charge
C1    C     C_R   0.359560 0.750338 0.999356 0.786904
C2    C     C_R   0.640403 0.249674 0.000582 0.787875
C3    C     C_R   0.640423 0.750329 0.000595 0.791185
C4    C     C_R   0.359579 0.249663 0.999401 0.788695
C5    C     C_R   0.859595 0.250319 0.999420 0.786940
C6    C     C_R   0.140438 0.749645 0.000657 0.788373
C7    C     C_R   0.140422 0.250329 0.000595 0.787877
C8    C     C_R   0.859579 0.749662 0.999399 0.788749
C9    C     C_R   0.510189 0.968188 0.007707 0.178699
C10   C     C_R   0.506818 0.032952 0.006621 0.254572
C11   C     C_R   0.003242 0.468178 0.002782 0.182419
C12   C     C_R   0.001263 0.532937 0.002293 0.254661
C13   C     C_R   0.500012 0.532399 0.000004 0.132876
C14   C     C_R   0.499969 0.467602 0.999976 0.133214
C15   C     C_R   0.000026 0.032398 0.000022 0.132621
C16   C     C_R   0.999980 0.967602 0.999990 0.132863
C17   C     C_R   0.785356 0.715300 0.213529 -0.112791
C18   C     C_R   0.214082 0.283927 0.785798 -0.112470
C19   C     C_R   0.216091 0.712873 0.788546 -0.112969
C20   C     C_R   0.786042 0.283291 0.214485 -0.112643
C21   C     C_R   0.285454 0.215415 0.213635 -0.112766
C22   C     C_R   0.714098 0.783933 0.785805 -0.111249
C23   C     C_R   0.714166 0.216198 0.785880 -0.112774
C24   C     C_R   0.285507 0.785435 0.213157 -0.113253
C25   C     C_R   0.782474 0.717706 0.156307 -0.128753
C26   C     C_R   0.217062 0.281747 0.843096 -0.130091
C27   C     C_R   0.218851 0.715925 0.845607 -0.128043
C28   C     C_R   0.783117 0.281269 0.157201 -0.130682
C29   C     C_R   0.282561 0.217792 0.156403 -0.128622
C30   C     C_R   0.717079 0.781755 0.843103 -0.128327
C31   C     C_R   0.717055 0.218380 0.843128 -0.128826
C32   C     C_R   0.282350 0.782907 0.155824 -0.130444
C33   C     C_R   0.757238 0.744128 0.118965 0.124991
C34   C     C_R   0.242747 0.255527 0.880955 0.125997
C35   C     C_R   0.242783 0.742920 0.881306 0.126743
C36   C     C_R   0.757234 0.255179 0.119068 0.126327
C37   C     C_R   0.257241 0.244181 0.118980 0.125699
C38   C     C_R   0.742748 0.755532 0.880956 0.124707
C39   C     C_R   0.742761 0.244581 0.880962 0.125739
C40   C     C_R   0.257297 0.756363 0.118918 0.126832
C41   C     C_R   0.736166 0.768354 0.140374 -0.129906
C42   C     C_R   0.264188 0.231269 0.859992 -0.128948
C43   C     C_R   0.262635 0.767056 0.858420 -0.131247
C44   C     C_R   0.735544 0.230887 0.139746 -0.129169
C45   C     C_R   0.236094 0.268405 0.140316 -0.130899
C46   C     C_R   0.764173 0.731268 0.859987 -0.129166
C47   C     C_R   0.764303 0.268820 0.860013 -0.130981
C48   C     C_R   0.236655 0.732147 0.140852 -0.128731
C49   C     C_R   0.739298 0.765873 0.197678 -0.110342
C50   C     C_R   0.260975 0.233527 0.802622 -0.111060
C51   C     C_R   0.259571 0.763937 0.801252 -0.109706
C52   C     C_R   0.738697 0.232989 0.197099 -0.111834
C53   C     C_R   0.239230 0.265952 0.197627 -0.110733
C54   C     C_R   0.760958 0.733525 0.802615 -0.111151
C55   C     C_R   0.761194 0.266557 0.802698 -0.111319
C56   C     C_R   0.240075 0.734747 0.198272 -0.109522
C57   C     C_R   0.763566 0.739304 0.234064 -0.071787
C58   C     C_R   0.236228 0.259895 0.765708 -0.071518
C59   C     C_R   0.236674 0.736801 0.766531 -0.069994
C60   C     C_R   0.763640 0.259231 0.234286 -0.071203
C61   C     C_R   0.263588 0.239416 0.234096 -0.071515
C62   C     C_R   0.736228 0.759896 0.765708 -0.072155
C63   C     C_R   0.736432 0.240206 0.765815 -0.071657
C64   C     C_R   0.264187 0.761429 0.234238 -0.071246
C65   C     C_R   0.304883 0.245000 0.054868 -0.228040
C66   C     C_R   0.695115 0.754940 0.945103 -0.226874
C67   C     C_R   0.695087 0.245191 0.945070 -0.227789
C68   C     C_R   0.304811 0.755359 0.054714 -0.229506
C69   C     C_R   0.804880 0.744980 0.054859 -0.227364
C70   C     C_R   0.195114 0.254933 0.945102 -0.228739
C71   C     C_R   0.195206 0.744488 0.945373 -0.228173
C72   C     C_R   0.804909 0.254756 0.054943 -0.229131
C73   C     C_R   0.302938 0.248973 0.998344 -0.044148
C74   C     C_R   0.697061 0.750978 0.001633 -0.045891
C75   C     C_R   0.697045 0.248987 0.001630 -0.043441
C76   C     C_R   0.302915 0.750943 0.998322 -0.045152
C77   C     C_R   0.802937 0.748969 0.998340 -0.043845
C78   C     C_R   0.197061 0.250982 0.001635 -0.044819
C79   C     C_R   0.197094 0.748955 0.001742 -0.044603
C80   C     C_R   0.802950 0.250978 0.998376 -0.044358
C81   C     C_R   0.415246 0.750413 0.831727 0.822471
C82   C     C_R   0.584934 0.249399 0.168228 0.823886
C83   C     C_R   0.584886 0.750527 0.168234 0.823496
C84   C     C_R   0.415050 0.249407 0.831779 0.823831
C85   C     C_R   0.915096 0.250570 0.831758 0.821777
C86   C     C_R   0.084978 0.749357 0.168207 0.824273
C87   C     C_R   0.084893 0.250534 0.168235 0.822815
C88   C     C_R   0.915047 0.749405 0.831780 0.823840
C89   C     C_R   0.247531 0.253567 0.942563 0.001992
C90   C     C_R   0.752461 0.746301 0.057389 0.001621
C91   C     C_R   0.752473 0.253399 0.057458 0.002005
C92   C     C_R   0.247580 0.745759 0.942782 0.000627
C93   C     C_R   0.747531 0.753571 0.942562 0.002251
C94   C     C_R   0.252464 0.246325 0.057398 0.001572
C95   C     C_R   0.252445 0.753988 0.057338 0.001574
C96   C     C_R   0.747525 0.246514 0.942559 0.001666
C97   C     C_R   0.552839 0.384872 0.039569 -0.210237
C98   C     C_R   0.447134 0.615131 0.960485 -0.209456
C99   C     C_R   0.447112 0.384886 0.960395 -0.210079
C100  C     C_R   0.552903 0.615113 0.039533 -0.209343
C101  C     C_R   0.052849 0.884870 0.039554 -0.210183
C102  C     C_R   0.947136 0.115129 0.960501 -0.209129
C103  C     C_R   0.947109 0.884887 0.960419 -0.209614
C104  C     C_R   0.052909 0.115114 0.039535 -0.209221
C105  C     C_R   0.499978 0.368420 0.999984 -0.085364
C106  C     C_R   0.500018 0.631581 0.000010 -0.085291
C107  C     C_R   0.999981 0.868419 0.999987 -0.085555
C108  C     C_R   0.000020 0.131581 0.000016 -0.085440
C109  C     C_R   0.864418 0.719364 0.731230 0.095979
C110  C     C_R   0.135842 0.280034 0.269434 0.099146
C111  C     C_R   0.136672 0.718609 0.267857 0.094882
C112  C     C_R   0.864885 0.280196 0.730567 0.098504
C113  C     C_R   0.364476 0.219394 0.731193 0.095899
C114  C     C_R   0.635989 0.779993 0.269463 0.098796
C115  C     C_R   0.635262 0.219439 0.268985 0.096033
C116  C     C_R   0.362425 0.778858 0.729251 0.094053
C117  C     C_R   0.831353 0.719357 0.665568 0.177953
C118  C     C_R   0.168540 0.279703 0.335090 0.175974
C119  C     C_R   0.170211 0.718082 0.333495 0.177544
C120  C     C_R   0.832107 0.279914 0.664904 0.173756
C121  C     C_R   0.331438 0.219406 0.665530 0.177894
C122  C     C_R   0.668659 0.779645 0.335119 0.176056
C123  C     C_R   0.668245 0.219498 0.334650 0.178108
C124  C     C_R   0.330336 0.777930 0.663638 0.184390
C125  C     C_R   0.812401 0.747708 0.633244 0.033282
C126  C     C_R   0.186518 0.251169 0.366842 0.033833
C127  C     C_R   0.189023 0.746195 0.366610 0.033327
C128  C     C_R   0.813326 0.251430 0.633149 0.034155
C129  C     C_R   0.312478 0.247765 0.633239 0.033383
C130  C     C_R   0.686443 0.751097 0.366843 0.033841
C131  C     C_R   0.687318 0.247874 0.366779 0.033353
C132  C     C_R   0.315426 0.749081 0.633029 0.030726
C133  C     C_R   0.825527 0.775658 0.665785 -0.173934
C134  C     C_R   0.172675 0.223370 0.333737 -0.173497
C135  C     C_R   0.175367 0.774429 0.334846 -0.173257
C136  C     C_R   0.826431 0.223633 0.666241 -0.173863
C137  C     C_R   0.325575 0.275704 0.665811 -0.174172
C138  C     C_R   0.672426 0.723302 0.333708 -0.173288
C139  C     C_R   0.674355 0.275781 0.334052 -0.174534
C140  C     C_R   0.331929 0.721553 0.667260 -0.171652
C141  C     C_R   0.858351 0.775779 0.730391 -0.231212
C142  C     C_R   0.140160 0.223597 0.269121 -0.230697
C143  C     C_R   0.142091 0.775058 0.270249 -0.232325
C144  C     C_R   0.859000 0.223798 0.730848 -0.230433
C145  C     C_R   0.358375 0.275806 0.730418 -0.231333
C146  C     C_R   0.639933 0.723548 0.269090 -0.230731
C147  C     C_R   0.641601 0.275840 0.269450 -0.231066
C148  C     C_R   0.363937 0.722412 0.731887 -0.227543
C149  C     C_R   0.878975 0.747955 0.763569 -0.096966
C150  C     C_R   0.120587 0.251625 0.236498 -0.097395
C151  C     C_R   0.121525 0.747464 0.236338 -0.095992
C152  C     C_R   0.879374 0.251760 0.763492 -0.099270
C153  C     C_R   0.379001 0.247974 0.763565 -0.097059
C154  C     C_R   0.620556 0.751592 0.236499 -0.097647
C155  C     C_R   0.620891 0.247994 0.236453 -0.097202
C156  C     C_R   0.380307 0.750816 0.763378 -0.092863
C157  C     C_R   0.716352 0.748104 0.530365 0.201678
C158  C     C_R   0.282531 0.250466 0.469699 0.202121
C159  C     C_R   0.285262 0.746691 0.469367 0.201501
C160  C     C_R   0.717301 0.251015 0.530294 0.201658
C161  C     C_R   0.216434 0.248124 0.530362 0.201626
C162  C     C_R   0.782452 0.750318 0.469699 0.202117
C163  C     C_R   0.783360 0.248053 0.469648 0.201694
C164  C     C_R   0.219398 0.746982 0.530355 0.202284
C165  C     C_R   0.500008 0.665784 0.000005 0.820315
C166  C     C_R   0.499991 0.334216 0.999994 0.820384
C167  C     C_R   0.000009 0.165784 0.000006 0.820820
C168  C     C_R   0.999992 0.834216 0.999994 0.820602
C169  C     C_R   0.686607 0.748648 0.465525 -0.195298
C170  C     C_R   0.312271 0.249921 0.534533 -0.194923
C171  C     C_R   0.315146 0.747009 0.534230 -0.195374
C172  C     C_R   0.687551 0.250404 0.465465 -0.195188
C173  C     C_R   0.186689 0.248672 0.465523 -0.195277
C174  C     C_R   0.812193 0.749778 0.534532 -0.194740
C175  C     C_R   0.813112 0.248662 0.534481 -0.195165
C176  C     C_R   0.189531 0.746675 0.465519 -0.193544
C177  C     C_R   0.719274 0.749838 0.435004 0.024057
C178  C     C_R   0.279609 0.248717 0.565057 0.024059
C179  C     C_R   0.282588 0.747321 0.564910 0.022374
C180  C     C_R   0.720195 0.248883 0.434951 0.024094
C181  C     C_R   0.219354 0.249923 0.435003 0.024218
C182  C     C_R   0.779529 0.748641 0.565059 0.024025
C183  C     C_R   0.780467 0.250214 0.564991 0.024241
C184  C     C_R   0.222070 0.746583 0.434823 0.024175
C185  C     C_R   0.553096 0.417230 0.039762 0.160466
C186  C     C_R   0.446872 0.582773 0.960289 0.160856
C187  C     C_R   0.446846 0.417245 0.960194 0.160415
C188  C     C_R   0.553164 0.582753 0.039726 0.160988
C189  C     C_R   0.053109 0.917229 0.039750 0.160641
C190  C     C_R   0.946877 0.082771 0.960311 0.160898
C191  C     C_R   0.946846 0.917246 0.960223 0.160540
C192  C     C_R   0.053174 0.082755 0.039733 0.161091
C193  C     C_R   0.499969 0.433602 0.999977 -0.034880
C194  C     C_R   0.500017 0.566399 0.000007 -0.035414
C195  C     C_R   0.999977 0.933601 0.999987 -0.035333
C196  C     C_R   0.000027 0.066399 0.000023 -0.035627
C197  C     C_R   0.508508 0.483854 0.956588 -0.109102
C198  C     C_R   0.491472 0.516148 0.043391 -0.109158
C199  C     C_R   0.491451 0.483814 0.043378 -0.109289
C200  C     C_R   0.508529 0.516187 0.956601 -0.108820
C201  C     C_R   0.008507 0.983854 0.956594 -0.109362
C202  C     C_R   0.991499 0.016147 0.043418 -0.109028
C203  C     C_R   0.991476 0.983814 0.043402 -0.108930
C204  C     C_R   0.008529 0.016187 0.956610 -0.108823
C205  C     C_R   0.499803 0.834349 0.999832 0.900333
C206  C     C_R   0.500123 0.165999 0.000125 0.830847
C207  C     C_R   0.000062 0.334317 0.999997 0.935044
C208  C     C_R   0.999982 0.666002 0.000013 0.831927
C209  C     C_R   0.553410 0.116196 0.009942 0.315442
C210  C     C_R   0.500509 0.885147 0.049784 0.301915
C211  C     C_R   0.451850 0.115122 0.995214 0.312475
C212  C     C_R   0.507404 0.885867 0.955853 0.360890
C213  C     C_R   0.050907 0.615703 0.007405 0.315690
C214  C     C_R   0.998627 0.385256 0.048066 0.263093
C215  C     C_R   0.949739 0.615607 0.993716 0.312295
C216  C     C_R   0.005648 0.385252 0.954052 0.375975
C217  C     C_R   0.554002 0.083552 0.009664 0.380283
C218  C     C_R   0.502034 0.917969 0.050731 0.324315
C219  C     C_R   0.454862 0.082539 0.999413 0.384242
C220  C     C_R   0.516378 0.917849 0.961550 0.377274
C221  C     C_R   0.049984 0.583073 0.005740 0.379609
C222  C     C_R   0.997029 0.418011 0.046834 0.320762
C223  C     C_R   0.951317 0.582992 0.996653 0.384363
C224  C     C_R   0.010460 0.417842 0.956892 0.274693
C225  C     C_R   0.505313 0.067046 0.005489 -0.176219
C226  C     C_R   0.511618 0.934099 0.007814 -0.217451
C227  C     C_R   0.000846 0.567029 0.001589 -0.176120
C228  C     C_R   0.004768 0.434096 0.002680 -0.162365
C229  C     C_R   0.501689 0.132020 0.001496 -0.300372
C230  C     C_R   0.501301 0.868889 0.001003 -0.328402
C231  C     C_R   0.000174 0.632021 0.000278 -0.300590
C232  C     C_R   0.000901 0.368810 0.000403 -0.245780
C233  C     C_R   0.463060 0.016199 0.955376 -0.096334
C234  C     C_R   0.553816 0.984890 0.059120 -0.100518
C235  C     C_R   0.552128 0.017178 0.058585 -0.110626
C236  C     C_R   0.464620 0.983959 0.956003 -0.182196
C237  C     C_R   0.956628 0.516410 0.951237 -0.099355
C238  C     C_R   0.047636 0.484674 0.054008 -0.108793
C239  C     C_R   0.046608 0.516939 0.053800 -0.109032
C240  C     C_R   0.957506 0.484143 0.951561 -0.179904
H1    H     H_    0.594135 0.372646 0.070442 0.189326
H2    H     H_    0.405824 0.627359 0.929665 0.189519
H3    H     H_    0.405821 0.372670 0.929527 0.189427
H4    H     H_    0.594211 0.627327 0.070353 0.189571
H5    H     H_    0.094149 0.872643 0.070409 0.189283
H6    H     H_    0.905822 0.127355 0.929685 0.189677
H7    H     H_    0.905813 0.872672 0.929565 0.189741
H8    H     H_    0.094218 0.127330 0.070347 0.189629
H9    H     H_    0.717057 0.789037 0.112532 0.120506
H10   H     H_    0.283633 0.210729 0.888223 0.120014
H11   H     H_    0.280759 0.788155 0.885021 0.117936
H12   H     H_    0.715942 0.210444 0.111303 0.120455
H13   H     H_    0.216922 0.289064 0.112413 0.118505
H14   H     H_    0.783607 0.710726 0.888213 0.120131
H15   H     H_    0.783769 0.289342 0.888226 0.118030
H16   H     H_    0.217707 0.711368 0.113356 0.120388
H17   H     H_    0.722714 0.784496 0.213781 0.153780
H18   H     H_    0.277858 0.214885 0.786874 0.153600
H19   H     H_    0.275151 0.782504 0.783968 0.154479
H20   H     H_    0.721614 0.214324 0.212622 0.153682
H21   H     H_    0.222580 0.284572 0.213669 0.153277
H22   H     H_    0.777826 0.714878 0.786861 0.153665
H23   H     H_    0.778181 0.285180 0.786974 0.152143
H24   H     H_    0.223862 0.716121 0.214800 0.153854
H25   H     H_    0.347743 0.242022 0.097617 0.166085
H26   H     H_    0.652251 0.757908 0.902356 0.166812
H27   H     H_    0.652208 0.242357 0.902292 0.165725
H28   H     H_    0.347623 0.758676 0.097348 0.167186
H29   H     H_    0.847738 0.741990 0.097606 0.166051
H30   H     H_    0.152248 0.257892 0.902352 0.166448
H31   H     H_    0.152412 0.741122 0.902741 0.167231
H32   H     H_    0.847790 0.257575 0.097724 0.166133
H33   H     H_    0.810702 0.797458 0.640926 0.178507
H34   H     H_    0.186759 0.201427 0.358151 0.178203
H35   H     H_    0.190081 0.796051 0.360316 0.178758
H36   H     H_    0.811736 0.201732 0.641820 0.178262
H37   H     H_    0.310743 0.297510 0.640977 0.178324
H38   H     H_    0.686361 0.701348 0.358099 0.178078
H39   H     H_    0.689269 0.297599 0.358763 0.178272
H40   H     H_    0.320189 0.699355 0.643738 0.177639
H41   H     H_    0.868600 0.797761 0.754628 0.175659
H42   H     H_    0.129365 0.201732 0.244429 0.175333
H43   H     H_    0.131424 0.797234 0.246609 0.174964
H44   H     H_    0.869210 0.201924 0.755513 0.176051
H45   H     H_    0.368601 0.297781 0.754678 0.175550
H46   H     H_    0.629001 0.701687 0.244372 0.175061
H47   H     H_    0.631487 0.297795 0.245072 0.175688
H48   H     H_    0.376747 0.700776 0.757499 0.172872
H49   H     H_    0.637921 0.748310 0.438781 0.183480
H50   H     H_    0.360955 0.250339 0.561277 0.183335
H51   H     H_    0.363835 0.747328 0.560857 0.183714
H52   H     H_    0.638875 0.251018 0.438717 0.183360
H53   H     H_    0.138004 0.248287 0.438777 0.183403
H54   H     H_    0.860879 0.750153 0.561274 0.183397
H55   H     H_    0.861789 0.248076 0.561229 0.183471
H56   H     H_    0.140838 0.746520 0.438896 0.183458
H57   H     H_    0.515125 0.471472 0.922915 0.153826
H58   H     H_    0.484857 0.528529 0.077065 0.153972
H59   H     H_    0.484824 0.471403 0.077044 0.153687
H60   H     H_    0.515157 0.528598 0.922935 0.154134
H61   H     H_    0.015112 0.971473 0.922913 0.153842
H62   H     H_    0.984894 0.028528 0.077099 0.154145
H63   H     H_    0.984859 0.971402 0.077075 0.153973
H64   H     H_    0.015146 0.028599 0.922937 0.154235
H65   H     H_    0.428006 0.028129 0.914878 0.170155
H66   H     H_    0.589141 0.972909 0.099321 0.170145
H67   H     H_    0.585995 0.029893 0.098568 0.168981
H68   H     H_    0.430487 0.971247 0.916193 0.175471
H69   H     H_    0.921518 0.528528 0.911093 0.170601
H70   H     H_    0.083153 0.472534 0.093796 0.168752
H71   H     H_    0.081121 0.529470 0.093645 0.168963
H72   H     H_    0.922873 0.471576 0.911868 0.176475
H73   H     H_    0.765459 0.737319 0.278133 0.167905
H74   H     H_    0.234238 0.261704 0.721570 0.168042
H75   H     H_    0.234910 0.734321 0.722607 0.167515
H76   H     H_    0.765581 0.260921 0.278409 0.168019
H77   H     H_    0.265491 0.237454 0.278172 0.167881
H78   H     H_    0.734238 0.761704 0.721570 0.168219
H79   H     H_    0.734530 0.238391 0.721726 0.167931
H80   H     H_    0.266338 0.763500 0.278415 0.167812
H81   H     H_    0.804271 0.694764 0.241853 0.155648
H82   H     H_    0.194803 0.304306 0.757065 0.155465
H83   H     H_    0.198218 0.691898 0.761506 0.155744
H84   H     H_    0.805471 0.303573 0.243428 0.154955
H85   H     H_    0.304437 0.194905 0.242023 0.155725
H86   H     H_    0.694833 0.804315 0.757077 0.156901
H87   H     H_    0.694877 0.195830 0.757173 0.155674
H88   H     H_    0.304302 0.806057 0.241158 0.155008
H89   H     H_    0.799019 0.698822 0.140667 0.148117
H90   H     H_    0.200222 0.300651 0.858376 0.146820
H91   H     H_    0.203265 0.697102 0.862427 0.148036
H92   H     H_    0.800147 0.300197 0.142143 0.145919
H93   H     H_    0.299167 0.198910 0.140823 0.148139
H94   H     H_    0.700251 0.800662 0.858388 0.149650
H95   H     H_    0.700141 0.199488 0.858399 0.148118
H96   H     H_    0.298582 0.801780 0.139784 0.145801
O1    O     O_3   0.500000 0.749970 0.000000 -0.501601
O2    O     O_3   0.500000 0.250030 0.000000 -0.497174
O3    O     O_3   0.000000 0.249970 0.000000 -0.505987
O4    O     O_3   0.000000 0.750030 0.000000 -0.497258
O5    O     O_R   0.402360 0.768140 0.036330 -0.638830
O6    O     O_R   0.597640 0.231860 0.963670 -0.636436
O7    O     O_R   0.597640 0.768140 0.963670 -0.633316
O8    O     O_R   0.402360 0.231860 0.036330 -0.636643
O9    O     O_R   0.902360 0.268140 0.036330 -0.638007
O10   O     O_R   0.097640 0.731860 0.963670 -0.636743
O11   O     O_R   0.097640 0.268140 0.963670 -0.637450
O12   O     O_R   0.902360 0.731860 0.036330 -0.636814
O13   O     O_R   0.400350 0.731780 0.861400 -0.639054
O14   O     O_R   0.599650 0.268220 0.138600 -0.639294
O15   O     O_R   0.599650 0.731780 0.138600 -0.640378
O16   O     O_R   0.400350 0.268220 0.861400 -0.639382
O17   O     O_R   0.900350 0.231780 0.861400 -0.640206
O18   O     O_R   0.099650 0.768220 0.138600 -0.639087
O19   O     O_R   0.099650 0.231780 0.138600 -0.640422
O20   O     O_R   0.900350 0.768220 0.861400 -0.639373
O21   O     O_R   0.451490 0.680670 0.963650 -0.642475
O22   O     O_R   0.548510 0.319330 0.036350 -0.642368
O23   O     O_R   0.548510 0.680670 0.036350 -0.642602
O24   O     O_R   0.451490 0.319330 0.963650 -0.642369
O25   O     O_R   0.951490 0.180670 0.963650 -0.642267
O26   O     O_R   0.048510 0.819330 0.036350 -0.642331
O27   O     O_R   0.048510 0.180670 0.036350 -0.642410
O28   O     O_R   0.951490 0.819330 0.963650 -0.642161
O29   O     O_R   0.487790 0.819270 0.036340 -0.558539
O30   O     O_R   0.512210 0.180730 0.963660 -0.609977
O31   O     O_R   0.512210 0.819270 0.963660 -0.633060
O32   O     O_R   0.487790 0.180730 0.036340 -0.610909
O33   O     O_R   0.987790 0.319270 0.036340 -0.577750
O34   O     O_R   0.012210 0.680730 0.963660 -0.610494
O35   O     O_R   0.012210 0.319270 0.963660 -0.584158
O36   O     O_R   0.987790 0.680730 0.036340 -0.609957
O37   O     O_R   0.461070 0.768120 0.861410 -0.612411
O38   O     O_R   0.538930 0.231880 0.138590 -0.611181
O39   O     O_R   0.538930 0.768120 0.138590 -0.606125
O40   O     O_R   0.461070 0.231880 0.861410 -0.610991
O41   O     O_R   0.961070 0.268120 0.861410 -0.607308
O42   O     O_R   0.038930 0.731880 0.138590 -0.611113
O43   O     O_R   0.038930 0.268120 0.138590 -0.606391
O44   O     O_R   0.961070 0.731880 0.861410 -0.610973
O45   O     O_R   0.366040 0.731790 0.963660 -0.630031
O46   O     O_R   0.633960 0.268210 0.036340 -0.630387
O47   O     O_R   0.633960 0.731790 0.036340 -0.629991
O48   O     O_R   0.366040 0.268210 0.963660 -0.630258
O49   O     O_R   0.866040 0.231790 0.963660 -0.629730
O50   O     O_R   0.133960 0.768210 0.036340 -0.630636
O51   O     O_R   0.133960 0.231790 0.036340 -0.629828
O52   O     O_R   0.866040 0.768210 0.963660 -0.630008
Zn1   Zn    Zn3+2 0.517420 0.775920 0.948090 1.010992
Zn2   Zn    Zn3+2 0.482580 0.224080 0.051910 1.009313
Zn3   Zn    Zn3+2 0.482580 0.775920 0.051910 1.030625
Zn4   Zn    Zn3+2 0.517420 0.224080 0.948090 1.009466
Zn5   Zn    Zn3+2 0.017420 0.275920 0.948090 1.027142
Zn6   Zn    Zn3+2 0.982580 0.724080 0.051910 1.009851
Zn7   Zn    Zn3+2 0.982580 0.275920 0.051910 1.027637
Zn8   Zn    Zn3+2 0.017420 0.724080 0.948090 1.009377
Zn9   Zn    Zn3+2 0.430670 0.724000 0.948080 0.980163
Zn10  Zn    Zn3+2 0.569330 0.276000 0.051920 0.981273
Zn11  Zn    Zn3+2 0.569330 0.724000 0.051920 0.983087
Zn12  Zn    Zn3+2 0.430670 0.276000 0.948080 0.981679
Zn13  Zn    Zn3+2 0.930670 0.224000 0.948080 0.980540
Zn14  Zn    Zn3+2 0.069330 0.776000 0.051920 0.981601
Zn15  Zn    Zn3+2 0.069330 0.224000 0.051920 0.980760
Zn16  Zn    Zn3+2 0.930670 0.776000 0.948080 0.982087
I1    I     I_    0.887580 0.676257 0.780836 -0.268221
I2    I     I_    0.114471 0.323314 0.220746 -0.258813
I3    I     I_    0.113666 0.675917 0.216971 -0.269374
I4    I     I_    0.887605 0.323505 0.779219 -0.235650
I5    I     I_    0.387638 0.176271 0.780742 -0.266969
I6    I     I_    0.614943 0.823267 0.220807 -0.258203
I7    I     I_    0.611963 0.176275 0.219693 -0.266976
I8    I     I_    0.378477 0.822277 0.776056 -0.291341
I9    I     I_    0.809116 0.677021 0.613944 -0.234846
I10   I     I_    0.191633 0.321802 0.387543 -0.239704
I11   I     I_    0.193438 0.675312 0.383898 -0.234213
I12   I     I_    0.810055 0.322014 0.612427 -0.235954
I13   I     I_    0.309263 0.177087 0.613857 -0.233875
I14   I     I_    0.691996 0.821738 0.387607 -0.238958
I15   I     I_    0.690135 0.177228 0.386570 -0.234191
I16   I     I_    0.303547 0.819605 0.609556 -0.226833
I17   I     I_    0.663851 0.746214 0.573206 -0.324666
I18   I     I_    0.335043 0.252440 0.426873 -0.326547
I19   I     I_    0.337569 0.746261 0.426246 -0.325257
I20   I     I_    0.664825 0.253479 0.573109 -0.326964
I21   I     I_    0.163937 0.246141 0.573200 -0.325611
I22   I     I_    0.834970 0.752188 0.426870 -0.326373
I23   I     I_    0.835831 0.245628 0.426827 -0.325593
I24   I     I_    0.167002 0.747439 0.573392 -0.326500
I25   I     I_    0.635227 0.440123 0.100768 -0.289598
I26   I     I_    0.364706 0.559884 0.899377 -0.286992
I27   I     I_    0.364711 0.440163 0.899184 -0.288429
I28   I     I_    0.635326 0.559831 0.100634 -0.285079
I29   I     I_    0.135252 0.940119 0.100728 -0.289425
I30   I     I_    0.864711 0.059878 0.899416 -0.284368
I31   I     I_    0.864703 0.940167 0.899247 -0.282698
I32   I     I_    0.135342 0.059835 0.100633 -0.284531
O53   O     O_3   0.604182 0.131714 0.019334 -0.743621
H97   H     H_    0.606316 0.152375 0.037447 0.339702
O54   O     O_3   0.498924 0.868632 0.096246 -0.698553
H98   H     H_    0.519106 0.880862 0.135216 0.361790
O55   O     O_3   0.399541 0.129498 0.984315 -0.742765
H99   H     H_    0.395550 0.149945 0.964663 0.340606
O56   O     O_3   0.505706 0.871897 0.905560 -0.637189
H100  H     H_    0.470300 0.858047 0.886779 0.358484
O57   O     O_3   0.102159 0.630712 0.016841 -0.742995
H101  H     H_    0.105400 0.651247 0.035855 0.340662
O58   O     O_3   0.998826 0.368948 0.095711 -0.700297
H102  H     H_    0.018173 0.381759 0.133935 0.363730
O59   O     O_3   0.898209 0.630509 0.983746 -0.742870
H103  H     H_    0.894717 0.650945 0.964234 0.340216
O60   O     O_3   0.006807 0.368802 0.907171 -0.688967
H104  H     H_    0.005996 0.383047 0.875753 0.401981
O61   O     O_3   0.601778 0.066896 0.014143 -0.737880
H105  H     H_    0.631808 0.081108 0.014238 0.398436
O62   O     O_3   0.492523 0.934952 0.091763 -0.730371
H106  H     H_    0.466921 0.922748 0.102823 0.357999
O63   O     O_3   0.408935 0.064937 0.996889 -0.728346
H107  H     H_    0.377297 0.078554 0.994970 0.398532
O64   O     O_3   0.527244 0.932475 0.919052 -0.669781
H108  H     H_    0.544946 0.953163 0.934966 0.341986
O65   O     O_3   0.096741 0.565972 0.008933 -0.738439
H109  H     H_    0.127161 0.579911 0.009102 0.398417
O66   O     O_3   0.986523 0.434978 0.087194 -0.732190
H110  H     H_    0.962203 0.422326 0.099289 0.359577
O67   O     O_3   0.904877 0.565828 0.994033 -0.728729
H111  H     H_    0.874062 0.579741 0.993093 0.398314
O68   O     O_3   0.020659 0.432927 0.914289 -0.745885
H112  H     H_    0.037210 0.453840 0.929759 0.357727

loop_
_geom_bond_atom_site_label_1
_geom_bond_atom_site_label_2
_ccdc_geom_bond_type
C101  C107  A    
O64   H108  S    
O15   Zn11  S    
C13   C200  A    
O63   H107  S    
O7    Zn1   S    
C34   C42   A    
C84   O40   A    
O12   Zn6   S    
C110  C118  A    
C239  H71   S    
C240  H72   S    
C83   C154  S    
C197  H57   S    
O53   H97   S    
C97   C185  A    
C10   C235  A    
C81   C156  S    
C170  C178  A    
C200  H60   S    
C139  H39   S    
C100  C188  A    
C101  C189  A    
C70   H30   S    
C237  H69   S    
C104  C192  A    
C30   C38   A    
C40   C48   A    
C3    C74   S    
C162  C177  A    
C218  O62   S    
C214  C222  A    
C235  H67   S    
O11   Zn5   S    
C18   C58   A    
C11   C228  S    
O9    Zn7   S    
C102  H6    S    
O24   Zn12  S    
C9    C226  S    
C4    O8    A    
C207  O35   A    
C147  C155  A    
C122  I14   S    
C97   C105  A    
O1    Zn9   S    
C214  C232  A    
C187  C193  A    
C87   O43   A    
C224  C228  A    
C41   C49   A    
O36   Zn6   S    
O4    Zn16  S    
C86   O18   A    
C68   C95   A    
C115  C123  A    
C202  C203  A    
O66   H110  S    
C29   H93   S    
C112  C120  A    
C72   C91   A    
C12   C227  S    
O18   Zn14  S    
C27   C35   A    
C39   C47   A    
C21   C29   A    
O46   Zn10  S    
O39   Zn3   S    
C222  O66   S    
O40   Zn4   S    
C23   C31   A    
C190  I30   S    
C216  C224  A    
C130  C177  S    
C101  H5    S    
C146  C154  A    
C170  H50   S    
C160  C172  A    
C164  C179  A    
O3    Zn15  S    
C15   C196  S    
C36   C91   S    
C1    O45   A    
C202  H62   S    
C13   C194  S    
C3    O47   A    
C36   C44   A    
C157  C182  A    
C40   C95   S    
C37   C45   A    
C130  C138  A    
O13   Zn9   S    
C175  C183  A    
C84   O16   A    
C176  C184  A    
C10   C233  A    
C125  C182  S    
C143  H43   S    
C158  C170  A    
C233  H65   S    
C110  C150  A    
O26   Zn14  S    
C8    O52   A    
C112  I4    S    
O8    Zn2   S    
C50   H18   S    
C14   C199  A    
C221  C227  A    
C7    O51   A    
C98   C106  A    
C17   C25   A    
C74   C90   A    
C5    O49   A    
C221  O65   S    
C16   C195  S    
C142  H42   S    
C205  O29   A    
C214  O58   S    
C78   C94   A    
C187  I27   S    
C207  O33   A    
C1    O5    A    
O57   H101  S    
C98   H2    S    
C4    O48   A    
C117  I9    S    
C43   H11   S    
O1    Zn11  S    
C129  C137  A    
C126  C134  A    
C206  O30   A    
C148  H48   S    
C103  C107  A    
C114  C154  A    
C2    C75   S    
C209  C217  A    
C223  O67   S    
C109  I1    S    
C88   C149  S    
C140  H40   S    
C69   C77   A    
C162  I22   S    
C7    O11   A    
C174  C182  A    
C71   C79   A    
C60   H76   S    
C224  O68   S    
O65   H109  S    
C61   H77   S    
C137  H37   S    
C88   O20   A    
C146  H46   S    
C2    O46   A    
C28   H92   S    
C223  C227  A    
C52   H20   S    
C53   H21   S    
C105  C166  S    
C124  C132  A    
C111  C119  A    
C52   C60   A    
O3    Zn13  S    
O14   Zn10  S    
C53   C61   A    
C71   C92   A    
C208  O34   A    
C111  I3    S    
C56   C64   A    
C35   C43   A    
C17   H81   S    
C100  H4    S    
C75   C91   A    
C147  H47   S    
C44   C52   A    
C135  C143  A    
C198  H58   S    
O4    Zn6   S    
C138  H38   S    
C206  C229  S    
O2    Zn4   S    
C127  C184  S    
C171  C179  A    
C66   H26   S    
C128  C183  S    
C169  C177  A    
C26   H90   S    
C2    O6    A    
C14   C197  A    
C133  H33   S    
O52   Zn16  S    
C44   H12   S    
C65   C73   A    
C205  O31   A    
O31   Zn1   S    
C172  H52   S    
C104  H8    S    
C11   C240  A    
C173  H53   S    
C124  I16   S    
O2    Zn2   S    
C169  H49   S    
O16   Zn12  S    
C65   H25   S    
C112  C152  A    
C220  C226  A    
C28   C36   A    
C4    C73   S    
C45   H13   S    
C42   C50   A    
C66   C93   A    
C82   C155  S    
O6    Zn4   S    
O5    Zn3   S    
C8    C77   S    
C199  H59   S    
C70   C89   A    
C67   C75   A    
C29   C37   A    
C165  O23   A    
O19   Zn15  S    
C65   C94   A    
C22   C30   A    
C1    C76   S    
O17   Zn13  S    
C186  C194  A    
O32   Zn2   S    
O10   Zn8   S    
C131  C180  S    
C85   O41   A    
C8    O12   A    
C118  C126  A    
C100  C106  A    
C68   C76   A    
C211  C219  A    
C34   C89   S    
C144  C152  A    
C138  C146  A    
C27   H91   S    
C38   C93   S    
C143  C151  A    
C218  C226  A    
C87   O19   A    
C192  I32   S    
C158  C181  A    
C191  C195  A    
C38   C46   A    
C131  C139  A    
C213  O57   S    
O60   H104  S    
C103  C191  A    
O4    Zn8   S    
C168  O26   A    
O59   H103  S    
C237  C240  A    
C126  C181  S    
C97   H1    S    
C20   C60   A    
C117  C125  A    
C234  H66   S    
C25   C33   A    
O28   Zn16  S    
C119  C127  A    
O50   Zn14  S    
C81   O13   A    
C57   H73   S    
C18   C26   A    
C83   O15   A    
C109  C117  A    
C11   C238  A    
C186  I26   S    
C159  C171  A    
C63   H79   S    
C192  C196  A    
C137  C145  A    
C64   H80   S    
C127  C135  A    
C128  C136  A    
C207  C232  S    
C118  I10   S    
O29   Zn3   S    
C213  C231  A    
O43   Zn7   S    
C175  H55   S    
C215  O59   S    
O41   Zn5   S    
C206  O32   A    
C115  I7    S    
C213  C221  A    
C210  O54   S    
O35   Zn5   S    
C113  I5    S    
C110  I2    S    
C87   C150  S    
C67   H27   S    
C10   C225  S    
O33   Zn7   S    
C31   H95   S    
O34   Zn8   S    
C159  C184  A    
C58   H74   S    
C145  H45   S    
C160  C183  A    
C21   C61   A    
C35   C92   S    
C172  C180  A    
C23   C63   A    
C173  C181  A    
O62   H106  S    
C24   C64   A    
C219  O63   S    
C220  O64   S    
O3    Zn7   S    
C188  I28   S    
C85   O17   A    
C141  C149  A    
O58   H102  S    
C30   H94   S    
C106  C165  S    
O2    Zn12  S    
C238  C239  A    
C113  C153  A    
C120  I12   S    
C166  O24   A    
C6    O50   A    
C54   C62   A    
C158  I18   S    
C129  C178  S    
C215  C223  A    
C50   C58   A    
C80   C96   A    
C197  C200  A    
C165  O21   A    
O54   H98   S    
C47   H15   S    
C82   O14   A    
C134  C142  A    
C217  O61   S    
C84   C153  S    
C189  C195  A    
O21   Zn9   S    
C222  C228  A    
C168  O28   A    
C116  C156  A    
C46   C54   A    
C210  C230  A    
O47   Zn11  S    
C189  I29   S    
O48   Zn12  S    
C141  H41   S    
C119  I11   S    
C12   C237  A    
C14   C193  S    
C55   H23   S    
C234  C235  A    
C16   C201  A    
C20   C28   A    
C81   O37   A    
C104  C108  A    
C236  H68   S    
C19   C59   A    
C83   O39   A    
C51   H19   S    
C107  C168  S    
C211  O55   S    
C212  O56   S    
C211  C229  A    
C123  C131  A    
C9    C234  A    
C121  C129  A    
O23   Zn11  S    
C120  C128  A    
O1    Zn1   S    
C132  C140  A    
C212  C220  A    
C133  C141  A    
C33   C41   A    
C142  C150  A    
C85   C152  S    
C73   C89   A    
C136  C144  A    
C86   C151  S    
C43   C51   A    
C6    C79   S    
C72   H32   S    
C77   C93   A    
C102  C190  A    
C22   H86   S    
C164  C176  A    
C99   H3    S    
C103  H7    S    
C68   H28   S    
C208  C231  S    
C69   H29   S    
C42   H10   S    
C72   C80   A    
C157  I17   S    
C148  C156  A    
C161  C178  A    
C46   H14   S    
C17   C57   A    
C66   C74   A    
C157  C169  A    
C70   C78   A    
C123  I15   S    
O37   Zn1   S    
O30   Zn4   S    
C176  H56   S    
O2    Zn10  S    
C121  I13   S    
C140  C148  A    
C24   C32   A    
C15   C204  A    
C49   C57   A    
C166  O22   A    
C79   C95   A    
C216  O60   S    
C139  C147  A    
C215  C231  A    
C56   H24   S    
O20   Zn16  S    
C48   H16   S    
C20   H84   S    
C164  I24   S    
C82   O38   A    
C161  C173  A    
C24   H88   S    
C26   C34   A    
C12   C239  A    
C116  C124  A    
O45   Zn9   S    
C212  C230  A    
C144  H44   S    
O51   Zn15  S    
C198  C199  A    
C18   H82   S    
C16   C203  A    
C19   C27   A    
O38   Zn2   S    
C190  C196  A    
C145  C153  A    
C188  C194  A    
C62   H78   S    
C99   C187  A    
C9    C236  A    
C167  O27   A    
C135  H35   S    
C205  C230  S    
C136  H36   S    
C49   H17   S    
C185  I25   S    
C233  C236  A    
C159  I19   S    
C163  C175  A    
O1    Zn3   S    
C25   H89   S    
C160  I20   S    
C23   H87   S    
C201  H61   S    
C99   C105  A    
C116  I8    S    
C13   C198  A    
C203  H63   S    
C54   H22   S    
C204  H64   S    
O42   Zn6   S    
C114  I6    S    
C5    O9    A    
C208  O36   A    
C55   C63   A    
C109  C149  A    
C59   H75   S    
C98   C186  A    
C22   C62   A    
O27   Zn15  S    
O68   H112  S    
C88   O44   A    
O25   Zn13  S    
O67   H111  S    
C113  C121  A    
C209  C229  A    
C219  C225  A    
C5    C80   S    
C102  C108  A    
C76   C92   A    
C7    C78   S    
C32   H96   S    
C108  C167  S    
C67   C96   A    
C134  H34   S    
C201  C204  A    
C3    O7    A    
C51   C59   A    
C69   C90   A    
O3    Zn5   S    
C15   C202  A    
C47   C55   A    
C125  C133  A    
C48   C56   A    
C115  C155  A    
O49   Zn13  S    
O44   Zn8   S    
C185  C193  A    
C111  C151  A    
C86   O42   A    
C19   H83   S    
C162  C174  A    
O4    Zn14  S    
C163  I23   S    
C210  C218  A    
C209  O53   S    
C161  I21   S    
O56   H100  S    
C33   C90   S    
O55   H99   S    
C217  C225  A    
C174  H54   S    
C216  C232  A    
C31   C39   A    
C37   C94   S    
C32   C40   A    
O61   H105  S    
C39   C96   S    
C132  C179  S    
C45   C53   A    
C114  C122  A    
C191  I31   S    
C238  H70   S    
C71   H31   S    
C41   H9    S    
C163  C180  A    
C167  O25   A    
O22   Zn10  S    
C6    O10   A    
C122  C130  A    
C21   H85   S    
C171  H51   S    
