data_mof_unit_10091.cif
_audit_creation_date              2012-12-10T17:37:31-0500
_audit_creation_method            fapswitch 2.2
_symmetry_space_group_name_H-M    P1
_symmetry_Int_Tables_number       1
_space_group_crystal_system       triclinic
_cell_length_a                    11.9716
_cell_length_b                    12.758691
_cell_length_c                    16.585714
_cell_angle_alpha                 90.772424
_cell_angle_beta                  80.958866
_cell_angle_gamma                 94.764885
_cell_volume                      2493.21273999

loop_
_atom_site_label
_atom_site_type_symbol
_atom_type_description
_atom_site_fract_x
_atom_site_fract_y
_atom_site_fract_z
_atom_type_partial_charge
C1    C     C_R   0.523993 0.700712 0.496924 0.904296
C2    C     C_R   0.525385 0.129929 0.549354 0.113610
C3    C     C_R   0.460284 0.974067 0.477729 0.036590
C4    C     C_R   0.540490 0.025966 0.523887 0.032457
C5    C     C_R   0.960835 0.397775 0.426981 -0.334147
C6    C     C_R   0.039117 0.602035 0.573216 -0.335313
C7    C     C_R   0.843974 0.407997 0.433941 0.014253
C8    C     C_R   0.155950 0.591636 0.566389 0.016535
C9    C     C_R   0.855646 0.544852 0.531265 -0.047095
C10   C     C_R   0.144377 0.455298 0.468630 -0.052731
C11   C     C_R   0.973435 0.537313 0.526491 0.095027
C12   C     C_R   0.476066 0.299267 0.503175 0.903590
C13   C     C_R   0.026567 0.462738 0.473505 0.093111
C14   C     C_R   0.484860 0.506503 0.654510 0.879254
C15   C     C_R   0.515976 0.498090 0.345040 0.877824
C16   C     C_R   0.480823 0.546050 0.738169 -0.088116
C17   C     C_R   0.529336 0.511130 0.256182 -0.100198
C18   C     C_R   0.575964 0.609711 0.754299 -0.260084
C19   C     C_R   0.443960 0.559054 0.225481 -0.270642
C20   C     C_R   0.576958 0.657071 0.829302 -0.224139
C21   C     C_R   0.456725 0.586185 0.144341 -0.215980
C22   C     C_R   0.482846 0.642264 0.890161 0.133774
C23   C     C_R   0.457556 0.186976 0.507518 -0.109018
C24   C     C_R   0.557155 0.569776 0.091714 0.143724
C25   C     C_R   0.382314 0.584485 0.874555 0.242986
C26   C     C_R   0.645313 0.521481 0.120865 0.221434
C27   C     C_R   0.381826 0.533534 0.797983 0.159933
C28   C     C_R   0.628540 0.486086 0.202824 0.187373
C29   C     C_2   0.503264 0.658607 0.973890 -0.235979
C30   C     C_2   0.561427 0.587204 0.004021 -0.201612
C31   C     C_3   0.713782 0.419988 0.232216 -0.898204
C32   C     C_3   0.279061 0.464319 0.780459 -0.887761
C33   C     C_3   0.278255 0.574250 0.939921 -0.938366
C34   C     C_R   0.542647 0.812960 0.493727 -0.106404
C35   C     C_3   0.757630 0.510246 0.065988 -0.962202
C36   C     C_3   0.564652 0.175431 0.627056 -0.405934
C37   C     C_3   0.465666 0.210128 0.688766 -0.872813
C38   C     C_3   0.441209 0.827293 0.371901 -0.426593
C39   C     C_3   0.544147 0.798902 0.311009 -0.855529
C40   C     C_3   0.743999 0.024458 0.559175 -0.954022
C41   C     C_3   0.257258 0.974209 0.441743 -0.952742
C42   C     C_R   0.632795 0.971714 0.541399 0.206564
C43   C     C_R   0.367631 0.027750 0.460416 0.206827
C44   C     C_R   0.625534 0.863243 0.534022 -0.258683
C45   C     C_R   0.374085 0.136119 0.468069 -0.263856
C46   C     C_R   0.475961 0.870580 0.451604 0.116284
H1    H     H_    0.650970 0.622980 0.708563 0.166479
H2    H     H_    0.654281 0.700182 0.841843 0.158965
H3    H     H_    0.312271 0.180523 0.445148 0.169640
H4    H     H_    0.686809 0.818411 0.557185 0.166868
H5    H     H_    0.186845 0.398598 0.428192 0.122552
H6    H     H_    0.813203 0.601668 0.571601 0.113466
H7    H     H_    0.669610 0.357581 0.274461 0.232758
H8    H     H_    0.762991 0.377502 0.181722 0.240959
H9    H     H_    0.773815 0.470758 0.263312 0.254435
H10   H     H_    0.306049 0.390230 0.750687 0.233854
H11   H     H_    0.218788 0.440148 0.835918 0.242498
H12   H     H_    0.366742 0.577399 0.264626 0.182342
H13   H     H_    0.232423 0.506603 0.739951 0.254016
H14   H     H_    0.285513 0.627389 0.992540 0.232406
H15   H     H_    0.202920 0.595657 0.914301 0.245803
H16   H     H_    0.263797 0.492285 0.963198 0.247100
H17   H     H_    0.771627 0.564606 0.013093 0.241639
H18   H     H_    0.829204 0.530785 0.100068 0.256257
H19   H     H_    0.761364 0.428222 0.043175 0.243348
H20   H     H_    0.426512 0.276435 0.664893 0.249508
H21   H     H_    0.400081 0.143442 0.703463 0.264646
H22   H     H_    0.496853 0.236723 0.745887 0.247671
H23   H     H_    0.206621 0.641498 0.602460 0.135342
H24   H     H_    0.602391 0.115933 0.659882 0.227441
H25   H     H_    0.629472 0.242595 0.612400 0.230295
H26   H     H_    0.608994 0.866969 0.301895 0.262746
H27   H     H_    0.582722 0.730453 0.332445 0.257274
H28   H     H_    0.517471 0.778321 0.251239 0.254975
H29   H     H_    0.379085 0.757558 0.383564 0.226570
H30   H     H_    0.401826 0.886611 0.340044 0.228131
H31   H     H_    0.815492 0.990048 0.519570 0.250163
H32   H     H_    0.753014 0.109720 0.545120 0.245709
H33   H     H_    0.753009 0.011320 0.623797 0.237623
H34   H     H_    0.793227 0.357642 0.398275 0.136583
H35   H     H_    0.185067 0.006715 0.481949 0.250555
H36   H     H_    0.248214 0.988881 0.377345 0.236785
H37   H     H_    0.249746 0.888530 0.454139 0.246473
H38   H     H_    0.999262 0.339619 0.385775 0.145651
H39   H     H_    0.000635 0.660011 0.614573 0.143349
H40   H     H_    0.603457 0.530635 0.962560 0.173262
H41   H     H_    0.458366 0.716127 0.012233 0.152518
H42   H     H_    0.386033 0.618575 0.122890 0.151478
N1    N     N_R   0.206400 0.519440 0.514690 -0.098793
N2    N     N_R   0.793600 0.480560 0.485310 -0.097704
O1    O     O_R   0.421320 0.658850 0.503920 -0.623802
O2    O     O_R   0.578680 0.341150 0.496080 -0.623640
O3    O     O_R   0.609840 0.646370 0.494500 -0.624903
O4    O     O_R   0.390160 0.353630 0.505500 -0.621119
O5    O     O_R   0.394600 0.506990 0.621070 -0.609721
O6    O     O_R   0.605400 0.493010 0.378930 -0.608032
O7    O     O_R   0.583120 0.494520 0.611640 -0.617157
O8    O     O_R   0.416880 0.505480 0.388360 -0.621418
Zn1   Zn    Zn3+2 0.374120 0.508330 0.506290 0.929698
Zn2   Zn    Zn3+2 0.625880 0.491670 0.493710 0.929177

loop_
_geom_bond_atom_site_label_1
_geom_bond_atom_site_label_2
_ccdc_geom_bond_type
C23   C45   A    
C22   C29   S    
C18   H1    S    
C38   H30   S    
C12   C23   S    
C3    C43   A    
C8    H23   S    
C6    H39   S    
N1    Zn1   S    
C36   C37   S    
C19   C21   A    
C24   C26   A    
C38   C39   S    
O5    Zn1   S    
C35   H19   S    
C44   H4    S    
C41   H37   S    
C37   H22   S    
O6    Zn2   S    
C18   C20   A    
C39   H28   S    
C10   N1    A    
C33   H16   S    
C22   C25   A    
C39   H26   S    
C35   H18   S    
C34   C46   A    
C30   H40   S    
C5    C13   A    
C36   H25   S    
C16   C27   A    
C40   C42   S    
C21   H42   S    
C1    O1    A    
C41   C43   S    
C12   O4    A    
C9    H6    S    
C42   C44   A    
C32   H11   S    
C10   H5    S    
N2    Zn2   S    
C36   H24   S    
C1    C34   S    
C38   H29   S    
C19   H12   S    
C29   H41   S    
C34   C44   A    
C6    C11   A    
C5    C7    A    
C5    H38   S    
C6    C8    A    
C7    N2    A    
C2    C4    A    
C29   C30   D    
C43   C45   A    
C45   H3    S    
C41   H35   S    
C37   H20   S    
C40   H33   S    
C16   C18   A    
C31   H7    S    
C9    C11   A    
O3    Zn2   S    
C20   H2    S    
C33   H15   S    
C20   C22   A    
C33   H14   S    
C40   H32   S    
C15   O8    A    
C3    C4    A    
C14   O5    A    
C15   O6    A    
O7    Zn2   S    
O2    Zn2   S    
C14   O7    A    
C2    C36   S    
C15   C17   S    
C27   C32   S    
C17   C28   A    
C12   O2    A    
C28   C31   S    
C10   C13   A    
C9    N2    A    
C25   C27   A    
C3    C46   A    
C26   C28   A    
C31   H9    S    
C11   C13   A    
C4    C42   A    
O4    Zn1   S    
C41   H36   S    
C37   H21   S    
C17   C19   A    
C14   C16   S    
C39   H27   S    
C31   H8    S    
C24   C30   S    
C38   C46   S    
C26   C35   S    
C1    O3    A    
O8    Zn1   S    
C21   C24   A    
C2    C23   A    
C40   H31   S    
C35   H17   S    
C8    N1    A    
C32   H13   S    
O1    Zn1   S    
C32   H10   S    
C25   C33   S    
C7    H34   S    
