data_mof_unit_54200.cif
_audit_creation_date              2012-10-26T19:56:44-0400
_audit_creation_method            fapswitch 2.2
_symmetry_space_group_name_H-M    P1
_symmetry_Int_Tables_number       1
_space_group_crystal_system       triclinic
_cell_length_a                    15.225101
_cell_length_b                    15.913798
_cell_length_c                    10.048052
_cell_angle_alpha                 89.999952
_cell_angle_beta                  58.499014
_cell_angle_gamma                 90.0
_cell_volume                      2075.75983336

loop_
_atom_site_label
_atom_site_type_symbol
_atom_type_description
_atom_site_fract_x
_atom_site_fract_y
_atom_site_fract_z
_atom_type_partial_charge
C1    C     C_R   0.372179 0.118493 0.562287 0.567669
C2    C     C_2   0.485186 0.999860 0.084852 0.354273
C3    C     C_2   0.014814 0.499860 0.915147 0.354270
C4    C     C_2   0.985186 0.499860 0.084852 0.354274
C5    C     C_2   0.298677 0.814007 0.597238 -0.105548
C6    C     C_2   0.701654 0.185728 0.402637 -0.098186
C7    C     C_2   0.701323 0.814007 0.402762 -0.105554
C8    C     C_2   0.298346 0.185728 0.597363 -0.098186
C9    C     C_2   0.798678 0.314006 0.597238 -0.105557
C10   C     C_2   0.201654 0.685729 0.402637 -0.098188
C11   C     C_2   0.201323 0.314007 0.402762 -0.105556
C12   C     C_R   0.627737 0.881441 0.437751 0.565293
C13   C     C_2   0.798346 0.685728 0.597363 -0.098186
C14   C     C_2   0.287830 0.782439 0.483349 -0.119783
C15   C     C_2   0.712843 0.217013 0.516391 -0.121483
C16   C     C_2   0.712169 0.782437 0.516651 -0.119786
C17   C     C_2   0.287159 0.217014 0.483608 -0.121476
C18   C     C_2   0.787830 0.282438 0.483349 -0.119789
C19   C     C_2   0.212842 0.717014 0.516392 -0.121464
C20   C     C_2   0.212169 0.282438 0.516651 -0.119786
C21   C     C_2   0.787158 0.717014 0.483608 -0.121476
C22   C     C_R   0.627821 0.118493 0.437713 0.567670
C23   C     C_R   0.372263 0.881441 0.562249 0.565290
C24   C     C_R   0.872179 0.618493 0.562287 0.567670
C25   C     C_R   0.127737 0.381441 0.437751 0.565291
C26   C     C_R   0.127821 0.618493 0.437713 0.567669
C27   C     C_R   0.872263 0.381441 0.562249 0.565293
C28   C     C_2   0.514814 0.999859 0.915147 0.354274
Cu1   Cu    Cu3+1 0.522650 1.000000 0.349410 1.077522
Cu2   Cu    Cu3+1 0.477350 1.000000 0.650590 1.077518
Cu3   Cu    Cu3+1 0.022650 0.500000 0.349410 1.077510
Cu4   Cu    Cu3+1 0.977350 0.500000 0.650590 1.077520
H1    H     H_    0.633789 0.000411 0.042593 0.274346
H2    H     H_    0.834494 0.304992 0.363988 0.205097
H3    H     H_    0.833688 0.694346 0.364306 0.210424
H4    H     H_    0.165505 0.304990 0.636012 0.205097
H5    H     H_    0.747584 0.209195 0.283776 0.131246
H6    H     H_    0.252622 0.790642 0.716156 0.132191
H7    H     H_    0.252414 0.209193 0.716224 0.131245
H8    H     H_    0.747379 0.790643 0.283844 0.132187
H9    H     H_    0.247584 0.709195 0.283776 0.131242
H10   H     H_    0.752622 0.290642 0.716155 0.132186
H11   H     H_    0.752414 0.709193 0.716224 0.131245
H12   H     H_    0.366211 0.000420 0.957407 0.274339
H13   H     H_    0.247379 0.290644 0.283844 0.132187
H14   H     H_    0.223523 0.073959 0.235895 0.371902
H15   H     H_    0.776484 0.073954 0.764082 0.371906
H16   H     H_    0.723522 0.573955 0.235890 0.371903
H17   H     H_    0.276471 0.573933 0.764176 0.371898
H18   H     H_    0.133789 0.500416 0.042592 0.274320
H19   H     H_    0.866211 0.500419 0.957407 0.274338
H20   H     H_    0.666315 0.194344 0.635692 0.210420
H21   H     H_    0.334492 0.804992 0.363989 0.205094
H22   H     H_    0.333689 0.194347 0.364306 0.210424
H23   H     H_    0.665504 0.804990 0.636012 0.205097
H24   H     H_    0.166313 0.694345 0.635693 0.210430
N1    N     N_2   0.443290 0.000000 0.876860 -0.350976
N2    N     N_2   0.556710 1.000000 0.123140 -0.350974
N3    N     N_2   0.943290 0.500000 0.876860 -0.350976
N4    N     N_2   0.056710 0.500000 0.123140 -0.350978
O1    O     O_R   0.422430 0.089640 0.419570 -0.444661
O2    O     O_R   0.615830 0.910350 0.326090 -0.505873
O3    O     O_R   0.615830 0.089650 0.326090 -0.504004
O4    O     O_R   0.384170 0.910350 0.673910 -0.505871
O5    O     O_R   0.884170 0.589650 0.673910 -0.504009
O6    O     O_R   0.115830 0.410350 0.326090 -0.505872
O7    O     O_R   0.115830 0.589650 0.326090 -0.504011
O8    O     O_R   0.884170 0.410350 0.673910 -0.505871
O9    O     O_2   0.303831 0.922225 0.190500 -0.352197
O10   O     O_2   0.303440 0.000169 0.395465 -0.243735
O11   O     O_3   0.298308 0.084980 0.185678 -0.588260
O12   O     O_R   0.577570 0.910360 0.580430 -0.447939
O13   O     O_2   0.696166 0.922218 0.809496 -0.352193
O14   O     O_2   0.696560 0.000169 0.604535 -0.243744
O15   O     O_3   0.701696 0.084972 0.814325 -0.588257
O16   O     O_2   0.803832 0.422223 0.190500 -0.352196
O17   O     O_2   0.803440 0.500169 0.395465 -0.243732
O18   O     O_3   0.798307 0.584978 0.185677 -0.588259
O19   O     O_2   0.196166 0.422220 0.809498 -0.352217
O20   O     O_2   0.196561 0.500168 0.604535 -0.243708
O21   O     O_3   0.201695 0.584975 0.814322 -0.588256
O22   O     O_R   0.577570 0.089640 0.580430 -0.444664
O23   O     O_R   0.422430 0.910360 0.419570 -0.447943
O24   O     O_R   0.922430 0.589640 0.419570 -0.444661
O25   O     O_R   0.077570 0.410360 0.580430 -0.447941
O26   O     O_R   0.077570 0.589640 0.580430 -0.444663
O27   O     O_R   0.922430 0.410360 0.419570 -0.447940
O28   O     O_R   0.384170 0.089650 0.673910 -0.504009
S1    S     S_3+6 0.346557 0.999285 0.223619 -0.007296
S2    S     S_3+6 0.653443 0.999281 0.776381 -0.007298
S3    S     S_3+6 0.846557 0.499284 0.223619 -0.007294
S4    S     S_3+6 0.153443 0.499282 0.776381 -0.007291

loop_
_geom_bond_atom_site_label_1
_geom_bond_atom_site_label_2
_ccdc_geom_bond_type
C19   H24   S    
C15   C18   S    
Cu1   O3    S    
O20   S4    D    
C16   C21   S    
Cu2   O4    S    
Cu3   O6    S    
C1    C8    S    
C28   N1    D    
Cu3   O7    S    
C9    H10   S    
H1    N2    S    
C23   O23   A    
C26   O7    A    
C22   O22   A    
O13   S2    D    
Cu1   O23   S    
C11   C25   S    
H17   O21   S    
C6    C22   S    
Cu2   N1    S    
C17   C20   S    
H16   O18   S    
C27   O8    A    
O15   S2    S    
C22   O3    A    
O21   S4    S    
C5    C23   S    
C7    H8    S    
C8    H7    S    
C5    C14   D    
H12   N1    S    
Cu4   O8    S    
C4    S3    S    
C10   C26   S    
C1    O28   A    
C12   O12   A    
C5    H6    S    
C10   H9    S    
O9    S1    D    
C28   S2    S    
C7    C12   S    
Cu1   O1    S    
C11   C20   D    
C6    C15   D    
Cu3   O27   S    
Cu3   O24   S    
C13   C24   S    
C3    S4    S    
Cu3   N4    S    
Cu2   O22   S    
C2    S1    S    
Cu1   Cu2   S    
C12   O2    A    
Cu3   Cu4   S    
O11   S1    S    
C10   C19   D    
C26   O26   A    
Cu4   O26   S    
C4    N4    D    
C25   O25   A    
O19   S4    D    
C6    H5    S    
C13   C21   D    
C15   H20   S    
C27   O27   A    
C18   H2    S    
H14   O11   S    
C24   O5    A    
C23   O4    A    
C11   H13   S    
O10   S1    D    
H19   N3    S    
Cu2   O28   S    
C3    C4    S    
C13   H11   S    
C9    C27   S    
Cu1   O2    S    
O17   S3    D    
C14   C19   S    
C7    C16   D    
C25   O6    A    
C1    O1    A    
Cu2   O12   S    
C2    N2    D    
C21   H3    S    
O18   S3    S    
C8    C17   D    
H18   N4    S    
O14   S2    D    
C24   O24   A    
C16   H23   S    
H15   O15   S    
Cu4   O25   S    
O16   S3    D    
C20   H4    S    
C9    C18   D    
C14   H21   S    
Cu1   N2    S    
C2    C28   S    
Cu4   N3    S    
C17   H22   S    
Cu4   O5    S    
C3    N3    D    
