data_mof_unit_40233.cif
_audit_creation_date              2012-12-10T17:23:39-0500
_audit_creation_method            fapswitch 2.2
_symmetry_space_group_name_H-M    P1
_symmetry_Int_Tables_number       1
_space_group_crystal_system       triclinic
_cell_length_a                    10.240083
_cell_length_b                    10.803242
_cell_length_c                    15.706389
_cell_angle_alpha                 90.074532
_cell_angle_beta                  81.856933
_cell_angle_gamma                 96.404668
_cell_volume                      1709.09711502

loop_
_atom_site_label
_atom_site_type_symbol
_atom_type_description
_atom_site_fract_x
_atom_site_fract_y
_atom_site_fract_z
_atom_type_partial_charge
C1    C     C_R   0.557682 0.732454 0.494994 0.772710
C2    C     C_3   0.519378 0.387867 0.969346 0.491882
C3    C     C_3   0.600758 0.587175 0.964356 -0.496153
C4    C     C_3   0.398777 0.412880 0.035711 -0.496746
C5    C     C_1   0.502644 0.502024 0.750341 -0.195708
C6    C     C_1   0.497237 0.498003 0.249679 -0.185537
C7    C     C_3   0.383583 0.529773 0.982798 0.486730
C8    C     C_3   0.615954 0.470282 0.017260 0.489458
C9    C     C_3   0.502367 0.503182 0.916602 -0.082643
C10   C     C_3   0.497178 0.496867 0.083458 -0.084658
C11   C     C_1   0.502989 0.503146 0.825631 0.089044
C12   C     C_R   0.442333 0.268108 0.502660 0.785919
C13   C     C_1   0.496709 0.496886 0.174410 0.094293
C14   C     C_2   0.593917 0.867085 0.495746 0.333875
C15   C     C_2   0.405066 0.135784 0.491312 0.348231
C16   C     C_3   0.462043 0.819413 0.008013 -0.306014
C17   C     C_3   0.537412 0.180643 0.992131 -0.306713
C18   C     C_3   0.830666 0.432400 0.970269 -0.288933
C19   C     C_3   0.168884 0.567714 0.029761 -0.286870
C20   C     C_3   0.547081 0.088128 0.599322 -0.849948
C21   C     C_3   0.431301 0.897954 0.397118 -0.800210
C22   C     C_3   0.279612 0.167415 0.381867 -0.298714
C23   C     C_2   0.505859 0.938888 0.471812 0.109590
C24   C     C_3   0.754465 0.854690 0.586977 -0.272884
C25   C     C_3   0.121431 0.554576 0.387251 -0.723302
C26   C     C_3   0.883662 0.500230 0.608821 -0.859005
C27   C     C_3   0.178744 0.675503 0.647348 -0.087823
C28   C     C_3   0.823676 0.286929 0.378786 -0.091984
C29   C     C_2   0.483432 0.056673 0.518483 0.104149
C30   C     C_2   0.930162 0.491203 0.513763 0.308885
C31   C     C_2   0.077281 0.516619 0.480376 0.346173
C32   C     C_R   0.500860 0.500483 0.661591 0.877756
C33   C     C_R   0.499132 0.499555 0.338410 0.866340
C34   C     C_3   0.480158 0.612186 0.030722 0.493798
H1    H     H_    0.681161 0.656775 0.933165 0.173609
H2    H     H_    0.795108 0.369973 0.919967 0.194853
H3    H     H_    0.918216 0.394727 0.990261 0.188463
H4    H     H_    0.204444 0.630173 0.080047 0.198974
H5    H     H_    0.135644 0.472544 0.056790 0.167120
H6    H     H_    0.081344 0.605379 0.009749 0.187171
H7    H     H_    0.536666 0.004480 0.641738 0.240138
H8    H     H_    0.653424 0.123935 0.582032 0.282158
H9    H     H_    0.497214 0.159546 0.638667 0.211683
H10   H     H_    0.444055 0.974059 0.348316 0.241286
H11   H     H_    0.470823 0.817454 0.362249 0.204928
H12   H     H_    0.318374 0.343290 0.066915 0.174418
H13   H     H_    0.324446 0.871214 0.420665 0.298116
H14   H     H_    0.376346 0.202729 0.343139 0.115587
H15   H     H_    0.221957 0.245515 0.403812 0.200173
H16   H     H_    0.221499 0.110229 0.338549 0.190606
H17   H     H_    0.819286 0.785360 0.558265 0.212367
H18   H     H_    0.670737 0.809756 0.633842 0.112989
H19   H     H_    0.815714 0.920242 0.623717 0.190825
H20   H     H_    0.151215 0.473146 0.349127 0.226330
H21   H     H_    0.204420 0.630870 0.381395 0.245059
H22   H     H_    0.041318 0.594773 0.359546 0.237517
H23   H     H_    0.393482 0.793273 0.960345 0.192829
H24   H     H_    0.816542 0.415246 0.631178 0.244860
H25   H     H_    0.964786 0.500233 0.648137 0.215966
H26   H     H_    0.834541 0.585849 0.622511 0.245604
H27   H     H_    0.282687 0.719481 0.640108 0.182571
H28   H     H_    0.167116 0.585769 0.683847 0.142553
H29   H     H_    0.117913 0.739032 0.686940 0.123061
H30   H     H_    0.808698 0.230089 0.439273 0.154363
H31   H     H_    0.884951 0.236345 0.329457 0.131616
H32   H     H_    0.728020 0.294229 0.355065 0.184415
H33   H     H_    0.565331 0.842340 0.975004 0.159821
H34   H     H_    0.430694 0.904795 0.040269 0.178378
H35   H     H_    0.434092 0.157721 0.025087 0.159725
H36   H     H_    0.605893 0.206812 0.039843 0.194412
H37   H     H_    0.568808 0.095247 0.959918 0.178258
H38   H     H_    0.863895 0.527588 0.943270 0.160930
N1    N     N_2   0.842700 0.448880 0.465440 0.072506
N2    N     N_2   0.157300 0.551120 0.534560 0.043633
O1    O     O_R   0.431060 0.692470 0.506960 -0.602134
O2    O     O_3   0.543568 0.274295 0.929006 -0.599676
O3    O     O_3   0.733532 0.435881 0.043044 -0.602501
O4    O     O_3   0.266019 0.564176 0.956994 -0.614107
O5    O     O_3   0.294758 0.091732 0.452437 -0.606997
O6    O     O_3   0.711668 0.922794 0.521446 -0.620341
O7    O     O_3   0.133537 0.663861 0.566893 -0.551478
O8    O     O_3   0.891217 0.405654 0.388125 -0.577130
O9    O     O_R   0.568940 0.307530 0.493040 -0.640806
O10   O     O_R   0.651120 0.659650 0.484770 -0.595159
O11   O     O_R   0.348880 0.340350 0.515230 -0.602174
O12   O     O_R   0.389990 0.516420 0.634310 -0.626031
O13   O     O_R   0.610010 0.483580 0.365690 -0.578535
O14   O     O_R   0.610050 0.483600 0.612130 -0.622374
O15   O     O_R   0.389950 0.516400 0.387870 -0.632213
O16   O     O_3   0.455969 0.725730 0.071102 -0.599125
Zn1   Zn    Zn3+2 0.353060 0.521920 0.514810 0.955419
Zn2   Zn    Zn3+2 0.646940 0.478080 0.485190 0.970505

loop_
_geom_bond_atom_site_label_1
_geom_bond_atom_site_label_2
_ccdc_geom_bond_type
C25   C31   S    
C22   H14   S    
C24   H18   S    
C28   H32   S    
C25   H22   S    
C20   H7    S    
O11   Zn1   S    
C4    H12   S    
C1    O10   A    
C16   O16   S    
O9    Zn2   S    
C12   O11   A    
C23   C29   S    
C27   H28   S    
C18   H3    S    
C22   O5    S    
C5    C11   T    
O12   Zn1   S    
C30   C31   S    
C32   O14   A    
C27   H27   S    
C24   O6    S    
C15   O5    S    
O14   Zn2   S    
C17   O2    S    
C16   H34   S    
C14   O6    S    
O15   Zn1   S    
C26   H25   S    
O1    Zn1   S    
C22   H16   S    
C5    C32   S    
C24   H17   S    
C17   H36   S    
O13   Zn2   S    
C4    C7    S    
C15   C29   D    
C21   H11   S    
C20   C29   S    
C18   H38   S    
C28   O8    S    
C1    O1    A    
C27   O7    S    
C25   H20   S    
C3    C8    S    
C30   N1    D    
C31   N2    D    
C3    C34   S    
C24   H19   S    
C12   O9    A    
C14   C23   D    
C19   O4    S    
C2    C4    S    
C34   O16   S    
C3    C9    S    
C19   H4    S    
C33   O15   A    
C21   H10   S    
C9    C11   S    
C12   C15   S    
C3    H1    S    
C32   O12   A    
C10   C34   S    
C16   H33   S    
C26   H24   S    
N2    Zn1   S    
C19   H5    S    
C7    O4    S    
C28   H30   S    
C17   H37   S    
C21   C23   S    
C8    O3    S    
C7    C34   S    
N2    O7    S    
C4    C10   S    
N1    O8    S    
C20   H9    S    
C2    O2    S    
C22   H15   S    
C7    C9    S    
C17   H35   S    
C2    C8    S    
C25   H21   S    
N1    Zn2   S    
C10   C13   S    
C20   H8    S    
C26   C30   S    
C6    C33   S    
C28   H31   S    
C33   O13   A    
C6    C13   T    
C26   H26   S    
C18   O3    S    
C16   H23   S    
C19   H6    S    
C8    C10   S    
C27   H29   S    
C1    C14   S    
O10   Zn2   S    
C2    C9    S    
C18   H2    S    
C21   H13   S    
