data_mof_unit_17581.cif
_audit_creation_date              2012-12-10T16:56:29-0500
_audit_creation_method            fapswitch 2.2
_symmetry_space_group_name_H-M    P1
_symmetry_Int_Tables_number       1
_space_group_crystal_system       triclinic
_cell_length_a                    7.797743
_cell_length_b                    8.588072
_cell_length_c                    15.661199
_cell_angle_alpha                 92.575475
_cell_angle_beta                  83.391676
_cell_angle_gamma                 94.02733
_cell_volume                      1038.53284647

loop_
_atom_site_label
_atom_site_type_symbol
_atom_type_description
_atom_site_fract_x
_atom_site_fract_y
_atom_site_fract_z
_atom_type_partial_charge
C1    C     C_R   0.545960 0.794844 0.497896 0.956633
C2    C     C_3   0.425252 0.360678 0.024071 0.170255
C3    C     C_1   0.493638 0.515708 0.751645 -0.179572
C4    C     C_1   0.506348 0.484233 0.248356 -0.179568
C5    C     C_3   0.330718 0.489094 0.985635 -0.276633
C6    C     C_3   0.669230 0.510736 0.014366 -0.276705
C7    C     C_3   0.490136 0.513817 0.918426 0.064759
C8    C     C_3   0.509817 0.486022 0.081574 0.064692
C9    C     C_1   0.487965 0.520931 0.827484 -0.074047
C10   C     C_1   0.512005 0.478955 0.172518 -0.074066
C11   C     C_3   0.660781 0.789655 0.937232 -0.373660
C12   C     C_R   0.454040 0.205156 0.502104 0.956639
C13   C     C_3   0.755518 0.891914 0.001139 -0.884619
C14   C     C_3   0.339250 0.210168 0.062790 -0.373763
C15   C     C_3   0.244498 0.107871 0.998911 -0.885175
C16   C     C_R   0.325482 0.733904 0.103777 0.157666
C17   C     C_R   0.418686 0.828160 0.160649 -0.151610
C18   C     C_R   0.333270 0.926687 0.222447 -0.154667
C19   C     C_R   0.153600 0.930571 0.228977 -0.088494
C20   C     C_R   0.059223 0.835490 0.173927 -0.141447
C21   C     C_R   0.144587 0.738161 0.111188 -0.170524
C22   C     C_R   0.674447 0.265908 0.896228 0.157652
C23   C     C_R   0.498822 0.504707 0.662216 0.900069
C24   C     C_R   0.855320 0.261482 0.888906 -0.170294
C25   C     C_R   0.940688 0.164122 0.826184 -0.141461
C26   C     C_R   0.846332 0.069165 0.771068 -0.088498
C27   C     C_R   0.666682 0.073210 0.777514 -0.154618
C28   C     C_R   0.581269 0.171777 0.839291 -0.151778
C29   C     C_R   0.501177 0.495288 0.337784 0.900075
C30   C     C_2   0.570024 0.958435 0.496716 -0.391009
C31   C     C_2   0.429976 0.041565 0.503285 -0.390996
C32   C     C_3   0.416735 0.614806 0.044060 0.020025
C33   C     C_3   0.583213 0.385028 0.955939 0.019993
C34   C     C_3   0.574699 0.639156 0.975932 0.170140
H1    H     H_    0.804385 0.519470 0.030560 0.136341
H2    H     H_    0.755771 0.757106 0.881991 0.211247
H3    H     H_    0.561334 0.856248 0.912527 0.208265
H4    H     H_    0.179181 0.180202 0.957448 0.248180
H5    H     H_    0.335637 0.033851 0.958989 0.254593
H6    H     H_    0.144324 0.029592 0.034066 0.269048
H7    H     H_    0.438757 0.143613 0.087464 0.208261
H8    H     H_    0.244288 0.242684 0.118049 0.211312
H9    H     H_    0.556835 0.820994 0.159531 0.131255
H10   H     H_    0.406226 0.998367 0.266079 0.129182
H11   H     H_    0.087341 0.005934 0.277300 0.120897
H12   H     H_    0.195565 0.480356 0.969435 0.136335
H13   H     H_    0.919674 0.836588 0.180450 0.125443
H14   H     H_    0.068888 0.664008 0.070064 0.115621
H15   H     H_    0.931003 0.335533 0.930088 0.115514
H16   H     H_    0.080226 0.162894 0.819730 0.125444
H17   H     H_    0.912593 0.993775 0.722760 0.120876
H18   H     H_    0.593746 0.001625 0.733832 0.129190
H19   H     H_    0.443145 0.179065 0.840347 0.131270
H20   H     H_    0.702137 0.009931 0.490496 0.179955
H21   H     H_    0.297863 0.990069 0.509504 0.179955
H22   H     H_    0.013649 0.379576 0.435421 0.186914
H23   H     H_    0.986351 0.620424 0.564579 0.186909
H24   H     H_    0.664460 0.966396 0.040821 0.254556
H25   H     H_    0.820206 0.819522 0.042861 0.248067
H26   H     H_    0.856244 0.969754 0.966004 0.268875
N1    N     N_2   0.950320 0.457950 0.477300 -0.169292
N2    N     N_2   0.049680 0.542050 0.522700 -0.169294
O1    O     O_R   0.389250 0.738570 0.505570 -0.612229
O2    O     O_R   0.610750 0.261430 0.494430 -0.612229
O3    O     O_R   0.678390 0.711630 0.491020 -0.631222
O4    O     O_R   0.321610 0.288370 0.508980 -0.631217
O5    O     O_R   0.355460 0.513480 0.630490 -0.614770
O6    O     O_R   0.644540 0.486520 0.369510 -0.614780
O7    O     O_R   0.644600 0.486540 0.615950 -0.614860
O8    O     O_R   0.355400 0.513460 0.384050 -0.614850
Zn1   Zn    Zn3+2 0.306940 0.517990 0.509710 0.942927
Zn2   Zn    Zn3+2 0.693060 0.482010 0.490290 0.942919

loop_
_geom_bond_atom_site_label_1
_geom_bond_atom_site_label_2
_ccdc_geom_bond_type
O7    Zn2   S    
C1    O3    A    
C28   H19   S    
C19   H11   S    
C15   H4    S    
C16   C21   A    
C3    C9    T    
C18   H10   S    
C16   C32   S    
O3    Zn2   S    
C30   H20   S    
C5    H12   S    
C23   O7    A    
C3    C23   S    
C19   C20   A    
C6    C33   S    
O6    Zn2   S    
C14   H8    S    
C5    C32   S    
C6    C34   S    
C21   H14   S    
C17   H9    S    
C17   C18   A    
C24   C25   A    
H23   N2    S    
C13   H26   S    
C22   C28   A    
C26   H17   S    
C27   H18   S    
C7    C33   S    
C15   H5    S    
C26   C27   A    
C30   C31   D    
C29   O6    A    
C12   O2    A    
C14   H7    S    
C13   H25   S    
C1    O1    A    
C2    C33   S    
C1    C30   S    
O1    Zn1   S    
N2    Zn1   S    
C29   O8    A    
O5    Zn1   S    
O2    Zn2   S    
C12   C31   S    
N1    N2    D    
C2    C14   S    
C7    C34   S    
C22   C24   A    
C15   H6    S    
C2    C5    S    
C16   C17   A    
C4    C10   T    
C8    C32   S    
C7    C9    S    
C11   C13   S    
O8    Zn1   S    
C20   C21   A    
N1    Zn2   S    
C8    C10   S    
C18   C19   A    
C23   O5    A    
C24   H15   S    
C5    C7    S    
C22   C33   S    
H22   N1    S    
C11   H2    S    
C2    C8    S    
C6    C8    S    
C13   H24   S    
C31   H21   S    
C25   C26   A    
C14   C15   S    
C12   O4    A    
C25   H16   S    
C11   H3    S    
C11   C34   S    
C6    H1    S    
C20   H13   S    
O4    Zn1   S    
C4    C29   S    
C27   C28   A    
C32   C34   S    
