data_mof_unit_67442.cif
_audit_creation_date              2013-03-05T15:40:40-0500
_audit_creation_method            fapswitch 2.2
_symmetry_space_group_name_H-M    P1
_symmetry_Int_Tables_number       1
_space_group_crystal_system       triclinic
_cell_length_a                    7.62958
_cell_length_b                    8.901141
_cell_length_c                    15.919523
_cell_angle_alpha                 94.929661
_cell_angle_beta                  77.416586
_cell_angle_gamma                 103.691001
_cell_volume                      1024.50285096

loop_
_atom_site_label
_atom_site_type_symbol
_atom_site_description
_atom_site_fract_x
_atom_site_fract_y
_atom_site_fract_z
_atom_type_partial_charge
O1    O     O_R   0.384450 0.714270 0.493720 -0.566946
O2    O     O_R   0.615550 0.285730 0.506280 -0.481058
O3    O     O_R   0.684880 0.742590 0.510050 -0.633740
O4    O     O_R   0.315120 0.257410 0.489950 -0.606671
C1    C     C_R   0.542881 0.799999 0.506645 0.695330
C2    C     C_R   0.455090 0.200892 0.497562 0.767659
O5    O     O_R   0.265540 0.477900 0.617090 -0.582167
O6    O     O_R   0.734460 0.522100 0.382910 -0.596974
O7    O     O_R   0.565970 0.506210 0.633420 -0.506832
O8    O     O_R   0.434030 0.493790 0.366580 -0.570259
C3    C     C_R   0.388295 0.489968 0.665766 0.791524
C4    C     C_R   0.611903 0.517560 0.334676 0.807522
Cu1   Cu    Cu3+1 0.322120 0.483240 0.490330 0.998309
Cu2   Cu    Cu3+1 0.677880 0.516760 0.509670 1.044651
C5    C     C_R   0.322120 0.459666 0.759183 -0.158814
C6    C     C_R   0.673008 0.535343 0.239895 -0.159787
C7    C     C_R   0.122862 0.278458 0.864468 0.441155
C8    C     C_R   0.918967 0.581828 0.112129 0.473783
C9    C     C_R   0.163431 0.345728 0.784448 -0.225174
C10   C     C_R   0.860196 0.566770 0.201583 -0.387613
C11   C     C_R   0.434213 0.516827 0.819124 0.489268
C12   C     C_R   0.543212 0.522986 0.187181 0.445975
C13   C     C_R   0.392618 0.449788 0.901596 -0.038244
C14   C     C_R   0.597156 0.501935 0.096504 -0.123612
C15   C     C_R   0.225118 0.343456 0.927466 -0.066095
C16   C     C_R   0.788250 0.543523 0.058183 -0.106710
C17   C     C_R   0.522876 0.471992 0.954418 -0.225219
C18   C     C_R   0.466672 0.443894 0.042736 -0.088716
C19   C     C_R   0.291454 0.342394 0.070744 0.431234
C20   C     C_R   0.709586 0.483246 0.916878 0.370918
C21   C     C_R   0.167943 0.296008 0.013267 0.363541
C22   C     C_R   0.842772 0.539655 0.966830 0.418191
H1    H     H_    0.962078 0.582299 0.241210 0.182722
H2    H     H_    0.083712 0.296981 0.737724 0.183508
C23   C     C_2   0.559464 0.969785 0.518528 0.152885
C24   C     C_2   0.435172 0.033202 0.492497 0.158674
N1    N     N_2   0.945180 0.542040 0.524240 0.125564
N2    N     N_2   0.054820 0.457960 0.475760 0.078089
O9    O     O_3   0.980119 0.237086 0.042631 -0.549641
C25   C     C_3   0.941124 0.090083 0.078168 0.103572
H3    H     H_    0.910055 0.105496 0.148985 0.183564
H4    H     H_    0.055438 0.029322 0.058358 0.085160
C26   C     C_3   0.769465 0.987598 0.051417 -0.854305
H5    H     H_    0.802888 0.930013 0.987750 0.225108
H6    H     H_    0.702336 0.896521 0.099038 0.200590
H7    H     H_    0.671304 0.057378 0.045533 0.275319
O10   O     O_3   0.024160 0.590380 0.925232 -0.525249
C27   C     C_3   0.061251 0.753388 0.922016 0.071872
H8    H     H_    0.040167 0.806780 0.987565 0.159059
H9    H     H_    0.970180 0.789859 0.886039 0.128434
C28   C     C_3   0.260745 0.816822 0.879372 -0.779199
H10   H     H_    0.287698 0.772443 0.811646 0.256201
H11   H     H_    0.291745 0.944910 0.879304 0.173715
H12   H     H_    0.352279 0.783612 0.916363 0.260939
O11   O     O_3   0.367464 0.537569 0.225496 -0.724772
H13   H     H_    0.314334 0.576279 0.182857 0.325388
O12   O     O_3   0.579559 0.640425 0.796241 -0.736623
H14   H     H_    0.615012 0.695339 0.848894 0.307982
O13   O     O_3   0.008559 0.133543 0.872672 -0.780791
H15   H     H_    0.060627 0.072448 0.905700 0.317548
O14   O     O_3   0.104298 0.625537 0.077044 -0.722912
H16   H     H_    0.163936 0.695598 0.119529 0.282167
O15   O     O_3   0.250480 0.272302 0.149208 -0.573822
C29   C     C_3   0.328991 0.140341 0.140581 0.039639
H17   H     H_    0.382775 0.104501 0.072723 0.098751
H18   H     H_    0.220172 0.040109 0.167353 0.135158
C30   C     C_3   0.480028 0.164081 0.192291 -0.823196
H19   H     H_    0.503760 0.050544 0.204717 0.194128
H20   H     H_    0.611152 0.232724 0.156324 0.266334
H21   H     H_    0.440836 0.225704 0.254326 0.242403
O16   O     O_3   0.759706 0.423630 0.833606 -0.535181
C31   C     C_3   0.682113 0.260715 0.829941 0.094914
H22   H     H_    0.586123 0.211474 0.889586 0.107006
H23   H     H_    0.793138 0.200834 0.819218 0.224619
C32   C     C_3   0.589369 0.210751 0.753423 -0.779189
H24   H     H_    0.589552 0.087485 0.735464 0.220603
H25   H     H_    0.443169 0.214012 0.770821 0.200653
H26   H     H_    0.661139 0.283375 0.697505 0.326925
O17   O     O_3   0.685762 0.068009 0.562813 -0.583420
C33   C     C_3   0.835737 0.008620 0.570727 0.112385
H27   H     H_    0.917143 0.983648 0.506333 0.197991
H28   H     H_    0.784143 0.907578 0.611778 0.160725
C34   C     C_3   0.961543 0.121799 0.618995 -0.720765
H29   H     H_    0.902378 0.109081 0.688197 0.198741
H30   H     H_    0.097627 0.091503 0.607915 0.208520
H31   H     H_    0.977221 0.242001 0.600434 0.323627
O18   O     O_3   0.282785 0.942301 0.464541 -0.615986
C35   C     C_3   0.315805 0.940997 0.374062 0.064089
H32   H     H_    0.453112 0.916362 0.344098 0.132377
H33   H     H_    0.306290 0.053406 0.353531 0.145199
C36   C     C_3   0.168591 0.816561 0.342228 -0.728215
H34   H     H_    0.190717 0.819217 0.271078 0.170381
H35   H     H_    0.176402 0.700923 0.360077 0.273563
H36   H     H_    0.029498 0.836719 0.370929 0.229900
O19   O     O_3   0.965862 0.561138 0.606750 -0.441258
C37   C     C_3   0.046488 0.718318 0.622129 0.211561
H37   H     H_    0.031960 0.796728 0.575016 0.149132
H38   H     H_    0.193234 0.730929 0.621828 0.166605
C38   C     C_3   0.970373 0.770793 0.712692 -0.842997
H39   H     H_    0.954201 0.676787 0.756899 0.320443
H40   H     H_    0.066100 0.876040 0.732456 0.200195
H41   H     H_    0.837408 0.800977 0.716318 0.274475
O20   O     O_3   0.958984 0.323035 0.448385 -0.459639
C39   C     C_3   0.043771 0.290390 0.364011 0.281040
H42   H     H_    0.177409 0.261951 0.362779 0.164330
H43   H     H_    0.063615 0.389295 0.322074 0.175771
C40   C     C_3   0.918556 0.150390 0.329653 -0.864583
H44   H     H_    0.866300 0.059731 0.378157 0.237741
H45   H     H_    0.799343 0.184320 0.313095 0.226344
H46   H     H_    0.996642 0.099504 0.272377 0.212983

loop_
_geom_bond_atom_site_label_1
_geom_bond_atom_site_label_2
_geom_bond_distance
_ccdc_geom_bond_type
C15   C21   1.409508 A    
O18   C35   1.406666 S    
C19   O15   1.385193 S    
C16   C22   1.422594 A    
C31   H23   1.079738 S    
C23   C24   1.361794 D    
C8    C16   1.417857 A    
O11   H13   0.984886 S    
C39   H43   1.112463 S    
C20   O16   1.392633 S    
C5    C9    1.390270 A    
N2    O20   1.341691 S    
C34   H29   1.100376 S    
O1    C1    1.315484 A    
C18   C19   1.428275 A    
C14   C16   1.425003 A    
C31   C32   1.521775 S    
C37   C38   1.510580 S    
N1    O19   1.348468 S    
O4    Cu1   1.997700 S    
C7    C9    1.395948 A    
C3    C5    1.488837 S    
C25   C26   1.529543 S    
C38   H39   1.106864 S    
C2    C24   1.461104 S    
C37   H38   1.097451 S    
O6    Cu2   1.971793 S    
C40   H44   1.107715 S    
C13   C17   1.405862 A    
C6    C10   1.396622 A    
C25   H4    1.107600 S    
O13   H15   0.986106 S    
Cu1   Cu2   2.741571 S    
C17   C20   1.402942 A    
C40   H45   1.111826 S    
O2    C2    1.306395 A    
C33   C34   1.502410 S    
C39   H42   1.103028 S    
C26   H7    1.102821 S    
C27   C28   1.518284 S    
C24   O18   1.386638 S    
C30   H19   1.108971 S    
C29   C30   1.522630 S    
C4    C6    1.489531 S    
C33   H28   1.101036 S    
O9    C25   1.410788 S    
O7    Cu2   1.969727 S    
C31   H22   1.116535 S    
O15   C29   1.423676 S    
C9    H2    1.062177 S    
C28   H10   1.108793 S    
C28   H11   1.108282 S    
C29   H18   1.107911 S    
O5    C3    1.320400 A    
C32   H24   1.110066 S    
C11   O12   1.374095 S    
N1    N2    1.330895 D    
C36   H35   1.109260 S    
C26   H6    1.110917 S    
O10   C27   1.414234 S    
C35   C36   1.519152 S    
C5    C11   1.402497 A    
O6    C4    1.324841 A    
C37   H37   1.106682 S    
C34   H31   1.106674 S    
C27   H9    1.108292 S    
C32   H25   1.095949 S    
Cu1   N2    2.059961 S    
O3    Cu2   1.997699 S    
O8    C4    1.314022 A    
C7    O13   1.374140 S    
C10   H1    1.081246 S    
O4    C2    1.315063 A    
C25   H3    1.103785 S    
C34   H30   1.107431 S    
C35   H33   1.101888 S    
O7    C3    1.318917 A    
C26   H5    1.102274 S    
C22   O10   1.383435 S    
C12   C14   1.421074 A    
O1    Cu1   1.996785 S    
C36   H34   1.109689 S    
C27   H8    1.103842 S    
C6    C12   1.411268 A    
C38   H40   1.111587 S    
C14   C18   1.429168 A    
C33   H27   1.111218 S    
O3    C1    1.315377 A    
O8    Cu1   1.969725 S    
C8    O14   1.376784 S    
C12   O11   1.378141 S    
C30   H21   1.105186 S    
C7    C15   1.405966 A    
C29   H17   1.116572 S    
C28   H12   1.108474 S    
C11   C13   1.429689 A    
O19   C37   1.412488 S    
O16   C31   1.432092 S    
C19   C21   1.422075 A    
C36   H36   1.109919 S    
C20   C22   1.399644 A    
O12   H14   0.990193 S    
C1    C23   1.485450 S    
C23   O17   1.407550 S    
C40   H46   1.100708 S    
C21   O9    1.393417 S    
C8    C10   1.404678 A    
C13   C15   1.401313 A    
O14   H16   0.990283 S    
O2    Cu2   1.996786 S    
C32   H26   1.108647 S    
O17   C33   1.401862 S    
O5    Cu1   1.971796 S    
C38   H41   1.097950 S    
C35   H32   1.116299 S    
Cu2   N1    2.059961 S    
O20   C39   1.396549 S    
C30   H20   1.105984 S    
C39   C40   1.520440 S    
C17   C18   1.403617 A    
