data_mof_unit_55489.cif
_audit_creation_date              2012-10-26T19:03:32-0400
_audit_creation_method            fapswitch 2.2
_symmetry_space_group_name_H-M    P1
_symmetry_Int_Tables_number       1
_space_group_crystal_system       triclinic
_cell_length_a                    10.761479
_cell_length_b                    13.05817
_cell_length_c                    11.674079
_cell_angle_alpha                 99.910849
_cell_angle_beta                  93.691287
_cell_angle_gamma                 90.410424
_cell_volume                      1612.39060364

loop_
_atom_site_label
_atom_site_type_symbol
_atom_type_description
_atom_site_fract_x
_atom_site_fract_y
_atom_site_fract_z
_atom_type_partial_charge
C1    C     C_R   0.499554 0.299063 0.479094 0.553827
C2    C     C_R   0.511107 0.123009 0.359911 -0.187558
C3    C     C_R   0.495121 0.139389 0.569794 0.259408
C4    C     C_R   0.262466 0.500486 0.500403 0.536144
C5    C     C_R   0.488394 0.031103 0.557623 0.026768
C6    C     C_R   0.502296 0.968963 0.447963 -0.004037
C7    C     C_R   0.504736 0.861285 0.438341 -0.151249
C8    C     C_R   0.468456 0.877222 0.644904 0.060318
C9    C     C_R   0.467896 0.984327 0.653953 -0.079974
C10   C     C_R   0.382632 0.400137 0.021386 0.235653
C11   C     C_R   0.393270 0.411816 0.144599 0.062587
C12   C     C_R   0.069051 0.600235 0.538111 0.026735
C13   C     C_R   0.551340 0.540648 0.156544 0.029382
C14   C     C_R   0.542644 0.533566 0.033802 -0.078946
C15   C     C_R   0.456665 0.463579 0.965322 -0.001070
C16   C     C_R   0.497810 0.700900 0.521953 0.526523
C17   C     C_R   0.448618 0.458153 0.842543 0.026306
C18   C     C_R   0.608211 0.588035 0.855235 0.435406
C19   C     C_R   0.618722 0.594943 0.978881 -0.162966
C20   C     C_R   0.737481 0.500840 0.499640 0.534223
C21   C     C_R   0.136493 0.694791 0.572945 -0.101543
C22   C     C_R   0.074869 0.787490 0.607411 -0.121945
C23   C     C_R   0.128901 0.505502 0.501276 0.013135
C24   C     C_R   0.945434 0.787691 0.606961 -0.133913
C25   C     C_R   0.876967 0.695190 0.572137 -0.094698
C26   C     C_R   0.937768 0.600442 0.537409 0.030804
C27   C     C_3   0.611432 0.211279 0.733724 -0.118425
C28   C     C_3   0.755597 0.724927 0.865497 -0.155490
C29   C     C_3   0.332125 0.229111 0.959612 -0.118548
C30   C     C_R   0.060610 0.413736 0.461297 -0.144538
C31   C     C_R   0.932160 0.413946 0.460336 -0.150495
C32   C     C_R   0.871049 0.505930 0.499350 0.010087
C33   C     C_R   0.490768 0.814339 0.536326 0.000427
C34   C     C_R   0.501487 0.185738 0.469301 0.007991
C35   C     C_R   0.513935 0.015366 0.349672 -0.151966
Cu1   Cu    Cu3+1 0.509250 0.507730 0.615930 1.002839
Cu2   Cu    Cu3+1 0.490750 0.492270 0.384070 0.925054
H1    H     H_    0.107207 0.341589 0.431702 0.117349
H2    H     H_    0.897803 0.859839 0.633194 0.107892
H3    H     H_    0.776536 0.698716 0.571796 0.141261
H4    H     H_    0.880095 0.341894 0.430380 0.113295
H5    H     H_    0.518835 0.814165 0.354321 0.128375
H6    H     H_    0.523658 0.968414 0.264752 0.116030
H7    H     H_    0.677046 0.245857 0.680326 0.134662
H8    H     H_    0.647621 0.135969 0.752556 0.095869
H9    H     H_    0.608567 0.265064 0.818072 0.135595
H10   H     H_    0.832036 0.691278 0.915010 0.127221
H11   H     H_    0.697842 0.778424 0.924011 0.094857
H12   H     H_    0.451309 0.030799 0.737668 0.163353
H13   H     H_    0.799473 0.772391 0.808548 0.141203
H14   H     H_    0.321658 0.208383 0.047002 0.098533
H15   H     H_    0.429433 0.216039 0.933904 0.124711
H16   H     H_    0.270576 0.175630 0.895890 0.158871
H17   H     H_    0.524745 0.800661 0.775979 0.277443
H18   H     H_    0.370434 0.782767 0.729826 0.246739
H19   H     H_    0.518064 0.157192 0.282295 0.132741
H20   H     H_    0.383203 0.404509 0.788236 0.199071
H21   H     H_    0.685660 0.646732 0.033557 0.080238
H22   H     H_    0.334022 0.365741 0.188242 0.132483
H23   H     H_    0.617476 0.594495 0.209759 0.129391
H24   H     H_    0.236731 0.697884 0.572243 0.115549
H25   H     H_    0.127720 0.859480 0.633802 0.123535
N1    N     N_R   0.523180 0.519350 0.790130 -0.235508
N2    N     N_R   0.476820 0.480650 0.209890 -0.258421
N3    N     N_3   0.444734 0.836192 0.747799 -0.651132
O1    O     O_R   0.506570 0.354460 0.582000 -0.462678
O2    O     O_3   0.682377 0.645595 0.794536 -0.529532
O3    O     O_3   0.295065 0.332070 0.956561 -0.578719
O4    O     O_R   0.490940 0.341410 0.386200 -0.526624
O5    O     O_R   0.327470 0.506530 0.597920 -0.511169
O6    O     O_R   0.311840 0.493480 0.402120 -0.502366
O7    O     O_R   0.509060 0.658590 0.613800 -0.476178
O8    O     O_R   0.493430 0.645540 0.418000 -0.514842
O9    O     O_R   0.688160 0.506520 0.597880 -0.451945
O10   O     O_R   0.672530 0.493470 0.402080 -0.510712
O11   O     O_3   0.489702 0.199551 0.679424 -0.572704

loop_
_geom_bond_atom_site_label_1
_geom_bond_atom_site_label_2
_ccdc_geom_bond_type
C2    C35   A    
C28   H10   S    
C26   C32   A    
Cu2   O4    S    
C16   O7    A    
C4    O5    A    
C13   H23   S    
C12   C23   A    
Cu1   Cu2   S    
C10   C15   A    
C25   H3    S    
C29   H14   S    
C5    C6    A    
Cu1   O1    S    
C18   N1    A    
C24   H2    S    
C6    C35   A    
C30   H1    S    
C18   C19   A    
C7    H5    S    
C28   H13   S    
C27   H7    S    
C8    C9    A    
Cu1   N1    S    
C35   H6    S    
C21   H24   S    
C27   H8    S    
Cu2   O10   S    
C8    N3    S    
C13   C14   A    
C7    C33   A    
C11   H22   S    
H18   N3    S    
Cu1   O5    S    
C1    C34   S    
C19   H21   S    
C16   O8    A    
C23   C30   A    
C28   O2    S    
C9    H12   S    
C24   C25   A    
C11   N2    A    
H17   N3    S    
C4    C23   S    
C3    C34   A    
C25   C26   A    
C12   C21   A    
C1    O4    A    
C20   O10   A    
C12   C26   A    
C5    C9    A    
C16   C33   S    
C22   H25   S    
C29   O3    S    
C31   C32   A    
C1    O1    A    
C20   O9    A    
C3    O11   S    
Cu1   O9    S    
C27   H9    S    
Cu2   O6    S    
C22   C24   A    
C27   O11   S    
Cu2   N2    S    
C20   C32   S    
C15   C17   A    
Cu2   O8    S    
C28   H11   S    
C31   H4    S    
C14   C19   A    
C3    C5    A    
C6    C7    A    
C10   O3    S    
C18   O2    S    
C2    H19   S    
C17   N1    A    
C2    C34   A    
C30   C31   A    
C13   N2    A    
C29   H16   S    
C8    C33   A    
C10   C11   A    
C14   C15   A    
C21   C22   A    
C4    O6    A    
Cu1   O7    S    
C17   H20   S    
C29   H15   S    
