data_mof_unit_6583.cif
_audit_creation_date              2012-12-10T18:33:45-0500
_audit_creation_method            fapswitch 2.2
_symmetry_space_group_name_H-M    P1
_symmetry_Int_Tables_number       1
_space_group_crystal_system       triclinic
_cell_length_a                    10.483247
_cell_length_b                    14.881534
_cell_length_c                    15.078117
_cell_angle_alpha                 81.638582
_cell_angle_beta                  89.723746
_cell_angle_gamma                 103.426128
_cell_volume                      2261.86012992

loop_
_atom_site_label
_atom_site_type_symbol
_atom_type_description
_atom_site_fract_x
_atom_site_fract_y
_atom_site_fract_z
_atom_type_partial_charge
C1    C     C_R   0.484422 0.441881 0.663729 0.862541
C2    C     C_R   0.641235 0.491826 0.044826 -0.147680
C3    C     C_R   0.642648 0.397438 0.079003 0.510529
C4    C     C_R   0.699909 0.615327 0.917676 0.505079
C5    C     C_R   0.607237 0.328041 0.022898 -0.041169
C6    C     C_R   0.685328 0.683176 0.970524 -0.021988
C7    C     C_R   0.725261 0.843604 0.621552 -0.321177
C8    C     C_R   0.350860 0.174998 0.333873 -0.315881
C9    C     C_R   0.673531 0.751993 0.608966 -0.087437
C10   C     C_R   0.357155 0.254959 0.372532 -0.068922
C11   C     C_R   0.519584 0.798469 0.508200 0.586591
C12   C     C_R   0.521349 0.558546 0.336337 0.888607
C13   C     C_R   0.487805 0.203997 0.488588 0.614125
C14   C     C_R   0.577386 0.894546 0.511287 -0.136181
C15   C     C_R   0.493723 0.124122 0.448045 -0.136105
C16   C     C_R   0.742344 0.500418 0.499884 0.931848
C17   C     C_R   0.257414 0.499002 0.501864 0.928122
C18   C     C_R   0.679561 0.916812 0.571936 0.068564
C19   C     C_R   0.420145 0.108647 0.370237 0.076288
C20   C     C_R   0.535079 0.968397 0.458230 0.032309
C21   C     C_R   0.566307 0.058118 0.483457 0.031495
C22   C     C_R   0.673797 0.080227 0.538564 -0.182513
C23   C     C_R   0.563811 0.475095 0.810681 -0.199208
C24   C     C_R   0.471229 0.957176 0.377361 -0.190317
C25   C     C_R   0.735576 0.011538 0.579905 0.095002
C26   C     C_R   0.419583 0.028216 0.329818 0.104338
C27   C     C_3   0.950088 0.471846 0.425057 -0.334364
C28   C     C_3   0.049633 0.527281 0.579688 -0.368009
C29   C     C_3   0.010533 0.411154 0.497618 -0.282693
C30   C     C_3   0.988589 0.587830 0.507281 -0.318338
C31   C     C_3   0.121888 0.497816 0.503757 -0.118587
C32   C     C_3   0.877505 0.501097 0.500652 -0.107745
C33   C     C_3   0.061891 0.557286 0.432846 0.631774
C34   C     C_R   0.569099 0.530455 0.184733 -0.203829
C35   C     C_3   0.937049 0.441712 0.571924 0.640510
C36   C     C_R   0.500099 0.409414 0.758889 -0.094983
C37   C     C_R   0.560766 0.594360 0.241937 -0.123608
C38   C     C_R   0.470487 0.289904 0.890361 0.126835
C39   C     C_R   0.673758 0.720989 0.127467 0.119595
C40   C     C_R   0.452212 0.317249 0.798931 -0.203184
C41   C     C_R   0.612693 0.689515 0.213113 -0.206767
C42   C     C_3   0.457174 0.161665 0.638772 -0.334981
C43   C     C_3   0.298212 0.773029 0.515676 -0.272573
C44   C     C_3   0.061346 0.666247 0.308229 -0.348167
C45   C     C_R   0.597463 0.449424 0.898426 0.046058
C46   C     C_3   0.931835 0.365171 0.716747 -0.356487
C47   C     C_3   0.634014 0.231631 0.051316 -0.379735
C48   C     C_3   0.781261 0.234715 0.055799 -0.305839
C49   C     C_3   0.804564 0.136375 0.076395 -0.932272
C50   C     C_3   0.668739 0.777011 0.921699 -0.396186
C51   C     C_3   0.556056 0.765228 0.855964 -0.310592
C52   C     C_3   0.531580 0.859637 0.815311 -0.909894
C53   C     C_3   0.379982 0.199700 0.936872 -0.465947
C54   C     C_3   0.234071 0.197488 0.922596 -0.322392
C55   C     C_3   0.145891 0.108943 0.974324 -0.930361
C56   C     C_R   0.629127 0.559285 0.099274 0.046956
C57   C     C_3   0.765842 0.817851 0.112453 -0.456674
C58   C     C_3   0.873170 0.827688 0.181933 -0.334507
C59   C     C_3   0.964264 0.924989 0.166187 -0.915661
C60   C     C_3   0.806824 0.422654 0.180201 -0.347419
C61   C     C_3   0.873343 0.615968 0.825291 -0.365618
C62   C     C_3   0.859642 0.037393 0.632595 -0.438462
C63   C     C_3   0.931915 0.141212 0.617669 -0.325227
C64   C     C_3   0.064022 0.155838 0.662423 -0.931980
C65   C     C_3   0.363309 0.019190 0.237307 -0.427630
C66   C     C_3   0.395392 0.940816 0.191185 -0.345965
C67   C     C_R   0.558567 0.353632 0.937526 0.013645
C68   C     C_3   0.353897 0.947891 0.094042 -0.906913
C69   C     C_R   0.663598 0.656386 0.064893 0.008910
C70   C     C_R   0.652387 0.518763 0.951937 -0.148162
H1    H     H_    0.023902 0.339682 0.495507 0.164928
H2    H     H_    0.095751 0.549168 0.641657 0.143991
H3    H     H_    0.527061 0.457060 0.207071 0.208463
H4    H     H_    0.582275 0.547533 0.782187 0.211468
H5    H     H_    0.614049 0.738778 0.259597 0.161672
H6    H     H_    0.391351 0.268989 0.760910 0.136487
H7    H     H_    0.436978 0.086279 0.631936 0.147854
H8    H     H_    0.363163 0.183830 0.640943 0.160267
H9    H     H_    0.504797 0.168857 0.703682 0.200598
H10   H     H_    0.301968 0.844819 0.530044 0.130983
H11   H     H_    0.289387 0.723669 0.579614 0.160062
H12   H     H_    0.974273 0.658951 0.510308 0.153900
H13   H     H_    0.208327 0.751700 0.478217 0.210137
H14   H     H_    0.023977 0.713661 0.346866 0.157937
H15   H     H_    0.978565 0.618566 0.280342 0.147886
H16   H     H_    0.122888 0.710454 0.250802 0.199307
H17   H     H_    0.952593 0.427739 0.751327 0.156745
H18   H     H_    0.025012 0.347097 0.699080 0.154500
H19   H     H_    0.873887 0.305807 0.764573 0.200607
H20   H     H_    0.751474 0.098930 0.139981 0.270626
H21   H     H_    0.770563 0.096021 0.021018 0.261493
H22   H     H_    0.911033 0.140986 0.083976 0.255219
H23   H     H_    0.310590 0.308457 0.341047 0.157853
H24   H     H_    0.831994 0.269732 0.990646 0.206043
H25   H     H_    0.825749 0.273936 0.109171 0.251285
H26   H     H_    0.583859 0.200466 0.117439 0.219855
H27   H     H_    0.597332 0.184108 0.002314 0.193546
H28   H     H_    0.498161 0.894480 0.868381 0.255883
H29   H     H_    0.622658 0.905581 0.781311 0.268609
H30   H     H_    0.454387 0.849175 0.765117 0.248643
H31   H     H_    0.578838 0.729586 0.800288 0.257692
H32   H     H_    0.464516 0.721908 0.891932 0.208661
H33   H     H_    0.641894 0.820431 0.969006 0.198275
H34   H     H_    0.714182 0.696511 0.643114 0.193349
H35   H     H_    0.762205 0.815654 0.885106 0.213418
H36   H     H_    0.169500 0.046022 0.953143 0.266495
H37   H     H_    0.158926 0.107045 0.047606 0.267551
H38   H     H_    0.041703 0.107634 0.960224 0.255159
H39   H     H_    0.209825 0.259402 0.945731 0.222636
H40   H     H_    0.212091 0.199196 0.850556 0.212573
H41   H     H_    0.405110 0.139470 0.910951 0.194892
H42   H     H_    0.390665 0.191600 0.010482 0.209792
H43   H     H_    0.908658 0.978426 0.174558 0.271777
H44   H     H_    0.010622 0.939868 0.097673 0.267128
H45   H     H_    0.801766 0.855821 0.669225 0.168235
H46   H     H_    0.042166 0.928820 0.215891 0.248447
H47   H     H_    0.829937 0.815492 0.251229 0.218432
H48   H     H_    0.931851 0.775239 0.176678 0.216634
H49   H     H_    0.819089 0.832181 0.046412 0.208707
H50   H     H_    0.707865 0.871192 0.115714 0.202067
H51   H     H_    0.802815 0.486544 0.208774 0.180915
H52   H     H_    0.872641 0.441637 0.118636 0.140992
H53   H     H_    0.852425 0.378656 0.230119 0.186593
H54   H     H_    0.853823 0.538797 0.829236 0.181252
H55   H     H_    0.942253 0.640010 0.877650 0.160791
H56   H     H_    0.293407 0.167000 0.274937 0.150929
H57   H     H_    0.922304 0.647198 0.758878 0.190221
H58   H     H_    0.049000 0.136034 0.736294 0.262601
H59   H     H_    0.125533 0.112968 0.636734 0.257700
H60   H     H_    0.117255 0.230373 0.647099 0.246980
H61   H     H_    0.949869 0.166477 0.544582 0.221068
H62   H     H_    0.871787 0.183047 0.646604 0.253951
H63   H     H_    0.834492 0.014343 0.705323 0.196803
H64   H     H_    0.930224 0.998217 0.611800 0.208504
H65   H     H_    0.246748 0.942588 0.091180 0.269543
H66   H     H_    0.407508 0.015246 0.054827 0.259425
H67   H     H_    0.714595 0.152193 0.544811 0.204012
H68   H     H_    0.377275 0.889976 0.063157 0.252198
H69   H     H_    0.502897 0.945707 0.191237 0.219591
H70   H     H_    0.342694 0.871561 0.227542 0.235866
H71   H     H_    0.255240 0.009083 0.243309 0.194798
H72   H     H_    0.403487 0.086120 0.192444 0.202341
H73   H     H_    0.469198 0.894920 0.348526 0.191115
H74   H     H_    0.905063 0.450991 0.362625 0.151853
N1    N     N_R   0.574200 0.731700 0.552740 -0.139024
N2    N     N_R   0.425800 0.268300 0.447260 -0.134844
O1    O     O_R   0.462600 0.383110 0.605620 -0.565704
O2    O     O_3   0.407500 0.769943 0.462186 -0.592257
O3    O     O_3   0.139675 0.616132 0.360980 -0.593749
O4    O     O_3   0.856937 0.379783 0.641072 -0.590771
O5    O     O_3   0.678931 0.371210 0.165746 -0.613894
O6    O     O_3   0.755936 0.645893 0.831845 -0.645407
O7    O     O_R   0.537400 0.616890 0.394380 -0.584315
O8    O     O_R   0.510210 0.531900 0.639510 -0.638744
O9    O     O_R   0.489790 0.468100 0.360490 -0.625246
O10   O     O_R   0.662240 0.425610 0.483080 -0.565743
O11   O     O_R   0.337760 0.574390 0.516920 -0.563692
O12   O     O_R   0.709860 0.574400 0.516970 -0.643607
O13   O     O_R   0.290140 0.425600 0.483030 -0.642714
O14   O     O_3   0.542763 0.218690 0.569722 -0.583742
Zn1   Zn    Zn3+2 0.468210 0.400660 0.477370 0.987501
Zn2   Zn    Zn3+2 0.531790 0.599340 0.522630 0.967751

loop_
_geom_bond_atom_site_label_1
_geom_bond_atom_site_label_2
_ccdc_geom_bond_type
C6    C69   A    
C66   C68   S    
C34   C56   A    
C23   C45   A    
C48   H25   S    
C27   C29   S    
C34   C37   A    
C43   H13   S    
C14   C18   A    
C68   H68   S    
C49   H20   S    
C5    C67   A    
C4    C70   A    
C39   C41   A    
C46   H19   S    
C53   C54   S    
C27   C33   S    
C51   H32   S    
C15   C19   A    
C5    C47   S    
C22   H67   S    
C48   H24   S    
C61   H54   S    
C62   H63   S    
C38   C40   A    
C24   C26   A    
O7    Zn2   S    
C59   H44   S    
C11   C14   A    
C11   O2    S    
N1    Zn2   S    
C24   H73   S    
C39   C57   S    
C58   H48   S    
C54   H40   S    
C7    H45   S    
C12   C37   S    
C19   C26   A    
C43   O2    S    
C66   H69   S    
C20   C24   A    
C28   C35   S    
C59   H46   S    
C64   H58   S    
C22   C25   A    
C45   C67   A    
C50   H35   S    
C50   H33   S    
C47   H26   S    
C31   C33   S    
C9    N1    A    
C35   O4    S    
C63   H61   S    
C17   O11   A    
C12   O7    A    
C13   O14   S    
C57   H49   S    
C53   H41   S    
C27   C32   S    
C42   H9    S    
C21   C22   A    
C28   H2    S    
C18   C25   A    
C13   N2    A    
C49   H21   S    
C44   H16   S    
C50   C51   S    
C46   H18   S    
C28   C31   S    
C4    O6    S    
N2    Zn1   S    
C8    C19   A    
C55   H36   S    
C16   O12   A    
C51   C52   S    
C32   C35   S    
C14   C20   A    
C68   H66   S    
C4    C6    A    
O1    Zn1   S    
C56   C69   A    
C11   N1    A    
C10   H23   S    
C3    C5    A    
C58   C59   S    
C52   H30   S    
C58   H47   S    
O9    Zn1   S    
C40   H6    S    
C54   H39   S    
C55   H37   S    
C23   H4    S    
C60   O5    S    
C30   H12   S    
C60   H53   S    
C16   O10   A    
C62   C63   S    
C41   H5    S    
C65   H71   S    
C47   C48   S    
C36   C40   A    
C59   H43   S    
C7    C18   A    
O13   Zn1   S    
C27   H74   S    
C39   C69   A    
C61   H57   S    
C63   H62   S    
C20   C21   A    
C60   H52   S    
C10   N2    A    
C57   H50   S    
C53   H42   S    
C8    H56   S    
C48   C49   S    
C46   O4    S    
C64   H60   S    
O10   Zn1   S    
C65   C66   S    
C13   C15   A    
C17   C31   S    
C1    O1    A    
C16   C32   S    
C12   O9    A    
C44   H15   S    
C46   H17   S    
C7    C9    A    
C54   C55   S    
C6    C50   S    
C30   C33   S    
C45   C70   A    
C26   C65   S    
O8    Zn2   S    
C68   H65   S    
C42   O14   S    
C44   H14   S    
C61   H55   S    
C1    O8    A    
C42   H8    S    
C64   H59   S    
C51   H31   S    
C29   C35   S    
C52   H29   S    
C3    O5    S    
C44   O3    S    
C47   H27   S    
C55   H38   S    
C62   H64   S    
C28   C30   S    
C2    C3    A    
C43   H10   S    
C29   C31   S    
C2    C56   A    
C30   C32   S    
C65   H72   S    
C57   C58   S    
C38   C53   S    
C9    H34   S    
C43   H11   S    
C52   H28   S    
C25   C62   S    
C37   C41   A    
C60   H51   S    
C17   O13   A    
C61   O6    S    
O12   Zn2   S    
C34   H3    S    
C63   C64   S    
C15   C21   A    
C66   H70   S    
C38   C67   A    
C42   H7    S    
C8    C10   A    
C23   C36   A    
C33   O3    S    
C49   H22   S    
C2    C70   A    
O11   Zn2   S    
C1    C36   S    
C29   H1    S    
