data_mof_unit_29375.cif
_audit_creation_date              2012-12-10T19:05:22-0500
_audit_creation_method            fapswitch 2.2
_symmetry_space_group_name_H-M    P1
_symmetry_Int_Tables_number       1
_space_group_crystal_system       triclinic
_cell_length_a                    9.565877
_cell_length_b                    10.764198
_cell_length_c                    17.223273
_cell_angle_alpha                 89.623352
_cell_angle_beta                  85.668971
_cell_angle_gamma                 91.429844
_cell_volume                      1767.7844933

loop_
_atom_site_label
_atom_site_type_symbol
_atom_type_description
_atom_site_fract_x
_atom_site_fract_y
_atom_site_fract_z
_atom_type_partial_charge
C1    C     C_R   0.501786 0.737104 0.500628 0.834842
C2    C     C_R   0.354846 0.514337 0.780311 -0.204054
C3    C     C_R   0.443343 0.534980 0.139241 -0.410744
C4    C     C_R   0.423775 0.538462 0.220784 0.469152
C5    C     C_R   0.653731 0.447489 0.226929 -0.396143
C6    C     C_R   0.668787 0.438133 0.145977 0.471423
C7    C     C_R   0.562605 0.481926 0.101803 -0.067936
C8    C     C_2   0.460670 0.437274 0.979326 -0.355907
C9    C     C_2   0.574788 0.472511 0.015906 0.482328
C10   C     C_R   0.531671 0.495628 0.264554 -0.164537
C11   C     C_R   0.471057 0.934033 0.435319 -0.094203
C12   C     C_R   0.481260 0.494670 0.649802 0.758452
C13   C     C_R   0.508054 0.870017 0.500574 -0.205785
C14   C     C_R   0.562075 0.936540 0.562555 0.466596
C15   C     C_R   0.561192 0.066769 0.560971 -0.311615
C16   C     C_R   0.498784 0.128765 0.501024 -0.087289
C17   C     C_R   0.463447 0.061524 0.436202 0.022009
C18   C     C_3   0.335602 0.060242 0.391467 -0.513429
C19   C     C_3   0.344876 0.919726 0.388802 0.314062
C20   C     C_R   0.930505 0.425094 0.450614 0.158639
C21   C     C_R   0.921171 0.582992 0.542845 -0.212986
C22   C     C_R   0.071768 0.582806 0.544566 0.535936
C23   C     C_R   0.498775 0.262385 0.499871 0.807058
C24   C     C_R   0.077290 0.423777 0.451803 0.077962
C25   C     C_3   0.073728 0.284727 0.450166 0.254333
C26   C     C_3   0.915772 0.287217 0.445162 -0.540564
C27   C     C_R   0.518858 0.499947 0.349808 0.833310
C28   C     C_R   0.470857 0.473906 0.733647 -0.030840
C29   C     C_R   0.576416 0.408546 0.767148 -0.251769
C30   C     C_R   0.569360 0.388786 0.847012 -0.092410
C31   C     C_R   0.459300 0.438313 0.894410 0.196246
C32   C     C_R   0.349502 0.497088 0.860653 -0.197039
Cu1   Cu    Cu3+1 0.359330 0.500020 0.500000 1.007924
Cu2   Cu    Cu3+1 0.640670 0.499980 0.500000 0.938847
H1    H     H_    0.353712 0.107581 0.333883 0.190712
H2    H     H_    0.255070 0.871326 0.422119 0.138655
H3    H     H_    0.858039 0.647889 0.576529 0.176715
H4    H     H_    0.270960 0.562186 0.755010 0.146372
N1    N     N_R   0.852130 0.499070 0.499500 -0.192785
N2    N     N_R   0.148040 0.499110 0.499500 -0.205807
O1    O     O_R   0.381190 0.680360 0.500000 -0.539967
O2    O     O_R   0.618770 0.680320 0.499990 -0.564740
O3    O     O_R   0.367430 0.500040 0.613600 -0.563239
O4    O     O_R   0.605020 0.500000 0.613590 -0.585755
O5    O     O_R   0.381230 0.319680 0.500010 -0.542629
O6    O     O_R   0.618810 0.319640 0.500000 -0.596525
O7    O     O_R   0.394980 0.500000 0.386410 -0.546476
O8    O     O_R   0.632570 0.499960 0.386400 -0.589800
H5    H     H_    0.664133 0.372284 0.731535 0.148825
O9    O     O_3   0.792342 0.396152 0.109663 -0.600141
C33   C     C_3   0.794335 0.265496 0.115873 0.064976
H6    H     H_    0.699837 0.222193 0.091758 0.139750
H7    H     H_    0.798576 0.236111 0.177774 0.126286
C34   C     C_3   0.925145 0.220233 0.069065 -0.302497
H8    H     H_    0.921684 0.248824 0.007097 0.233772
H9    H     H_    0.020103 0.263947 0.091918 0.209734
C35   C     C_3   0.935604 0.079240 0.073649 -0.956080
H10   H     H_    0.943683 0.048910 0.134879 0.255899
H11   H     H_    0.030618 0.049658 0.038229 0.260055
H12   H     H_    0.842155 0.033745 0.050516 0.259711
O10   O     O_3   0.618520 0.876062 0.623595 -0.621653
C36   C     C_3   0.510244 0.836437 0.679569 0.045445
H13   H     H_    0.548484 0.754201 0.710162 0.168124
H14   H     H_    0.412120 0.805313 0.653450 0.137073
C37   C     C_3   0.478336 0.938345 0.739618 -0.363536
H15   H     H_    0.577611 0.972133 0.762747 0.224521
H16   H     H_    0.429428 0.017795 0.711480 0.209185
C38   C     C_3   0.378370 0.890278 0.806994 -0.923241
H17   H     H_    0.276411 0.860582 0.785430 0.248379
H18   H     H_    0.359475 0.965433 0.850081 0.258543
H19   H     H_    0.424149 0.810461 0.836419 0.259028
H20   H     H_    0.602734 0.118719 0.608168 0.143862
H21   H     H_    0.241238 0.086477 0.427251 0.219016
O11   O     O_3   0.362820 0.875337 0.310929 -0.581249
C39   C     C_3   0.503374 0.876917 0.278796 0.140309
H22   H     H_    0.557482 0.795546 0.301646 0.151535
H23   H     H_    0.561242 0.964275 0.292179 0.123416
C40   C     C_3   0.503930 0.869736 0.190338 -0.323358
H24   H     H_    0.431302 0.794388 0.173735 0.249665
H25   H     H_    0.466867 0.958821 0.167292 0.199876
C41   C     C_3   0.650280 0.845365 0.153574 -0.980243
H26   H     H_    0.726368 0.916825 0.171950 0.260532
H27   H     H_    0.648722 0.848966 0.089358 0.256229
H28   H     H_    0.683714 0.751890 0.171150 0.271656
O12   O     O_3   0.146890 0.666939 0.587726 -0.581938
C42   C     C_3   0.071064 0.715916 0.653788 -0.011215
H29   H     H_    0.145105 0.726468 0.699976 0.154693
H30   H     H_    0.985916 0.652375 0.679450 0.121874
C43   C     C_3   0.019164 0.845735 0.635365 -0.336448
H31   H     H_    0.111010 0.908852 0.620113 0.216215
H32   H     H_    0.954674 0.842736 0.584459 0.229655
C44   C     C_3   0.932236 0.898418 0.704817 -0.872064
H33   H     H_    0.841418 0.835225 0.721950 0.277185
H34   H     H_    0.891893 0.990202 0.688914 0.257614
H35   H     H_    0.997638 0.910447 0.754983 0.243161
H36   H     H_    0.127874 0.252648 0.394949 0.092354
O13   O     O_3   0.311014 0.598222 0.258878 -0.579499
C45   C     C_3   0.180637 0.565858 0.229522 0.084006
H37   H     H_    0.107230 0.536623 0.279778 0.153855
H38   H     H_    0.184246 0.485490 0.188888 0.113878
C46   C     C_3   0.121282 0.680171 0.191452 -0.341832
H39   H     H_    0.105216 0.754279 0.235657 0.247014
H40   H     H_    0.196562 0.716826 0.144147 0.203532
C47   C     C_3   0.982214 0.649452 0.157336 -0.918814
H41   H     H_    0.996531 0.576730 0.112197 0.281506
H42   H     H_    0.943206 0.734051 0.129740 0.253854
H43   H     H_    0.903208 0.616527 0.203946 0.270758
O14   O     O_3   0.124092 0.224562 0.516596 -0.586451
C48   C     C_3   0.047475 0.244009 0.589025 0.110772
H44   H     H_    0.959993 0.174116 0.596822 0.131369
H45   H     H_    0.004352 0.338434 0.594350 0.134868
C49   C     C_3   0.144552 0.224814 0.654450 -0.319106
H46   H     H_    0.178954 0.126965 0.654405 0.209090
H47   H     H_    0.239275 0.286020 0.644391 0.245162
C50   C     C_3   0.072067 0.254350 0.733930 -0.937610
H48   H     H_    0.042081 0.353407 0.736077 0.254352
H49   H     H_    0.144917 0.237591 0.779920 0.266969
H50   H     H_    0.976772 0.194183 0.745834 0.252380
H51   H     H_    0.882938 0.258675 0.387205 0.157826
H52   H     H_    0.852512 0.242584 0.494465 0.217661
H53   H     H_    0.737880 0.416199 0.260376 0.177800
O15   O     O_3   0.704440 0.487214 0.974209 -0.595472
C51   C     C_3   0.754770 0.611547 0.977431 0.098534
H54   H     H_    0.870750 0.610342 0.966858 0.168385
H55   H     H_    0.733178 0.654519 0.035528 0.140315
C52   C     C_3   0.695745 0.690264 0.913557 -0.377559
H56   H     H_    0.710270 0.641742 0.856847 0.238183
H57   H     H_    0.581665 0.702464 0.927624 0.212288
C53   C     C_3   0.768923 0.817761 0.905617 -0.938663
H58   H     H_    0.756244 0.868857 0.961250 0.254995
H59   H     H_    0.721976 0.872717 0.859958 0.264602
H60   H     H_    0.882443 0.807833 0.888719 0.256800
H61   H     H_    0.262686 0.533902 0.896710 0.130829
H62   H     H_    0.366943 0.576167 0.104471 0.152281
H63   H     H_    0.360464 0.421191 0.012404 0.121622
H64   H     H_    0.651348 0.337328 0.871721 0.168428

loop_
_geom_bond_atom_site_label_1
_geom_bond_atom_site_label_2
_ccdc_geom_bond_type
C27   O8    A    
C10   C27   S    
C24   C25   S    
C52   H56   S    
C23   O5    A    
Cu1   O5    S    
Cu2   O2    S    
C49   H47   S    
O13   C45   S    
C51   H54   S    
C29   H5    S    
O12   C42   S    
C15   H20   S    
C11   C19   S    
C36   H13   S    
C12   C28   S    
C21   C22   A    
C28   C29   A    
C26   H52   S    
C12   O3    A    
C3    C7    A    
C19   H2    S    
C48   H45   S    
C30   C31   A    
C40   H25   S    
C51   H55   S    
C50   H48   S    
C5    H53   S    
O14   C48   S    
C2    C32   A    
C18   C19   S    
C22   O12   S    
C49   H46   S    
C36   H14   S    
C20   C24   A    
C16   C17   A    
C37   H16   S    
Cu2   O6    S    
C43   H32   S    
C18   H1    S    
C53   H60   S    
C50   H50   S    
C46   H40   S    
C23   O6    A    
C4    O13   S    
C8    H63   S    
C32   H61   S    
C47   H42   S    
C47   H41   S    
C41   H27   S    
C9    O15   S    
C34   H9    S    
Cu1   N2    S    
O11   C39   S    
C33   H6    S    
Cu1   O3    S    
C46   H39   S    
Cu2   O4    S    
C26   H51   S    
C48   C49   S    
C20   N1    A    
C40   H24   S    
C38   H17   S    
C51   C52   S    
C52   C53   S    
O9    C33   S    
C25   C26   S    
C14   O10   S    
C44   H35   S    
C41   H26   S    
Cu2   N1    S    
C33   H7    S    
C39   H22   S    
C29   C30   A    
C2    H4    S    
C31   C32   A    
C21   N1    A    
C37   C38   S    
C22   N2    A    
C44   H34   S    
C17   C18   S    
C8    C9    D    
C6    O9    S    
C43   C44   S    
C39   H23   S    
C1    O1    A    
C45   H37   S    
C18   H21   S    
C45   H38   S    
Cu1   O7    S    
C1    C13   S    
C4    C10   A    
C3    C4    A    
C41   H28   S    
C53   H58   S    
C27   O7    A    
C7    C9    S    
C50   H49   S    
C34   H8    S    
C11   C17   A    
C52   H57   S    
C36   C37   S    
C42   H29   S    
C8    C31   S    
C19   O11   S    
C35   H12   S    
C42   C43   S    
C6    C7    A    
C16   C23   S    
C45   C46   S    
Cu2   O8    S    
C30   H64   S    
C3    H62   S    
Cu1   O1    S    
C33   C34   S    
C43   H31   S    
C5    C10   A    
C12   O4    A    
C48   H44   S    
C11   C13   A    
C40   C41   S    
C35   H10   S    
C5    C6    A    
C20   C26   S    
C38   H19   S    
C44   H33   S    
C24   N2    A    
Cu1   Cu2   S    
C42   H30   S    
C47   H43   S    
O10   C36   S    
C39   C40   S    
C35   H11   S    
C1    O2    A    
C21   H3    S    
C25   H36   S    
C38   H18   S    
C37   H15   S    
C14   C15   A    
C2    C28   A    
C46   C47   S    
O15   C51   S    
C13   C14   A    
C49   C50   S    
C15   C16   A    
C25   O14   S    
C53   H59   S    
C34   C35   S    
