data_mof_unit_50173.cif
_audit_creation_date              2012-12-10T18:13:07-0500
_audit_creation_method            fapswitch 2.2
_symmetry_space_group_name_H-M    P1
_symmetry_Int_Tables_number       1
_space_group_crystal_system       triclinic
_cell_length_a                    18.319238
_cell_length_b                    18.354807
_cell_length_c                    26.152044
_cell_angle_alpha                 89.601553
_cell_angle_beta                  90.586618
_cell_angle_gamma                 90.076837
_cell_volume                      8792.84162577

loop_
_atom_site_label
_atom_site_type_symbol
_atom_type_description
_atom_site_fract_x
_atom_site_fract_y
_atom_site_fract_z
_atom_type_partial_charge
C1    C     C_R   0.859122 0.139662 0.249704 0.917813
C2    C     C_R   0.859726 0.140361 0.749513 0.944772
C3    C     C_R   0.141711 0.139348 0.250428 0.914983
C4    C     C_R   0.139315 0.140813 0.751258 0.996773
C5    C     C_R   0.360158 0.640416 0.749215 0.994572
C6    C     C_R   0.358695 0.639455 0.248633 0.919222
C7    C     C_R   0.640168 0.639838 0.750021 1.024059
C8    C     C_R   0.641436 0.638553 0.249307 0.968468
C9    C     C_R   0.822979 0.272648 0.744339 0.274744
C10   C     C_R   0.818415 0.267167 0.261074 0.297158
C11   C     C_R   0.189927 0.256046 0.787969 0.283391
C12   C     C_R   0.198180 0.254336 0.284297 0.306664
C13   C     C_R   0.318033 0.768679 0.236814 0.282480
C14   C     C_R   0.302539 0.748841 0.705677 0.265495
C15   C     C_R   0.677445 0.767211 0.251838 0.289336
C16   C     C_R   0.693655 0.750351 0.707959 0.174111
C17   C     C_R   0.803254 0.197367 0.748306 -0.330604
C18   C     C_R   0.800935 0.194676 0.249120 -0.324377
C19   C     C_R   0.195540 0.197040 0.753291 -0.307200
C20   C     C_R   0.203958 0.191309 0.253275 -0.335074
C21   C     C_R   0.300105 0.694491 0.245562 -0.321561
C22   C     C_R   0.304681 0.697519 0.747108 -0.321545
C23   C     C_R   0.698294 0.693704 0.250454 -0.328551
C24   C     C_R   0.695058 0.697401 0.748181 -0.330174
C25   C     C_R   0.728491 0.177856 0.753104 0.416590
C26   C     C_R   0.726843 0.177031 0.238624 0.339988
C27   C     C_R   0.257112 0.190131 0.721801 0.345397
C28   C     C_R   0.271153 0.180293 0.226620 0.394873
C29   C     C_R   0.225666 0.675228 0.251965 0.433179
C30   C     C_R   0.252963 0.701063 0.786743 0.325030
C31   C     C_R   0.773504 0.675617 0.248659 0.307807
C32   C     C_R   0.750428 0.698954 0.786099 0.412427
C33   C     C_R   0.173502 0.730736 0.252397 -0.274504
C34   C     C_R   0.202370 0.756900 0.786654 -0.283596
C35   C     C_R   0.824558 0.731633 0.251950 -0.250244
C36   C     C_R   0.800909 0.755188 0.785777 -0.246439
C37   C     C_R   0.676056 0.232467 0.752579 -0.279763
C38   C     C_R   0.675620 0.232844 0.236652 -0.282522
C39   C     C_R   0.310086 0.244277 0.722364 -0.284241
C40   C     C_R   0.321552 0.236918 0.225918 -0.257615
C41   C     C_R   0.195471 0.803784 0.253354 -0.239039
C42   C     C_R   0.199314 0.807706 0.747243 -0.212961
C43   C     C_R   0.802901 0.803967 0.245470 -0.252071
C44   C     C_R   0.801574 0.806714 0.746644 -0.226274
C45   C     C_R   0.696557 0.305396 0.752823 -0.246435
C46   C     C_R   0.693433 0.301661 0.255210 -0.240744
C47   C     C_R   0.301135 0.306532 0.751674 -0.216916
C48   C     C_R   0.314952 0.295740 0.258815 -0.266723
C49   C     C_R   0.065144 0.010694 0.026226 0.275806
C50   C     C_R   0.065946 0.992302 0.974598 0.299849
C51   C     C_R   0.933335 0.992285 0.025057 0.277751
C52   C     C_R   0.933943 0.010753 0.973127 0.290693
C53   C     C_R   0.565327 0.494455 0.526027 0.300586
C54   C     C_R   0.559786 0.476162 0.474517 0.249168
C55   C     C_R   0.433665 0.518935 0.524363 0.208762
C56   C     C_R   0.440349 0.533862 0.471880 0.313718
C57   C     C_R   0.000182 0.001019 0.946234 -0.360680
C58   C     C_R   0.999203 0.000856 0.053393 -0.357624
C59   C     C_R   0.500124 0.503343 0.445968 -0.340819
C60   C     C_R   0.499214 0.505265 0.553132 -0.364348
C61   C     C_R   0.140403 0.860572 0.251228 0.935337
C62   C     C_R   0.140552 0.860671 0.749693 0.925471
C63   C     C_R   0.859264 0.860185 0.249244 0.880447
C64   C     C_R   0.859408 0.860904 0.749146 0.900733
C65   C     C_R   0.640015 0.360428 0.750669 0.927243
C66   C     C_R   0.639047 0.359134 0.251728 0.882723
C67   C     C_R   0.359349 0.360529 0.750323 0.917299
C68   C     C_R   0.363448 0.357677 0.252846 0.884897
C69   C     C_R   0.999656 0.000148 0.109727 0.943520
C70   C     C_R   0.000226 0.000228 0.890150 0.973402
C71   C     C_R   0.499612 0.501555 0.609623 0.947881
C72   C     C_R   0.500192 0.500578 0.390039 0.965514
C73   C     C_R   0.001111 0.000188 0.389938 0.833203
C74   C     C_R   0.999145 0.000411 0.610108 0.914170
C75   C     C_R   0.501233 0.500182 0.889848 0.879863
C76   C     C_R   0.499389 0.500525 0.110016 0.854831
C77   C     C_R   0.001203 0.065624 0.473822 -0.063356
C78   C     C_R   0.996361 0.065424 0.525775 -0.052683
C79   C     C_R   0.505306 0.565838 0.973298 -0.054439
C80   C     C_R   0.500897 0.565942 0.025272 -0.063161
C81   C     C_R   0.003358 0.000922 0.445661 -0.024654
C82   C     C_R   0.999071 0.000953 0.554479 -0.026932
C83   C     C_R   0.503236 0.500939 0.945406 -0.026670
C84   C     C_R   0.499248 0.501392 0.054211 -0.018801
C85   C     C_R   0.005434 0.934945 0.473593 -0.137794
C86   C     C_R   0.004171 0.934996 0.527291 -0.113726
C87   C     C_R   0.500723 0.435029 0.973370 -0.143816
C88   C     C_R   0.499495 0.435247 0.027034 -0.150638
C89   C     C_3   0.985176 0.146358 0.529723 0.389719
C90   C     C_3   0.998243 0.147404 0.469483 0.438339
C91   C     C_3   0.498042 0.647582 0.028767 0.462773
C92   C     C_3   0.509387 0.647826 0.968473 0.423920
C93   C     C_R   0.269825 0.820718 0.254516 0.367986
C94   C     C_R   0.248549 0.805075 0.705858 0.270128
C95   C     C_R   0.727799 0.819871 0.236736 0.345440
C96   C     C_R   0.750176 0.803921 0.705819 0.242069
C97   C     C_R   0.770196 0.325272 0.755018 0.278214
C98   C     C_R   0.763770 0.314353 0.275297 0.363891
C99   C     C_R   0.239400 0.315175 0.783072 0.343619
C100  C     C_R   0.259907 0.295166 0.295188 0.348811
H1    H     H_    0.007863 0.883134 0.454129 0.190127
H2    H     H_    0.006632 0.883205 0.547323 0.191283
H3    H     H_    0.499476 0.383119 0.953945 0.189092
H4    H     H_    0.498224 0.383425 0.047057 0.188108
O1    O     O_3   1.000000 0.000010 0.249960 -0.570158
O2    O     O_3   1.000000 0.000010 0.750040 -0.577566
O3    O     O_3   0.500000 0.500010 0.749960 -0.572618
O4    O     O_3   0.500000 0.500010 0.250040 -0.571465
O5    O     O_R   0.914520 0.146190 0.280300 -0.574581
O6    O     O_R   0.914520 0.146190 0.719700 -0.549867
O7    O     O_R   0.085480 0.146190 0.280300 -0.547018
O8    O     O_R   0.085480 0.146190 0.719700 -0.575237
O9    O     O_R   0.414520 0.646190 0.780300 -0.574709
O10   O     O_R   0.414520 0.646190 0.219700 -0.553783
O11   O     O_R   0.585480 0.646190 0.780300 -0.582138
O12   O     O_R   0.585480 0.646190 0.219700 -0.603580
O13   O     O_R   0.085460 0.853840 0.280340 -0.640745
O14   O     O_R   0.085460 0.853840 0.719660 -0.616064
O15   O     O_R   0.914540 0.853840 0.280340 -0.643694
O16   O     O_R   0.914540 0.853840 0.719660 -0.621837
O17   O     O_R   0.585460 0.353840 0.780340 -0.653043
O18   O     O_R   0.585460 0.353840 0.219660 -0.647517
O19   O     O_R   0.414540 0.353840 0.780340 -0.636642
O20   O     O_R   0.414540 0.353840 0.219660 -0.654089
O21   O     O_R   0.853820 0.914550 0.219610 -0.559936
O22   O     O_R   0.853820 0.914550 0.780390 -0.613039
O23   O     O_R   0.146180 0.914550 0.219610 -0.607860
O24   O     O_R   0.146180 0.914550 0.780390 -0.612392
O25   O     O_R   0.353820 0.414550 0.719610 -0.580731
O26   O     O_R   0.353820 0.414550 0.280390 -0.572891
O27   O     O_R   0.646180 0.414550 0.719610 -0.586345
O28   O     O_R   0.646180 0.414550 0.280390 -0.582516
O29   O     O_R   0.146170 0.085440 0.219600 -0.618721
O30   O     O_R   0.146170 0.085440 0.780400 -0.579578
O31   O     O_R   0.853830 0.085440 0.219600 -0.570981
O32   O     O_R   0.853830 0.085440 0.780400 -0.595874
O33   O     O_R   0.646170 0.585440 0.719600 -0.591114
O34   O     O_R   0.646170 0.585440 0.280400 -0.595783
O35   O     O_R   0.353830 0.585440 0.719600 -0.574936
O36   O     O_R   0.353830 0.585440 0.280400 -0.582227
O37   O     O_R   0.939270 0.999980 0.134160 -0.567628
O38   O     O_R   0.939270 0.999980 0.865840 -0.594483
O39   O     O_R   0.060730 0.999980 0.134160 -0.627130
O40   O     O_R   0.060730 0.999980 0.865840 -0.576106
O41   O     O_R   0.439270 0.499980 0.634160 -0.570727
O42   O     O_R   0.439270 0.499980 0.365840 -0.574000
O43   O     O_R   0.560730 0.499980 0.634160 -0.582748
O44   O     O_R   0.560730 0.499980 0.365840 -0.623267
O45   O     O_R   1.000000 0.060760 0.365760 -0.582317
O46   O     O_R   1.000000 0.060760 0.634240 -0.567926
O47   O     O_R   0.500000 0.560760 0.865760 -0.548232
O48   O     O_R   0.500000 0.560760 0.134240 -0.556867
O49   O     O_R   1.000000 0.939310 0.365770 -0.645692
O50   O     O_R   1.000000 0.939310 0.634230 -0.629177
O51   O     O_R   0.500000 0.439310 0.865770 -0.646848
O52   O     O_R   0.500000 0.439310 0.134230 -0.655023
Zn1   Zn    Zn3+2 1.000000 0.913260 0.293350 1.024811
Zn2   Zn    Zn3+2 1.000000 0.913260 0.706650 1.083622
Zn3   Zn    Zn3+2 0.500000 0.413260 0.793350 1.047813
Zn4   Zn    Zn3+2 0.500000 0.413260 0.206650 1.011357
Zn5   Zn    Zn3+2 0.913230 1.000000 0.206580 1.147429
Zn6   Zn    Zn3+2 0.913230 0.000000 0.793420 1.108998
Zn7   Zn    Zn3+2 0.086770 1.000000 0.206580 1.068892
Zn8   Zn    Zn3+2 0.086770 0.000000 0.793420 1.135038
Zn9   Zn    Zn3+2 0.413230 0.500000 0.706580 1.164635
Zn10  Zn    Zn3+2 0.413230 0.500000 0.293420 1.141074
Zn11  Zn    Zn3+2 0.586770 0.500000 0.706580 1.140753
Zn12  Zn    Zn3+2 0.586770 0.500000 0.293420 1.117463
Zn13  Zn    Zn3+2 1.000000 0.086780 0.293330 1.144921
Zn14  Zn    Zn3+2 1.000000 0.086780 0.706670 1.212860
Zn15  Zn    Zn3+2 0.500000 0.586780 0.793330 1.185152
Zn16  Zn    Zn3+2 0.500000 0.586780 0.206670 1.162003
S1    S     S_3+6 0.893208 0.164026 0.552074 0.133179
O53   O     O_2   0.884705 0.137329 0.606055 -0.234848
O54   O     O_2   0.878885 0.244633 0.550959 -0.198143
O55   O     O_3   0.830242 0.120798 0.516302 -0.464585
H5    H     H_    0.782711 0.139609 0.528139 0.412795
S2    S     S_3+6 0.924753 0.179596 0.427955 0.147984
O56   O     O_2   0.888032 0.245095 0.450045 -0.197817
O57   O     O_2   0.955313 0.201703 0.377157 -0.151815
O58   O     O_3   0.862799 0.113352 0.417865 -0.519742
H6    H     H_    0.829620 0.132996 0.390995 0.384865
S3    S     S_3+6 0.052272 0.191199 0.570648 0.154813
O59   O     O_2   0.022679 0.202786 0.623205 -0.177438
O60   O     O_2   0.119521 0.145058 0.576095 -0.185366
O61   O     O_3   0.075162 0.273484 0.547323 -0.439913
H7    H     H_    0.028821 0.301216 0.546046 0.386284
S4    S     S_3+6 0.085533 0.182142 0.447199 0.148534
O62   O     O_2   0.082669 0.263909 0.446063 -0.145289
O63   O     O_2   0.148340 0.158147 0.480531 -0.225403
O64   O     O_3   0.103125 0.153565 0.387755 -0.462229
H8    H     H_    0.134224 0.109790 0.392052 0.348011
S5    S     S_3+6 0.409273 0.674937 0.052101 0.154877
O65   O     O_2   0.398687 0.647734 0.105672 -0.213411
O66   O     O_2   0.405175 0.756725 0.052125 -0.164312
O67   O     O_3   0.340417 0.640632 0.016814 -0.480694
H9    H     H_    0.296119 0.665813 0.028946 0.416839
S6    S     S_3+6 0.437745 0.686445 0.928044 0.154497
O68   O     O_2   0.378322 0.631098 0.920763 -0.170832
O69   O     O_2   0.406050 0.754134 0.950820 -0.207625
O70   O     O_3   0.469511 0.709273 0.869964 -0.461049
H10   H     H_    0.488487 0.759575 0.873434 0.383409
S7    S     S_3+6 0.570330 0.684566 0.068857 0.135393
O71   O     O_2   0.632855 0.632006 0.073973 -0.278771
O72   O     O_2   0.597159 0.756116 0.048187 -0.180560
O73   O     O_3   0.537999 0.700060 0.127355 -0.420106
H11   H     H_    0.575533 0.730346 0.144254 0.413820
S8    S     S_3+6 0.598109 0.674898 0.944697 0.105762
O74   O     O_2   0.603736 0.656513 0.889206 -0.232744
O75   O     O_2   0.607316 0.755965 0.949418 -0.212103
O76   O     O_3   0.666008 0.631181 0.975827 -0.492502
H12   H     H_    0.705478 0.667683 0.979837 0.428769
S9    S     S_3+6 0.305225 0.892093 0.292713 0.101022
O77   O     O_2   0.247913 0.948010 0.304156 -0.294197
O78   O     O_2   0.331804 0.859164 0.342265 -0.261527
O79   O     O_3   0.376438 0.932131 0.263717 -0.419232
H13   H     H_    0.393879 0.969604 0.288039 0.402690
S10   S     S_3+6 0.239100 0.869888 0.654201 0.148401
O80   O     O_2   0.201609 0.832699 0.610168 -0.184820
O81   O     O_2   0.193866 0.934697 0.668471 -0.276914
O82   O     O_3   0.320058 0.901863 0.634395 -0.392497
H14   H     H_    0.338951 0.931240 0.663279 0.399355
S11   S     S_3+6 0.693991 0.880026 0.187913 0.153520
O83   O     O_2   0.750401 0.925524 0.161813 -0.150615
O84   O     O_2   0.658444 0.833815 0.147587 -0.286178
O85   O     O_3   0.629781 0.934608 0.212167 -0.386094
H15   H     H_    0.597745 0.947839 0.182809 0.417540
S12   S     S_3+6 0.760116 0.862705 0.650860 0.113942
O86   O     O_2   0.689655 0.900960 0.638595 -0.119685
O87   O     O_2   0.817803 0.920210 0.657412 -0.320946
O88   O     O_3   0.783148 0.811377 0.600553 -0.446110
H16   H     H_    0.830060 0.788361 0.610635 0.354083
S13   S     S_3+6 0.794591 0.408558 0.784973 0.145878
O89   O     O_2   0.870732 0.405508 0.806905 -0.168201
O90   O     O_2   0.789080 0.470260 0.747063 -0.160126
O91   O     O_3   0.736319 0.423522 0.832951 -0.548734
H17   H     H_    0.742981 0.381558 0.856550 0.354392
S14   S     S_3+6 0.777269 0.360949 0.333895 0.150638
O92   O     O_2   0.765395 0.441310 0.327464 -0.182438
O93   O     O_2   0.723296 0.330172 0.370974 -0.242442
O94   O     O_3   0.861109 0.347792 0.358724 -0.429625
H18   H     H_    0.861921 0.375911 0.390916 0.419317
S15   S     S_3+6 0.225393 0.400510 0.814021 0.127847
O95   O     O_2   0.274838 0.404161 0.860177 -0.243196
O96   O     O_2   0.244460 0.461582 0.778075 -0.278302
O97   O     O_3   0.138471 0.413204 0.831844 -0.427310
H19   H     H_    0.141052 0.448779 0.860107 0.421941
S16   S     S_3+6 0.270336 0.336067 0.356314 0.138186
O98   O     O_2   0.349165 0.332906 0.372781 -0.299865
O99   O     O_2   0.245988 0.414164 0.354658 -0.142240
O100  O     O_3   0.219924 0.290199 0.399081 -0.438450
H20   H     H_    0.230978 0.313532 0.432318 0.416757
S17   S     S_3+6 0.905373 0.302190 0.714899 0.149699
O101  O     O_2   0.970232 0.276375 0.745446 -0.237704
O102  O     O_2   0.907227 0.269593 0.662539 -0.181145
O103  O     O_3   0.910625 0.393076 0.707398 -0.440288
H21   H     H_    0.958085 0.401807 0.690591 0.400008
S18   S     S_3+6 0.902956 0.305679 0.246092 0.135695
O104  O     O_2   0.951260 0.295523 0.291837 -0.137951
O105  O     O_2   0.934775 0.268231 0.200507 -0.276898
O106  O     O_3   0.893557 0.395217 0.233543 -0.449369
H22   H     H_    0.944033 0.414594 0.232866 0.410539
S19   S     S_3+6 0.129174 0.250856 0.841166 0.113284
O107  O     O_2   0.059238 0.289493 0.828031 -0.190137
O108  O     O_2   0.111703 0.173494 0.855593 -0.294473
O109  O     O_3   0.167873 0.290304 0.892615 -0.454766
H23   H     H_    0.128874 0.291622 0.918550 0.405708
S20   S     S_3+6 0.116403 0.303355 0.287285 0.144514
O110  O     O_2   0.071943 0.285426 0.240546 -0.257902
O111  O     O_2   0.077356 0.282382 0.335286 -0.096344
O112  O     O_3   0.132051 0.393638 0.287355 -0.491213
H24   H     H_    0.082995 0.416209 0.288176 0.413295
S21   S     S_3+6 0.352133 0.793157 0.176211 0.156311
O113  O     O_2   0.430209 0.771138 0.171063 -0.137390
O114  O     O_2   0.306226 0.755298 0.136547 -0.237941
O115  O     O_3   0.345765 0.883479 0.166154 -0.478678
H25   H     H_    0.360441 0.890984 0.130149 0.417263
S22   S     S_3+6 0.368574 0.745091 0.655330 0.132873
O116  O     O_2   0.421647 0.806529 0.662895 -0.223336
O117  O     O_2   0.411161 0.675371 0.654349 -0.274843
O118  O     O_3   0.327408 0.754402 0.597919 -0.400609
H26   H     H_    0.367758 0.759764 0.573241 0.421756
S23   S     S_3+6 0.591784 0.795240 0.276302 0.106972
O119  O     O_2   0.539756 0.809347 0.232754 -0.206977
O120  O     O_2   0.560246 0.738079 0.311144 -0.302065
O121  O     O_3   0.603486 0.872545 0.309573 -0.457669
H27   H     H_    0.553458 0.889602 0.317047 0.411647
S24   S     S_3+6 0.618411 0.754027 0.663382 0.144834
O122  O     O_2   0.645795 0.754742 0.609467 -0.111238
O123  O     O_2   0.565862 0.691620 0.668405 -0.293605
O124  O     O_3   0.572179 0.831471 0.673662 -0.404632
H28   H     H_    0.560570 0.830299 0.710575 0.356821
S25   S     S_3+6 0.696786 0.086478 0.756383 0.093483
O125  O     O_2   0.708735 0.058074 0.809876 -0.236014
O126  O     O_2   0.616696 0.082564 0.743536 -0.245298
O127  O     O_3   0.742556 0.034271 0.715156 -0.494259
H29   H     H_    0.732317 0.983739 0.726489 0.399203
S26   S     S_3+6 0.694636 0.088469 0.226069 0.112355
O128  O     O_2   0.730529 0.034272 0.261568 -0.225183
O129  O     O_2   0.613355 0.084783 0.233253 -0.250718
O130  O     O_3   0.714056 0.068498 0.165124 -0.424084
H30   H     H_    0.686032 0.104280 0.144325 0.364068
S27   S     S_3+6 0.273584 0.110214 0.686027 0.102713
O131  O     O_2   0.207608 0.092015 0.654103 -0.184111
O132  O     O_2   0.338086 0.119880 0.651537 -0.230237
O133  O     O_3   0.289926 0.040823 0.726827 -0.525451
H31   H     H_    0.333333 0.056153 0.746945 0.365836
S28   S     S_3+6 0.295909 0.104303 0.188661 0.109587
O134  O     O_2   0.263996 0.115506 0.136163 -0.236977
O135  O     O_2   0.377600 0.100986 0.184096 -0.229307
O136  O     O_3   0.268071 0.024359 0.213051 -0.438169
H32   H     H_    0.258331 0.993213 0.182994 0.422461
S29   S     S_3+6 0.194840 0.583663 0.254429 0.106725
O137  O     O_2   0.205883 0.554993 0.307900 -0.180374
O138  O     O_2   0.115057 0.579451 0.240697 -0.249055
O139  O     O_3   0.242298 0.532352 0.213372 -0.549178
H33   H     H_    0.228772 0.481401 0.221724 0.396327
S30   S     S_3+6 0.242358 0.634142 0.835470 0.128593
O140  O     O_2   0.302118 0.578222 0.836665 -0.236258
O141  O     O_2   0.239883 0.671934 0.886205 -0.165243
O142  O     O_3   0.161805 0.591988 0.826253 -0.480095
H34   H     H_    0.159111 0.582323 0.789069 0.374806
S31   S     S_3+6 0.809060 0.586219 0.242865 0.119191
O143  O     O_2   0.753084 0.531607 0.225490 -0.257104
O144  O     O_2   0.869774 0.588015 0.204656 -0.203487
O145  O     O_3   0.844744 0.560759 0.299675 -0.435641
H35   H     H_    0.811199 0.580806 0.325491 0.369164
S32   S     S_3+6 0.763541 0.630553 0.833636 0.124014
O146  O     O_2   0.833995 0.591938 0.823042 -0.181955
O147  O     O_2   0.770203 0.667107 0.884730 -0.247479
O148  O     O_3   0.695896 0.568704 0.835584 -0.517932
H36   H     H_    0.697371 0.548702 0.870861 0.414244
H37   H     H_    0.115909 0.717353 0.253144 0.219716
H38   H     H_    0.162494 0.759272 0.817012 0.200155
H39   H     H_    0.882097 0.718527 0.255590 0.219479
H40   H     H_    0.842617 0.757160 0.815509 0.197826
H41   H     H_    0.618592 0.218450 0.752898 0.218750
H42   H     H_    0.620449 0.221613 0.223603 0.227251
H43   H     H_    0.358776 0.238422 0.699569 0.200418
H44   H     H_    0.367199 0.234448 0.199997 0.239247
S33   S     S_3+6 0.140633 0.060116 0.051614 0.165317
O149  O     O_2   0.187189 0.009948 0.083831 -0.212071
O150  O     O_2   0.186488 0.091521 0.009539 -0.149136
O151  O     O_3   0.108985 0.129708 0.086758 -0.518186
H45   H     H_    0.127678 0.121658 0.121919 0.393715
S34   S     S_3+6 0.145857 0.950252 0.949742 0.138589
O152  O     O_2   0.189163 0.005075 0.919643 -0.191313
O153  O     O_2   0.192691 0.920662 0.992582 -0.188968
O154  O     O_3   0.121708 0.880700 0.911497 -0.555694
H46   H     H_    0.167840 0.864320 0.895851 0.392326
S35   S     S_3+6 0.853757 0.949989 0.050458 0.156687
O155  O     O_2   0.809923 0.005328 0.078968 -0.151060
O156  O     O_2   0.807532 0.918869 0.008080 -0.196649
O157  O     O_3   0.878221 0.881661 0.090336 -0.543702
H47   H     H_    0.833919 0.851128 0.093905 0.408192
S36   S     S_3+6 0.856443 0.056809 0.946287 0.140556
O158  O     O_2   0.809702 0.003780 0.917016 -0.183421
O159  O     O_2   0.811748 0.090539 0.987749 -0.207518
O160  O     O_3   0.884382 0.123643 0.906633 -0.533808
H48   H     H_    0.839463 0.140763 0.888913 0.386859
S37   S     S_3+6 0.654211 0.513860 0.551655 0.148073
O161  O     O_2   0.680093 0.450826 0.584074 -0.222735
O162  O     O_2   0.707930 0.526927 0.509528 -0.193400
O163  O     O_3   0.651016 0.589676 0.587383 -0.467972
H49   H     H_    0.698968 0.591902 0.605164 0.392992
S38   S     S_3+6 0.621155 0.411606 0.448960 0.162182
O164  O     O_2   0.678717 0.451552 0.419304 -0.176851
O165  O     O_2   0.657467 0.367986 0.490852 -0.155752
O166  O     O_3   0.574790 0.353647 0.410814 -0.519760
H50   H     H_    0.589265 0.365482 0.375375 0.370564
S39   S     S_3+6 0.343801 0.509761 0.550075 0.158747
O167  O     O_2   0.328323 0.572938 0.584537 -0.146478
O168  O     O_2   0.286325 0.507586 0.508740 -0.173502
O169  O     O_3   0.337248 0.431616 0.583774 -0.492814
H51   H     H_    0.352500 0.393052 0.559837 0.353758
S40   S     S_3+6 0.382158 0.599534 0.441529 0.142909
O170  O     O_2   0.320925 0.561608 0.413685 -0.175505
O171  O     O_2   0.350841 0.650120 0.480564 -0.193040
O172  O     O_3   0.430496 0.649093 0.399340 -0.540053
H52   H     H_    0.393655 0.677414 0.379627 0.389805

loop_
_geom_bond_atom_site_label_1
_geom_bond_atom_site_label_2
_ccdc_geom_bond_type
C28   S28   S    
O124  H28   S    
C34   C42   A    
C41   C61   S    
C87   C88   A    
S11   O85   S    
C43   C63   S    
S27   O132  D    
O3    Zn15  S    
O130  H30   S    
C44   C64   S    
S7    O72   D    
C1    C18   S    
O1    Zn13  S    
S4    O64   S    
O50   Zn2   S    
C28   C40   A    
O112  H24   S    
C29   C33   A    
S21   O115  S    
C8    O34   A    
C35   H39   S    
S11   O83   D    
O5    Zn13  S    
C9    C97   A    
C66   O18   A    
O145  H35   S    
S28   O136  S    
C13   S21   S    
C5    O9    A    
C14   S22   S    
S1    O54   D    
C46   C98   A    
O40   Zn8   S    
O16   Zn2   S    
C67   O25   A    
O29   Zn7   S    
C73   C81   S    
S12   O86   D    
S16   O99   D    
S9    O78   D    
C78   C89   S    
C48   C100  A    
S37   O163  S    
O3    Zn11  S    
S31   O143  D    
S24   O124  S    
O172  H52   S    
C7    O33   A    
O73   H11   S    
C26   C38   A    
O32   Zn6   S    
C20   C28   A    
O58   H6    S    
C6    C21   S    
C21   C29   A    
S36   O160  S    
O139  H33   S    
C23   C31   A    
S3    O59   D    
C24   C32   A    
C78   C82   A    
S27   O131  D    
O1    Zn1   S    
C12   C20   A    
O133  H31   S    
C13   C21   A    
C32   S32   S    
C63   O21   A    
O43   Zn11  S    
C87   H3    S    
S32   O147  D    
O127  H29   S    
S20   O111  D    
C6    O36   A    
C36   C44   A    
S26   O128  D    
C37   C45   A    
C39   C47   A    
C40   C48   A    
O4    Zn10  S    
S30   O142  S    
C25   S25   S    
C50   C57   A    
C9    S17   S    
C84   C88   A    
O67   H9    S    
C67   O19   A    
C64   O16   A    
C56   C59   A    
C17   C25   A    
C72   O44   A    
C38   H42   S    
O46   Zn14  S    
O19   Zn3   S    
C10   C18   A    
O20   Zn4   S    
C8    O12   A    
C75   O51   A    
S5    O65   D    
O160  H48   S    
S6    O69   D    
C3    O29   A    
O61   H7    S    
S12   O88   S    
S39   O167  D    
C71   O43   A    
O3    Zn9   S    
O154  H46   S    
S35   O155  D    
C37   H41   S    
C8    C23   S    
S2    O56   D    
S35   O157  S    
C85   C86   A    
O82   H14   S    
O45   Zn13  S    
C96   S12   S    
C29   S29   S    
C30   S30   S    
O106  H22   S    
C91   S5    S    
S29   O138  D    
O24   Zn8   S    
O47   Zn15  S    
O163  H49   S    
C74   O50   A    
S4    O63   D    
O94   H18   S    
O35   Zn9   S    
O169  H51   S    
C6    O10   A    
S30   O141  D    
S10   O81   D    
C75   O47   A    
C35   C43   A    
S13   O89   D    
C42   C62   S    
S15   O97   S    
O4    Zn12  S    
O27   Zn11  S    
C34   H38   S    
C2    C17   S    
O49   Zn1   S    
O31   Zn5   S    
C55   S39   S    
C92   S6    S    
C88   H4    S    
C53   C60   A    
S28   O135  D    
C5    O35   A    
C54   C59   A    
S33   O150  D    
C41   C93   A    
C16   C96   A    
C62   O14   A    
C30   C34   A    
O51   Zn3   S    
O52   Zn4   S    
S3    O61   S    
C91   C92   S    
C95   S11   S    
S31   O144  D    
S24   O123  D    
C12   S20   S    
S25   O125  D    
C44   C96   A    
C63   O15   A    
S34   O153  D    
O15   Zn1   S    
S39   O169  S    
S36   O159  D    
O48   Zn16  S    
C68   O26   A    
S38   O166  S    
C71   O41   A    
O142  H34   S    
C65   O17   A    
O4    Zn16  S    
C45   C65   S    
O1    Zn5   S    
C86   H2    S    
S10   O82   S    
C4    O30   A    
O97   H19   S    
C22   C30   A    
C50   S34   S    
S32   O146  D    
S17   O103  S    
S40   O172  S    
C53   C54   A    
C14   C22   A    
S18   O104  D    
C56   S40   S    
C11   C99   A    
S21   O114  D    
C52   S36   S    
S13   O91   S    
C38   C46   A    
C49   S33   S    
O151  H45   S    
O85   H15   S    
C36   H40   S    
S23   O119  D    
S22   O116  D    
C1    O31   A    
C81   C85   A    
C83   C87   A    
C55   C56   A    
C90   S2    S    
C18   C26   A    
C89   S1    S    
C80   C84   A    
C76   C84   S    
S12   O87   D    
O100  H20   S    
O41   Zn9   S    
S9    O77   D    
S28   O134  D    
S37   O162  D    
S14   O94   S    
C11   C19   A    
S34   O154  S    
C46   C66   S    
S25   O127  S    
C15   C95   A    
S1    O55   S    
C76   O48   A    
C69   O37   A    
S15   O95   D    
O12   Zn16  S    
O39   Zn7   S    
S38   O164  D    
C1    O5    A    
O8    Zn14  S    
C3    O7    A    
S8    O74   D    
S22   O118  S    
C43   C95   A    
O1    Zn7   S    
O2    Zn8   S    
C57   C70   S    
C59   C72   S    
C55   C60   A    
S26   O129  D    
C74   C82   S    
S32   O148  S    
S27   O133  S    
S14   O93   D    
O36   Zn10  S    
S7    O73   S    
C77   C90   S    
C93   S9    S    
O11   Zn15  S    
C60   C71   S    
C82   C86   A    
C61   O13   A    
C76   O52   A    
O64   H8    S    
C13   C93   A    
O7    Zn13  S    
S26   O130  S    
O148  H36   S    
C100  S16   S    
O26   Zn10  S    
O76   H12   S    
C77   C81   A    
S11   O84   D    
C3    C20   S    
C51   C58   A    
C48   C68   S    
C31   S31   S    
O6    Zn14  S    
C64   O22   A    
O44   Zn12  S    
C49   C50   A    
C31   C35   A    
C32   C36   A    
O33   Zn11  S    
S16   O98   D    
S9    O79   S    
S14   O92   D    
C2    O6    A    
O23   Zn7   S    
C73   O45   A    
C42   C94   A    
O21   Zn5   S    
O38   Zn6   S    
S2    O57   D    
S35   O156  D    
C58   C69   S    
C98   S14   S    
C69   O39   A    
C70   O40   A    
O25   Zn9   S    
C33   C41   A    
C80   C91   S    
C51   C52   A    
S5    O67   S    
C79   C83   A    
C75   C83   S    
S29   O137  D    
S17   O101  D    
S8    O76   S    
C72   O42   A    
O30   Zn8   S    
O2    Zn6   S    
C99   S15   S    
C12   C100  A    
S2    O58   S    
C52   C57   A    
S20   O110  D    
O2    Zn14  S    
C51   S35   S    
C45   C97   A    
C89   C90   S    
C14   C94   A    
C91   S7    S    
S19   O109  S    
S7    O71   D    
O37   Zn5   S    
S23   O120  D    
O70   H10   S    
C15   S23   S    
C68   O20   A    
S34   O152  D    
C47   C99   A    
O9    Zn15  S    
S1    O53   D    
O91   H17   S    
O10   Zn16  S    
O34   Zn12  S    
S3    O60   D    
O121  H27   S    
C27   S27   S    
C94   S10   S    
C26   S26   S    
C7    O11   A    
C10   C98   A    
C40   H44   S    
C25   C37   A    
C4    C19   S    
C5    C22   S    
C27   C39   A    
S39   O168  D    
C10   S18   S    
S6    O68   D    
C11   S19   S    
C16   S24   S    
C19   C27   A    
S16   O100  S    
C77   C78   A    
C15   C23   A    
O42   Zn10  S    
C16   C24   A    
C33   H37   S    
C47   C67   S    
C65   O27   A    
C66   O28   A    
C70   O38   A    
O13   Zn1   S    
C53   S37   S    
O79   H13   S    
C61   O23   A    
S17   O102  D    
S29   O139  S    
O136  H32   S    
S5    O66   D    
O118  H26   S    
O2    Zn2   S    
C2    O32   A    
C49   C58   A    
S4    O62   D    
S40   O171  D    
S18   O105  D    
S30   O140  D    
C92   S8    S    
S20   O112  S    
C97   S13   S    
O103  H21   S    
S6    O70   S    
C7    C24   S    
C89   S3    S    
O115  H25   S    
S13   O90   D    
C79   C92   S    
C9    C17   A    
O55   H5    S    
O157  H47   S    
S22   O117  D    
S18   O106  S    
C85   H1    S    
S40   O170  D    
C54   S38   S    
O166  H50   S    
S33   O151  S    
O18   Zn4   S    
O28   Zn12  S    
O3    Zn3   S    
O4    Zn4   S    
S37   O161  D    
S31   O145  S    
S24   O122  D    
S19   O107  D    
S25   O126  D    
S19   O108  D    
C62   O24   A    
S10   O80   D    
C90   S4    S    
S36   O158  D    
C4    O8    A    
S38   O165  D    
O14   Zn2   S    
O109  H23   S    
C39   H43   S    
C79   C80   A    
S8    O75   D    
O17   Zn3   S    
C73   O49   A    
O88   H16   S    
S33   O149  D    
C74   O46   A    
S15   O96   D    
O22   Zn6   S    
S23   O121  S    
S21   O113  D    
