data_mof_unit_45742.cif
_audit_creation_date              2012-12-11T15:31:35-0500
_audit_creation_method            fapswitch 2.2
_symmetry_space_group_name_H-M    P1
_symmetry_Int_Tables_number       1
_space_group_crystal_system       triclinic
_cell_length_a                    6.935884
_cell_length_b                    14.759484
_cell_length_c                    21.320226
_cell_angle_alpha                 74.66521
_cell_angle_beta                  90.486089
_cell_angle_gamma                 90.515725
_cell_volume                      2104.72018674

loop_
_atom_site_label
_atom_site_type_symbol
_atom_type_description
_atom_site_fract_x
_atom_site_fract_y
_atom_site_fract_z
_atom_type_partial_charge
O1    O     O_R   0.648150 0.130050 0.214300 -0.541418
O2    O     O_R   0.351850 0.869950 0.785700 -0.542413
O3    O     O_R   0.320490 0.006660 0.340150 -0.550880
O4    O     O_R   0.679510 0.993340 0.659850 -0.551096
O5    O     O_R   0.146100 0.869940 0.285700 -0.533211
O6    O     O_R   0.853900 0.130060 0.714300 -0.531669
C1    C     C_R   0.489373 0.001587 0.367097 0.678616
C2    C     C_R   0.510611 0.999446 0.632741 0.686209
O7    O     O_R   0.318690 0.137980 0.218120 -0.540725
O8    O     O_R   0.681310 0.862020 0.781880 -0.541162
O9    O     O_R   0.144280 0.002190 0.162800 -0.523314
O10   O     O_R   0.855720 0.997810 0.837200 -0.524061
C3    C     C_R   0.488108 0.175666 0.206340 0.692445
C4    C     C_R   0.511893 0.824329 0.793628 0.690692
O11   O     O_R   0.649960 0.997790 0.337200 -0.543159
O12   O     O_R   0.350040 0.002210 0.662800 -0.543168
O13   O     O_3   0.479300 0.955290 0.231990 -0.354297
O14   O     O_3   0.520700 0.044710 0.768010 -0.352636
V1    V     V_3+5 0.206040 0.008290 0.253340 1.464592
V2    V     V_3+5 0.793960 0.991710 0.746660 1.472191
O15   O     O_R   0.814320 0.993320 0.159850 -0.549132
O16   O     O_R   0.185680 0.006680 0.840150 -0.549993
C5    C     C_R   0.982583 0.997623 0.133066 0.741529
C6    C     C_R   0.017421 0.002371 0.866935 0.738860
O17   O     O_R   0.816120 0.862000 0.281880 -0.539815
O18   O     O_R   0.183880 0.138000 0.718120 -0.532878
C7    C     C_R   0.984754 0.824242 0.295005 0.730036
C8    C     C_R   0.015416 0.175620 0.704766 0.727333
V3    V     V_3+5 0.705540 0.991700 0.246660 1.459025
V4    V     V_3+5 0.294460 0.008300 0.753340 1.474345
O19   O     O_3   0.982150 0.044700 0.268010 -0.377663
O20   O     O_3   0.017850 0.955300 0.731990 -0.379752
C9    C     C_R   0.995888 0.722261 0.322182 -0.051016
C10   C     C_R   0.005145 0.277426 0.677507 -0.057886
C11   C     C_R   0.085330 0.569460 0.309529 0.003279
C12   C     C_R   0.918100 0.430357 0.690125 0.011757
C13   C     C_R   0.048854 0.665096 0.282709 -0.174529
C14   C     C_R   0.952553 0.334640 0.716949 -0.164197
C15   C     C_R   0.967197 0.683071 0.388582 -0.255474
C16   C     C_R   0.036617 0.316547 0.611229 -0.127528
C17   C     C_R   0.992858 0.585918 0.417081 0.061992
C18   C     C_R   0.012455 0.413738 0.582727 0.105423
C19   C     C_R   0.073761 0.531613 0.378123 0.124634
C20   C     C_R   0.930972 0.468067 0.621574 0.064523
C21   C     C_R   0.957912 0.543533 0.484578 -0.035641
C22   C     C_R   0.048459 0.456184 0.515295 0.063137
C23   C     C_R   0.170400 0.414862 0.477079 -0.043251
C24   C     C_R   0.833980 0.584334 0.522411 -0.039514
C25   C     C_R   0.163766 0.446849 0.409298 -0.239666
C26   C     C_R   0.840142 0.552407 0.590320 -0.117873
H1    H     H_    0.252489 0.411640 0.381606 0.154263
H2    H     H_    0.750581 0.586885 0.618180 0.193857
H3    H     H_    0.067555 0.269102 0.581754 0.094801
H4    H     H_    0.937336 0.730518 0.418166 0.109202
H5    H     H_    0.935055 0.303978 0.768719 0.164404
H6    H     H_    0.065158 0.695755 0.230894 0.166507
C27   C     C_3   0.923374 0.920277 0.990783 -0.224758
C28   C     C_3   0.076650 0.079710 0.009219 -0.224493
C29   C     C_3   0.098819 0.926856 0.034484 0.073605
C30   C     C_3   0.901208 0.073132 0.965518 0.073284
H7    H     H_    0.860956 0.854357 0.983268 0.108474
H8    H     H_    0.139070 0.145628 0.016735 0.108519
C31   C     C_3   0.991411 0.997639 0.062741 -0.020439
C32   C     C_3   0.008610 0.002349 0.937261 -0.019912
C33   C     C_3   0.814590 0.991998 0.019332 -0.200919
C34   C     C_3   0.185432 0.007990 0.980669 -0.200764
H9    H     H_    0.661711 0.985698 0.035054 0.121054
H10   H     H_    0.338310 0.014292 0.964946 0.120814
C35   C     C_3   0.679086 0.985373 0.481265 -0.151021
C36   C     C_3   0.320179 0.017032 0.518422 -0.164278
C37   C     C_3   0.617856 0.068372 0.507969 0.191503
C38   C     C_3   0.381116 0.934038 0.491690 0.196227
H11   H     H_    0.826762 0.973062 0.465832 0.120307
H12   H     H_    0.172563 0.029449 0.533891 0.120549
C39   C     C_3   0.502173 0.000796 0.562138 -0.097470
C40   C     C_3   0.497151 0.001470 0.437514 -0.076011
C41   C     C_3   0.561989 0.917136 0.536041 -0.155141
C42   C     C_3   0.437085 0.085205 0.463579 -0.180327
H13   H     H_    0.612747 0.848511 0.566766 0.161323
H14   H     H_    0.386800 0.154280 0.433311 0.108233
C43   C     C_R   0.499441 0.277094 0.178702 -0.040481
C44   C     C_R   0.500640 0.722890 0.821223 -0.042828
C45   C     C_R   0.537676 0.433063 0.192045 -0.081605
C46   C     C_R   0.464050 0.566881 0.807793 -0.080406
C47   C     C_R   0.518206 0.336852 0.219000 -0.130695
C48   C     C_R   0.483185 0.663125 0.780882 -0.130020
C49   C     C_R   0.494237 0.313422 0.111384 -0.204524
C50   C     C_R   0.505121 0.686533 0.888540 -0.204190
C51   C     C_R   0.507189 0.411410 0.082211 0.073984
C52   C     C_R   0.493029 0.588512 0.917660 0.074863
C53   C     C_R   0.538714 0.471697 0.123841 0.095111
C54   C     C_R   0.462326 0.528221 0.875993 0.093354
C55   C     C_R   0.490381 0.450594 0.013306 0.064169
C56   C     C_R   0.509955 0.549309 0.986551 0.063798
C57   C     C_R   0.551164 0.605827 0.029226 -0.261578
C58   C     C_R   0.449670 0.394066 0.970593 -0.261081
C59   C     C_R   0.567364 0.568941 0.096368 -0.025037
C60   C     C_R   0.433881 0.430956 0.903434 -0.027912
H15   H     H_    0.515171 0.737596 0.916317 0.088597
H16   H     H_    0.482896 0.262335 0.083665 0.088694
H17   H     H_    0.482679 0.691091 0.728475 0.120328
H18   H     H_    0.519391 0.308904 0.271408 0.108995
H19   H     H_    0.548097 0.476266 0.225631 0.160742
H20   H     H_    0.454512 0.523674 0.774189 0.166172
H21   H     H_    0.578849 0.680014 0.011641 0.106126
H22   H     H_    0.422457 0.319838 0.988129 0.105775
C61   C     C_2   0.621493 0.636183 0.134755 0.331040
H23   H     H_    0.573728 0.708530 0.118635 0.080953
O21   O     O_2   0.729864 0.613960 0.181608 -0.540243
C62   C     C_2   0.380320 0.363703 0.864991 0.337118
H24   H     H_    0.427916 0.291338 0.881201 0.080744
O22   O     O_2   0.272571 0.385937 0.817972 -0.537008
C63   C     C_2   0.133912 0.513026 0.263665 0.389601
H25   H     H_    0.190017 0.547832 0.215889 0.061677
O23   O     O_2   0.101869 0.428643 0.276845 -0.535663
C64   C     C_2   0.869672 0.487007 0.735878 0.394956
H26   H     H_    0.812865 0.452421 0.783593 0.060838
O24   O     O_2   0.902521 0.571325 0.722657 -0.534376
C65   C     C_2   0.327120 0.347777 0.504523 0.334598
H27   H     H_    0.375676 0.298620 0.478194 0.038290
O25   O     O_2   0.411337 0.350654 0.554510 -0.522347
C66   C     C_2   0.675465 0.649334 0.492848 0.337238
H28   H     H_    0.626784 0.654444 0.443554 0.073878
O26   O     O_2   0.593659 0.696105 0.523817 -0.556571
C67   C     C_2   0.212555 0.843190 0.070468 0.307537
H29   H     H_    0.279727 0.798896 0.043727 0.030514
O27   O     O_2   0.230655 0.824412 0.129442 -0.543385
C68   C     C_2   0.787528 0.156810 0.929526 0.308017
H30   H     H_    0.720254 0.201073 0.956269 0.030194
O28   O     O_2   0.769617 0.175643 0.870545 -0.542389
C69   C     C_3   0.753561 0.145355 0.518419 -0.383137
C70   C     C_3   0.847736 0.199222 0.454965 -0.733918
H31   H     H_    0.934532 0.151094 0.434481 0.222664
H32   H     H_    0.736285 0.233448 0.418967 0.229289
H33   H     H_    0.944748 0.254369 0.464376 0.217975
H34   H     H_    0.670796 0.194846 0.538861 0.199084
H35   H     H_    0.867612 0.113019 0.553961 0.170246
C71   C     C_3   0.242576 0.858255 0.480959 -0.362547
C72   C     C_3   0.149514 0.803728 0.544461 -0.671331
H36   H     H_    0.261389 0.768689 0.579986 0.248278
H37   H     H_    0.064399 0.851633 0.565665 0.208588
H38   H     H_    0.051058 0.749218 0.534872 0.228085
H39   H     H_    0.127881 0.891908 0.446137 0.160409
H40   H     H_    0.322129 0.809164 0.459282 0.207764

loop_
_geom_bond_atom_site_label_1
_geom_bond_atom_site_label_2
_ccdc_geom_bond_type
C28   H8    S    
C34   H10   S    
C31   C33   S    
C55   C56   A    
C60   C62   S    
O11   V3    S    
C36   C42   S    
O13   V3    S    
C35   C41   S    
O4    C2    A    
V1    O19   S    
C68   H30   S    
C54   C60   A    
C23   C25   A    
C21   C22   A    
C7    C9    S    
O9    V1    S    
C9    C15   A    
C45   H19   S    
C10   C16   A    
C11   C13   A    
C40   C42   S    
C49   H16   S    
O3    C1    A    
C71   H39   S    
C29   C34   S    
C24   C66   S    
C72   H38   S    
C42   H14   S    
C5    C31   S    
C27   C29   S    
C15   H4    S    
C28   C30   S    
C3    C43   S    
C64   H26   S    
C35   C40   S    
C18   C22   A    
O9    C5    A    
C35   C37   S    
O7    C3    A    
C62   H24   S    
C57   H21   S    
O5    C7    A    
C13   H6    S    
C28   C34   S    
O6    C8    A    
C14   H5    S    
O8    V2    S    
C70   H31   S    
C25   H1    S    
C58   C60   A    
C36   H12   S    
C26   H2    S    
C61   H23   S    
O3    V1    S    
O14   V4    S    
C51   C53   A    
C11   C19   A    
C38   C40   S    
C38   C71   S    
C8    C10   S    
C2    O12   A    
C17   C19   A    
C18   C20   A    
O7    V1    S    
C52   C56   A    
C65   O25   D    
O17   V3    S    
V4    O20   S    
C30   C68   S    
C15   C17   A    
C69   H34   S    
O8    C4    A    
C19   C25   A    
C1    O11   A    
C33   H9    S    
C44   C48   A    
O15   V3    S    
C2    C39   S    
C9    C13   A    
O4    V2    S    
C38   C41   S    
C69   H35   S    
C52   C54   A    
C65   H27   S    
O10   V2    S    
O1    V3    S    
C41   H13   S    
C53   C59   A    
C35   H11   S    
C39   C41   S    
C43   C49   A    
C70   H32   S    
C45   C47   A    
C50   C52   A    
C30   C33   S    
O18   V4    S    
C55   C58   A    
O15   C5    A    
C67   H29   S    
C46   H20   S    
O16   C6    A    
C12   C20   A    
O1    C3    A    
C4    C44   S    
C66   O26   D    
C69   C70   S    
C12   C64   S    
O6    V2    S    
C23   C65   S    
C27   C32   S    
C63   H25   S    
V2    O20   S    
C21   C24   A    
C20   C26   A    
C28   C31   S    
C58   H22   S    
C22   C23   A    
O16   V4    S    
C10   C14   A    
C29   C31   S    
C27   C33   S    
C16   C18   A    
C68   O28   D    
C72   H36   S    
C57   C59   A    
C27   H7    S    
C1    C40   S    
O5    V1    S    
C29   C67   S    
C45   C53   A    
O10   C6    A    
O18   C8    A    
O2    V4    S    
C30   C32   S    
C12   C14   A    
V3    O19   S    
C71   H40   S    
C37   C39   S    
C72   H37   S    
C61   O21   D    
C70   H33   S    
C44   C50   A    
C24   C26   A    
O13   V1    S    
C64   O24   D    
C11   C63   S    
O14   V2    S    
C51   C55   A    
C56   C57   A    
O2    C4    A    
C62   O22   D    
C50   H15   S    
C71   C72   S    
C37   C69   S    
C59   C61   S    
C6    C32   S    
C16   H3    S    
C36   C39   S    
C67   O27   D    
C49   C51   A    
C17   C21   A    
C46   C48   A    
C36   C38   S    
C46   C54   A    
C66   H28   S    
C48   H17   S    
O12   V4    S    
C37   C42   S    
C43   C47   A    
C47   H18   S    
C32   C34   S    
C63   O23   D    
O17   C7    A    
