data_mof_unit_40826.cif
_audit_creation_date              2012-12-10T20:31:55-0500
_audit_creation_method            fapswitch 2.2
_symmetry_space_group_name_H-M    P1
_symmetry_Int_Tables_number       1
_space_group_crystal_system       triclinic
_cell_length_a                    9.90149
_cell_length_b                    10.707513
_cell_length_c                    15.464116
_cell_angle_alpha                 90.491729
_cell_angle_beta                  68.782553
_cell_angle_gamma                 89.313597
_cell_volume                      1528.11783249

loop_
_atom_site_label
_atom_site_type_symbol
_atom_type_description
_atom_site_fract_x
_atom_site_fract_y
_atom_site_fract_z
_atom_type_partial_charge
C1    C     C_R   0.501609 0.740223 0.496656 0.955159
C2    C     C_R   0.425246 0.417725 0.906301 0.026243
C3    C     C_R   0.283858 0.375802 0.955390 0.041994
C4    C     C_R   0.531631 0.416229 0.947428 0.103683
C5    C     C_R   0.489052 0.397563 0.044188 0.095453
C6    C     C_R   0.343642 0.361691 0.093330 -0.180309
C7    C     C_R   0.245582 0.345259 0.048490 -0.208072
C8    C     C_R   0.678961 0.436449 0.894232 -0.232592
C9    C     C_R   0.776100 0.466011 0.936244 -0.118111
C10   C     C_R   0.731251 0.468692 0.032294 0.125430
C11   C     C_R   0.591210 0.425123 0.087382 -0.039856
C12   C     C_R   0.409593 0.494718 0.675674 0.917851
C13   C     C_R   0.825367 0.515393 0.073709 -0.103714
C14   C     C_R   0.780194 0.525174 0.169540 -0.298156
C15   C     C_R   0.557989 0.419301 0.183619 0.543728
C16   C     C_R   0.390282 0.938535 0.479097 -0.095949
C17   C     C_R   0.511104 0.871856 0.480635 -0.280892
C18   C     C_R   0.643291 0.934473 0.461818 0.650807
C19   C     C_R   0.643554 0.063839 0.461055 -0.273069
C20   C     C_R   0.513022 0.129259 0.478177 -0.137965
C21   C     C_R   0.391747 0.066209 0.477103 -0.011754
C22   C     C_3   0.237435 0.080582 0.540505 -0.552552
C23   C     C_R   0.503124 0.260265 0.495614 0.927524
C24   C     C_3   0.236230 0.939806 0.544752 1.259741
C25   C     C_R   0.883196 0.507581 0.581281 0.100942
C26   C     C_R   0.973525 0.484411 0.419881 -0.075289
C27   C     C_R   0.117043 0.485145 0.419793 -0.041830
C28   C     C_R   0.025517 0.502774 0.581532 0.044365
C29   C     C_3   0.993023 0.601650 0.654280 0.531527
C30   C     C_3   0.844384 0.615092 0.648625 -0.490031
C31   C     C_R   0.590068 0.495739 0.324582 0.919910
C32   C     C_R   0.356117 0.463944 0.774367 -0.128808
C33   C     C_R   0.644966 0.479853 0.224299 -0.157795
C34   C     C_R   0.182316 0.370233 0.910987 0.607897
C35   C     C_R   0.219209 0.412941 0.820111 -0.290678
C36   C     C_R   0.454446 0.468988 0.819134 -0.252314
H1    H     H_    0.136523 0.316094 0.088605 0.206242
H2    H     H_    0.931192 0.549813 0.031854 0.166337
H3    H     H_    0.742719 0.111791 0.453834 0.199887
H4    H     H_    0.225113 0.127081 0.607620 0.195711
H5    H     H_    0.168010 0.120012 0.504442 0.213799
H6    H     H_    0.956585 0.473399 0.354989 0.138853
H7    H     H_    0.206779 0.475131 0.354557 0.180866
H8    H     H_    0.993198 0.566212 0.721582 0.030156
H9    H     H_    0.758635 0.595271 0.715391 0.131344
H10   H     H_    0.827724 0.703634 0.616395 0.276814
H11   H     H_    0.850092 0.568544 0.200769 0.188180
H12   H     H_    0.885651 0.490490 0.893337 0.151998
H13   H     H_    0.142365 0.404310 0.785376 0.166436
H14   H     H_    0.553645 0.516225 0.785291 0.166112
H15   H     H_    0.298820 0.347580 0.166692 0.226698
H16   H     H_    0.720914 0.431540 0.819429 0.138164
N1    N     N_R   0.856900 0.500860 0.500610 -0.077585
N2    N     N_R   0.142540 0.500820 0.500610 -0.074555
O1    O     O_R   0.385310 0.683210 0.499990 -0.541954
O2    O     O_R   0.614650 0.683240 0.500000 -0.556805
O3    O     O_R   0.319830 0.499970 0.632240 -0.611361
O4    O     O_R   0.549170 0.500000 0.632250 -0.621353
O5    O     O_R   0.385350 0.316760 0.500000 -0.607671
O6    O     O_R   0.614690 0.316790 0.500010 -0.633072
O7    O     O_R   0.450830 0.500000 0.367750 -0.584232
O8    O     O_R   0.680170 0.500030 0.367760 -0.637139
Zn1   Zn    Zn3+2 0.346870 0.499980 0.499990 1.047597
Zn2   Zn    Zn3+2 0.653130 0.500020 0.500010 0.995845
F1    F     F_    0.769082 0.872878 0.451359 -0.620264
F2    F     F_    0.220383 0.896515 0.631970 -0.626953
F3    F     F_    0.143307 0.887018 0.506535 -0.594820
F4    F     F_    0.448238 0.349122 0.239080 -0.697931
F5    F     F_    0.075994 0.705468 0.623704 -0.536965
F6    F     F_    0.049473 0.321138 0.954524 -0.680899

loop_
_geom_bond_atom_site_label_1
_geom_bond_atom_site_label_2
_ccdc_geom_bond_type
C35   H13   S    
C2    C4    A    
C3    C7    A    
C31   C33   S    
C8    C9    A    
O3    Zn1   S    
C16   C21   A    
C24   F2    S    
C6    H15   S    
C9    C10   A    
C34   F6    S    
C30   H9    S    
C1    C17   S    
C19   C20   A    
C24   F3    S    
C20   C23   S    
C4    C8    A    
O6    Zn2   S    
C12   O4    A    
C14   C33   A    
O2    Zn2   S    
C17   C18   A    
C7    H1    S    
C27   N2    A    
C22   H4    S    
C16   C24   S    
C21   C22   S    
C12   C32   S    
C25   C28   A    
C23   O5    A    
C31   O8    A    
C13   H2    S    
C29   C30   S    
C19   H3    S    
C5    C6    A    
C12   O3    A    
C32   C36   A    
C11   C15   A    
C28   C29   S    
C1    O2    A    
C25   N1    A    
C5    C11   A    
C6    C7    A    
C2    C3    A    
C29   H8    S    
C26   C27   A    
C23   O6    A    
N1    Zn2   S    
C22   C24   S    
C1    O1    A    
C22   H5    S    
C16   C17   A    
C10   C11   A    
C15   F4    S    
O4    Zn2   S    
C26   N1    A    
C27   H7    S    
C8    H16   S    
C36   H14   S    
C20   C21   A    
C26   H6    S    
C9    H12   S    
O8    Zn2   S    
C34   C35   A    
N2    Zn1   S    
C2    C36   A    
C25   C30   S    
O7    Zn1   S    
C29   F5    S    
C31   O7    A    
C18   C19   A    
C28   N2    A    
C3    C34   A    
C13   C14   A    
C14   H11   S    
O5    Zn1   S    
C30   H10   S    
C32   C35   A    
C15   C33   A    
C4    C5    A    
C18   F1    S    
C10   C13   A    
O1    Zn1   S    
