data_mof_unit_28016.cif
_audit_creation_date              2012-12-10T17:56:47-0500
_audit_creation_method            fapswitch 2.2
_symmetry_space_group_name_H-M    P1
_symmetry_Int_Tables_number       1
_space_group_crystal_system       triclinic
_cell_length_a                    10.824382
_cell_length_b                    9.747713
_cell_length_c                    10.809465
_cell_angle_alpha                 89.932597
_cell_angle_beta                  93.735701
_cell_angle_gamma                 89.983352
_cell_volume                      1138.11448213

loop_
_atom_site_label
_atom_site_type_symbol
_atom_type_description
_atom_site_fract_x
_atom_site_fract_y
_atom_site_fract_z
_atom_type_partial_charge
C1    C     C_R   0.262662 0.499916 0.498542 0.788086
C2    C     C_R   0.491409 0.500266 0.736678 0.809525
C3    C     C_R   0.583029 0.746409 0.104417 0.152485
C4    C     C_R   0.416565 0.745610 0.894414 0.152661
C5    C     C_R   0.548960 0.870893 0.045181 0.080914
C6    C     C_R   0.451652 0.870660 0.951520 0.081750
C7    C     C_R   0.473721 0.624002 0.939036 -0.031849
C8    C     C_R   0.525865 0.624422 0.060794 -0.031833
C9    C     C_R   0.520114 0.501184 0.129021 -0.066455
C10   C     C_R   0.480722 0.500815 0.871158 -0.066291
C11   C     C_R   0.503823 0.377892 0.064384 -0.146275
C12   C     C_R   0.737318 0.499882 0.501138 0.787519
C13   C     C_R   0.499138 0.377859 0.936150 -0.145822
C14   C     C_R   0.063779 0.375187 0.497055 -0.158937
C15   C     C_R   0.935971 0.375166 0.498279 -0.158798
C16   C     C_R   0.871555 0.499715 0.501134 -0.016243
C17   C     C_R   0.128368 0.499778 0.497820 -0.016680
C18   C     C_3   0.329896 0.144860 0.327109 -0.748444
C19   C     C_3   0.670733 0.144371 0.672209 -0.747097
C20   C     C_3   0.329861 0.855468 0.327270 -0.737189
C21   C     C_3   0.670322 0.854970 0.672612 -0.737223
C22   C     C_R   0.936255 0.624200 0.502520 -0.137099
C23   C     C_R   0.063769 0.624249 0.499282 -0.137230
C24   C     C_R   0.420718 0.074005 0.419482 0.248623
C25   C     C_R   0.579369 0.073752 0.580427 0.248475
C26   C     C_R   0.420736 0.926190 0.419482 0.253427
C27   C     C_R   0.579327 0.925938 0.580468 0.254228
C28   C     C_R   0.508841 0.500404 0.263385 0.809047
Cu1   Cu    Cu3+1 0.500000 0.640660 0.500000 0.971499
Cu2   Cu    Cu3+1 0.500000 0.359340 0.500000 0.962004
H1    H     H_    0.496336 0.282091 0.112932 0.203584
H2    H     H_    0.766797 0.115236 0.653294 0.199955
H3    H     H_    0.670820 0.255283 0.671976 0.270515
H4    H     H_    0.651912 0.114938 0.768372 0.227438
H5    H     H_    0.349806 0.884099 0.231234 0.219522
H6    H     H_    0.329115 0.744551 0.328257 0.269207
H7    H     H_    0.233675 0.885232 0.344921 0.199877
H8    H     H_    0.650431 0.883253 0.768636 0.220262
H9    H     H_    0.671203 0.744090 0.671698 0.268878
H10   H     H_    0.766425 0.884828 0.654908 0.199648
H11   H     H_    0.508486 0.282271 0.887931 0.203834
H12   H     H_    0.111618 0.277711 0.495536 0.163920
H13   H     H_    0.887995 0.277688 0.496944 0.164525
H14   H     H_    0.888628 0.721716 0.505212 0.171010
H15   H     H_    0.111493 0.721811 0.499094 0.172182
H16   H     H_    0.233736 0.114955 0.344564 0.199416
H17   H     H_    0.328907 0.255773 0.328064 0.270329
H18   H     H_    0.350110 0.116433 0.231152 0.226564
I1    I     I_    0.747199 0.733622 0.224683 -0.303555
I2    I     I_    0.251555 0.731758 0.775682 -0.304742
I3    I     I_    0.650215 0.052420 0.090473 -0.370073
I4    I     I_    0.353234 0.052825 0.901161 -0.366320
N1    N     N_R   0.500000 0.852070 0.500000 -0.179361
N2    N     N_R   0.500000 0.147940 0.500000 -0.184319
O1    O     O_R   0.319640 0.618740 0.499990 -0.579469
O2    O     O_R   0.680360 0.618740 0.500010 -0.579358
O3    O     O_R   0.319620 0.381170 0.499990 -0.588962
O4    O     O_R   0.680380 0.381170 0.500010 -0.589924
O5    O     O_R   0.500000 0.618810 0.319650 -0.574059
O6    O     O_R   0.500000 0.618810 0.680350 -0.574003
O7    O     O_R   0.499970 0.381240 0.319640 -0.587228
O8    O     O_R   0.500030 0.381240 0.680360 -0.586068

loop_
_geom_bond_atom_site_label_1
_geom_bond_atom_site_label_2
_ccdc_geom_bond_type
C8    C9    A    
C7    C10   A    
C18   H18   S    
C27   N1    A    
Cu1   Cu2   S    
C23   H15   S    
Cu1   O2    S    
C1    O3    A    
C25   C27   A    
Cu2   N2    S    
C1    C17   S    
C21   H9    S    
Cu1   O6    S    
C14   H12   S    
C12   O4    A    
C18   H17   S    
C3    C5    A    
C13   H11   S    
C3    I1    S    
C11   H1    S    
C7    C8    A    
C17   C23   A    
C28   O7    A    
C20   H7    S    
C11   C13   A    
C14   C17   A    
C9    C11   A    
C12   O2    A    
C21   H10   S    
C20   C26   S    
C4    C7    A    
C18   C24   S    
C19   H2    S    
Cu2   O4    S    
C24   C26   A    
Cu2   O8    S    
C1    O1    A    
C5    C6    A    
C21   C27   S    
C2    O6    A    
Cu2   O7    S    
C19   C25   S    
C15   H13   S    
C15   C16   A    
C20   H6    S    
C26   N1    A    
C18   H16   S    
C25   N2    A    
C4    C6    A    
C3    C8    A    
C19   H3    S    
C28   O5    A    
C2    O8    A    
Cu1   O5    S    
C14   C15   A    
C5    I3    S    
C16   C22   A    
Cu1   O1    S    
C6    I4    S    
C22   C23   A    
C20   H5    S    
C24   N2    A    
C19   H4    S    
C22   H14   S    
C21   H8    S    
C12   C16   S    
C9    C28   S    
C4    I2    S    
Cu2   O3    S    
Cu1   N1    S    
C10   C13   A    
C2    C10   S    
