data_mof_unit_26059.cif
_audit_creation_date              2012-10-26T17:12:31-0400
_audit_creation_method            fapswitch 2.2
_symmetry_space_group_name_H-M    P1
_symmetry_Int_Tables_number       1
_space_group_crystal_system       triclinic
_cell_length_a                    16.870764
_cell_length_b                    16.784207
_cell_length_c                    16.860776
_cell_angle_alpha                 67.51775
_cell_angle_beta                  67.636902
_cell_angle_gamma                 67.505977
_cell_volume                      3919.51182611

loop_
_atom_site_label
_atom_site_type_symbol
_atom_type_description
_atom_site_fract_x
_atom_site_fract_y
_atom_site_fract_z
_atom_type_partial_charge
C1    C     C_R   0.029271 0.828546 0.564582 0.809592
C2    C     C_R   0.014435 0.569936 0.831763 0.819016
C3    C     C_R   0.171429 0.973624 0.434739 0.802297
C4    C     C_R   0.828221 0.027330 0.564825 0.809754
C5    C     C_R   0.451209 0.069758 0.706419 -0.249575
C6    C     C_R   0.486531 0.072795 0.257204 -0.247389
C7    C     C_R   0.089111 0.691896 0.461310 -0.244402
C8    C     C_R   0.941140 0.295342 0.543537 -0.248593
C9    C     C_R   0.727835 0.478147 0.979802 -0.256516
C10   C     C_R   0.261681 0.484792 0.069106 -0.249289
C11   C     C_R   0.297385 0.946368 0.539524 -0.245002
C12   C     C_R   0.973724 0.171723 0.434758 0.809579
C13   C     C_R   0.706379 0.066375 0.451080 -0.258016
C14   C     C_R   0.536132 0.308252 0.915700 -0.178596
C15   C     C_R   0.455192 0.703898 0.064135 -0.256081
C16   C     C_R   0.025620 0.519861 0.269741 -0.274933
C17   C     C_R   0.936656 0.513999 0.735372 -0.248084
C18   C     C_R   0.533997 0.048651 0.535388 -0.102569
C19   C     C_R   0.439371 0.023363 0.443683 -0.104260
C20   C     C_R   0.008210 0.551030 0.550117 -0.104748
C21   C     C_R   0.991593 0.454617 0.454446 -0.098583
C22   C     C_R   0.542941 0.543854 0.015147 -0.078789
C23   C     C_R   0.830543 0.568559 0.016461 0.811885
C24   C     C_R   0.446928 0.447629 0.998851 -0.086979
C25   C     C_R   0.569370 0.056587 0.442576 0.069217
C26   C     C_R   0.407580 0.009117 0.537347 0.070429
C27   C     C_R   0.966913 0.480464 0.596542 0.067270
C28   C     C_R   0.020062 0.533973 0.408792 0.067997
C29   C     C_R   0.448302 0.573448 0.038426 0.063801
C30   C     C_R   0.540612 0.424815 0.965613 0.023746
C31   C     C_R   0.514546 0.057285 0.394886 0.067420
C32   C     C_R   0.447611 0.036743 0.579555 0.070522
C33   C     C_R   0.400441 0.517795 0.040919 0.069469
C34   C     C_R   0.167648 0.429684 0.987105 0.817808
C35   C     C_R   0.588200 0.465061 0.985833 0.050576
C36   C     C_R   0.969199 0.424919 0.548972 0.065847
C37   C     C_R   0.039455 0.575241 0.456172 0.066725
C38   C     C_R   0.402965 0.059849 0.660809 0.189713
C39   C     C_R   0.528011 0.094146 0.301292 0.192557
C40   C     C_R   0.091195 0.637902 0.414226 0.197683
C41   C     C_R   0.951931 0.340100 0.591737 0.191172
C42   C     C_R   0.679117 0.427264 0.981086 0.117204
C43   C     C_R   0.309111 0.525015 0.087658 0.184049
C44   C     C_R   0.341650 0.962097 0.585273 0.187401
C45   C     C_R   0.564964 0.027193 0.828284 0.805242
C46   C     C_R   0.658868 0.060045 0.402597 0.182711
C47   C     C_R   0.581968 0.364009 0.911448 0.203628
C48   C     C_R   0.406151 0.658575 0.055273 0.184611
C49   C     C_R   0.024257 0.571355 0.317899 0.176611
C50   C     C_R   0.919455 0.473443 0.687485 0.199701
C51   C     C_R   0.544806 0.053269 0.675319 0.048579
C52   C     C_R   0.425457 0.021268 0.304656 0.042506
C53   C     C_R   0.047942 0.675806 0.552927 0.048564
C54   C     C_R   0.962437 0.323097 0.449763 0.049178
C55   C     C_R   0.686790 0.559161 0.004738 0.055930
C56   C     C_R   0.430153 0.986384 0.168220 0.813949
C57   C     C_R   0.305819 0.426027 0.015236 0.045757
C58   C     C_R   0.318783 0.973386 0.445823 0.052318
C59   C     C_R   0.674578 0.054229 0.544221 0.051449
C60   C     C_R   0.444982 0.323077 0.958037 0.017664
C61   C     C_R   0.548976 0.676022 0.041919 0.047854
C62   C     C_R   0.999904 0.439299 0.311456 0.053371
C63   C     C_R   0.990677 0.572473 0.691828 0.043425
C64   C     C_R   0.598535 0.043038 0.729020 -0.110289
C65   C     C_R   0.388253 0.991766 0.261489 -0.105477
C66   C     C_R   0.041130 0.730896 0.602411 -0.117282
C67   C     C_R   0.434915 0.171344 0.971970 0.789661
C68   C     C_R   0.965608 0.269852 0.398748 -0.109498
C69   C     C_R   0.735134 0.606153 0.016727 -0.111045
C70   C     C_R   0.260371 0.387173 0.991079 -0.110849
C71   C     C_R   0.268298 0.967652 0.397641 -0.113497
C72   C     C_R   0.728871 0.043342 0.598068 -0.109843
C73   C     C_R   0.396173 0.268424 0.962915 -0.113546
C74   C     C_R   0.600617 0.729781 0.036474 -0.112430
C75   C     C_R   0.985660 0.393058 0.263991 -0.107004
C76   C     C_R   0.012977 0.611843 0.738139 -0.111310
C77   C     C_R   0.689107 0.038467 0.688871 -0.275571
C78   C     C_R   0.565021 0.828228 0.026870 0.821661
C79   C     C_R   0.307688 0.969606 0.307820 -0.276588
C80   C     C_R   0.032777 0.693986 0.693705 -0.267401
C81   C     C_R   0.972083 0.308227 0.308024 -0.278589
C82   C     C_R   0.691490 0.691465 0.029221 -0.277096
C83   C     C_R   0.305075 0.305205 0.970947 -0.262954
C84   C     C_R   0.584848 0.051624 0.585099 0.072141
C85   C     C_R   0.394879 0.005358 0.398199 0.069848
C86   C     C_R   0.016438 0.599219 0.598175 0.070134
C87   C     C_R   0.984300 0.405730 0.405236 0.071983
C88   C     C_R   0.592858 0.592834 0.021203 0.070567
C89   C     C_R   0.984297 0.431209 0.169162 0.810745
C90   C     C_R   0.399303 0.399189 0.990404 0.067994
Cu1   Cu    Cu3+1 0.995180 0.995180 0.424630 0.931884
Cu2   Cu    Cu3+1 0.004820 0.004820 0.575370 0.928866
Cu3   Cu    Cu3+1 0.995180 0.424630 0.995180 0.927908
Cu4   Cu    Cu3+1 0.004820 0.575370 0.004820 0.930251
Cu5   Cu    Cu3+1 0.424630 0.995180 0.995180 0.921834
Cu6   Cu    Cu3+1 0.575370 0.004820 0.004820 0.940088
H1    H     H_    0.412733 0.094705 0.763954 0.172400
H2    H     H_    0.416625 0.761403 0.089348 0.174979
H3    H     H_    0.048553 0.547272 0.199295 0.176686
H4    H     H_    0.899987 0.506529 0.804985 0.149342
H5    H     H_    0.285680 0.153377 0.688351 0.211654
H6    H     H_    0.288465 0.049555 0.758414 0.222616
H7    H     H_    0.524378 0.223152 0.232142 0.216693
H8    H     H_    0.618636 0.147792 0.194963 0.229698
H9    H     H_    0.218376 0.617070 0.336972 0.219688
H10   H     H_    0.145387 0.705903 0.288689 0.222244
H11   H     H_    0.010637 0.235407 0.680206 0.215833
H12   H     H_    0.497796 0.103000 0.185998 0.170704
H13   H     H_    0.898658 0.271323 0.717439 0.219518
H14   H     H_    0.735032 0.302754 0.049660 0.230121
H15   H     H_    0.781738 0.325954 0.938896 0.193863
H16   H     H_    0.253288 0.508277 0.219967 0.227771
H17   H     H_    0.206937 0.607097 0.155152 0.228830
H18   H     H_    0.345659 0.851077 0.690131 0.213545
H19   H     H_    0.258030 0.940069 0.709792 0.222026
H20   H     H_    0.758222 0.985498 0.324543 0.217520
H21   H     H_    0.736840 0.097332 0.277097 0.219357
H22   H     H_    0.679706 0.426257 0.828437 0.231904
H23   H     H_    0.126081 0.741578 0.427236 0.150827
H24   H     H_    0.712501 0.311298 0.851319 0.231874
H25   H     H_    0.317556 0.763035 0.996574 0.215754
H26   H     H_    0.281156 0.728251 0.108784 0.216575
H27   H     H_    0.949949 0.693564 0.264197 0.220613
H28   H     H_    0.060065 0.676083 0.215277 0.206445
H29   H     H_    0.787104 0.494961 0.736911 0.210301
H30   H     H_    0.846974 0.395706 0.789510 0.211488
H31   H     H_    0.730289 0.028005 0.729959 0.188093
H32   H     H_    0.273568 0.956977 0.272755 0.184800
H33   H     H_    0.038099 0.730995 0.730999 0.189926
H34   H     H_    0.914781 0.238721 0.582855 0.175593
H35   H     H_    0.968653 0.270381 0.270387 0.188283
H36   H     H_    0.729619 0.729835 0.030886 0.189930
H37   H     H_    0.268312 0.268631 0.964151 0.189425
H38   H     H_    0.798155 0.450774 0.955895 0.178543
H39   H     H_    0.191676 0.493254 0.103974 0.149084
H40   H     H_    0.249840 0.907664 0.578586 0.163533
H41   H     H_    0.768399 0.081837 0.411687 0.181118
H42   H     H_    0.569761 0.260347 0.876625 0.161958
N1    N     N_3   0.307405 0.085265 0.691317 -0.580466
N2    N     N_3   0.316121 0.706099 0.051414 -0.581648
N3    N     N_3   0.012368 0.666001 0.276962 -0.577522
N4    N     N_3   0.842753 0.440193 0.726836 -0.578101
N5    N     N_3   0.571988 0.163788 0.252700 -0.574817
N6    N     N_3   0.154466 0.639344 0.328328 -0.587974
N7    N     N_3   0.956313 0.292787 0.681742 -0.581428
N8    N     N_3   0.720726 0.333483 0.987919 -0.605788
N9    N     N_3   0.267727 0.560664 0.163077 -0.571648
N10   N     N_3   0.326568 0.920582 0.679481 -0.579867
N11   N     N_3   0.707044 0.045301 0.316419 -0.578453
N12   N     N_3   0.661152 0.369882 0.838800 -0.590296
O1    O     O_R   0.124540 0.978640 0.385460 -0.586562
O2    O     O_R   0.124540 0.385460 0.978640 -0.586476
O3    O     O_R   0.021360 0.875460 0.614540 -0.588131
O4    O     O_R   0.978640 0.124540 0.385460 -0.585735
O5    O     O_R   0.013780 0.867370 0.487190 -0.579784
O6    O     O_R   0.986220 0.132630 0.512810 -0.593883
O7    O     O_R   0.867370 0.487190 0.013780 -0.606775
O8    O     O_R   0.132630 0.512810 0.986220 -0.588807
O9    O     O_R   0.487190 0.013780 0.867370 -0.591437
O10   O     O_R   0.512810 0.986220 0.132630 -0.585830
O11   O     O_R   0.512810 0.132630 0.986220 -0.597529
O12   O     O_R   0.875460 0.021360 0.614540 -0.585020
O13   O     O_R   0.487190 0.867370 0.013780 -0.592318
O14   O     O_R   0.986220 0.512810 0.132630 -0.606194
O15   O     O_R   0.013780 0.487190 0.867370 -0.589030
O16   O     O_R   0.132630 0.986220 0.512810 -0.588431
O17   O     O_R   0.867370 0.013780 0.487190 -0.595553
O18   O     O_R   0.978640 0.385460 0.124540 -0.583600
O19   O     O_R   0.021360 0.614540 0.875460 -0.585565
O20   O     O_R   0.385460 0.124540 0.978640 -0.591113
O21   O     O_R   0.614540 0.875460 0.021360 -0.576473
O22   O     O_R   0.614540 0.021360 0.875460 -0.584828
O23   O     O_R   0.385460 0.978640 0.124540 -0.591257
O24   O     O_R   0.875460 0.614540 0.021360 -0.581483

loop_
_geom_bond_atom_site_label_1
_geom_bond_atom_site_label_2
_ccdc_geom_bond_type
C25   C31   A    
C79   H32   S    
C21   C87   A    
C26   C32   A    
Cu3   Cu4   S    
C65   C79   A    
C22   C29   A    
C64   C77   A    
C23   C69   S    
Cu5   Cu6   S    
C45   O9    A    
C19   C31   A    
H9    N6    S    
C71   C79   A    
H5    N1    S    
C26   C44   A    
C66   C80   A    
C21   C36   A    
C53   C86   A    
C8    C41   A    
C22   C35   A    
C12   C68   S    
C9    C42   A    
C24   C90   A    
C30   C35   A    
Cu5   O9    S    
C68   C81   A    
H25   N2    S    
Cu1   O17   S    
C52   C85   A    
C12   O6    A    
C37   C40   A    
Cu4   O19   S    
C54   C87   A    
H11   N7    S    
C58   C71   A    
C81   H35   S    
C54   C68   A    
C63   C76   A    
C56   C65   S    
C29   C33   A    
C60   C73   A    
Cu6   O11   S    
C19   C26   A    
H22   N12   S    
C10   H39   S    
C55   C88   A    
C1    O5    A    
C35   C42   A    
C69   C82   A    
C14   H42   S    
Cu3   O18   S    
Cu6   O21   S    
C20   C86   A    
C18   C84   A    
C7    C40   A    
Cu2   O3    S    
C67   C73   S    
C32   C38   A    
C57   C70   A    
C11   C58   A    
C34   C70   S    
C89   O14   A    
C77   H31   S    
C27   C50   A    
C59   C72   A    
C9    H38   S    
Cu3   O15   S    
C78   O13   A    
Cu4   O8    S    
C5    C38   A    
C36   C41   A    
C18   C25   A    
C16   C62   A    
C15   C48   A    
C74   C82   A    
H20   N11   S    
C17   H4    S    
C67   O20   A    
Cu3   O7    S    
C57   C90   A    
C48   N2    S    
C29   C48   A    
C33   C43   A    
C7    H23   S    
C30   C47   A    
C10   C57   A    
C16   C49   A    
Cu1   O4    S    
Cu6   O22   S    
H15   N8    S    
C8    C54   A    
Cu1   Cu2   S    
C23   O24   A    
C34   O2    A    
C75   C81   A    
H19   N10   S    
H30   N4    S    
C49   N3    S    
C13   H41   S    
C3    C71   S    
C89   O18   A    
Cu1   O5    S    
C72   C77   A    
C70   C83   A    
C61   C88   A    
Cu5   O13   S    
C28   C49   A    
C67   O11   A    
C47   N12   S    
H29   N4    S    
C38   N1    S    
H27   N3    S    
C1    C66   S    
C15   C61   A    
H8    N5    S    
C11   C44   A    
Cu2   O6    S    
C59   C84   A    
C1    O3    A    
C53   C66   A    
C2    O15   A    
C55   C69   A    
Cu4   O24   S    
C9    C55   A    
C34   O8    A    
Cu6   O10   S    
C21   C28   A    
C39   N5    S    
C22   C88   A    
C40   N6    S    
C63   C86   A    
C8    H34   S    
C61   C74   A    
C4    O12   A    
H28   N3    S    
C18   C32   A    
C7    C53   A    
C15   H2    S    
C82   H36   S    
C42   N8    S    
C58   C85   A    
Cu4   O14   S    
C4    C72   S    
C2    C76   S    
Cu2   O12   S    
C80   H33   S    
C10   C43   A    
H24   N12   S    
H13   N7    S    
C51   C64   A    
C76   C80   A    
C12   O4    A    
C19   C85   A    
H7    N5    S    
C17   C50   A    
H16   N9    S    
C16   H3    S    
H10   N6    S    
C14   C47   A    
C13   C59   A    
C20   C27   A    
C60   C90   A    
C27   C36   A    
C51   C84   A    
C14   C60   A    
C62   C87   A    
C45   C64   S    
C3    O1    A    
C24   C33   A    
C4    O17   A    
C56   O23   A    
H17   N9    S    
Cu5   O23   S    
H26   N2    S    
C45   O22   A    
C56   O10   A    
C11   H40   S    
C17   C63   A    
Cu1   O1    S    
C20   C37   A    
C13   C46   A    
C28   C37   A    
C23   O7    A    
C78   O21   A    
C44   N10   S    
C31   C39   A    
C5    H1    S    
H6    N1    S    
C62   C75   A    
Cu5   O20   S    
C24   C30   A    
C83   H37   S    
C43   N9    S    
C75   C89   S    
C2    O19   A    
H18   N10   S    
Cu2   O16   S    
C46   N11   S    
C41   N7    S    
C74   C78   S    
C6    H12   S    
C6    C39   A    
C5    C51   A    
Cu3   O2    S    
H21   N11   S    
C6    C52   A    
H14   N8    S    
C25   C46   A    
C73   C83   A    
C52   C65   A    
C50   N4    S    
C3    O16   A    
