data_mof_unit_45682.cif
_audit_creation_date              2013-03-05T16:04:28-0500
_audit_creation_method            fapswitch 2.2
_symmetry_space_group_name_H-M    P1
_symmetry_Int_Tables_number       1
_space_group_crystal_system       triclinic
_cell_length_a                    10.972276
_cell_length_b                    9.682018
_cell_length_c                    15.015658
_cell_angle_alpha                 89.782316
_cell_angle_beta                  92.299106
_cell_angle_gamma                 89.550353
_cell_volume                      1593.82334302

loop_
_atom_site_label
_atom_site_type_symbol
_atom_site_description
_atom_site_fract_x
_atom_site_fract_y
_atom_site_fract_z
_atom_type_partial_charge
O1    O     O_R   0.319640 0.618740 0.499990 -0.559026
O2    O     O_R   0.680360 0.381260 0.500010 -0.551736
O3    O     O_R   0.680360 0.618740 0.500010 -0.564633
O4    O     O_R   0.319640 0.381260 0.499990 -0.559799
C1    C     C_R   0.262673 0.500517 0.505593 0.897637
C2    C     C_R   0.737261 0.499273 0.493801 0.891415
O5    O     O_R   0.499970 0.618800 0.370260 -0.562566
O6    O     O_R   0.500030 0.381200 0.629740 -0.559927
O7    O     O_R   0.500030 0.618800 0.629740 -0.556215
O8    O     O_R   0.499970 0.381200 0.370260 -0.551219
C3    C     C_R   0.503056 0.500066 0.329420 0.859853
C4    C     C_R   0.497064 0.499845 0.670643 0.862898
Cu1   Cu    Cu3+1 0.500000 0.640660 0.500000 1.063744
Cu2   Cu    Cu3+1 0.500000 0.359340 0.500000 1.068219
C5    C     C_R   0.604424 0.476147 0.815009 -0.166447
C6    C     C_R   0.394789 0.503703 0.184889 -0.169791
C7    C     C_R   0.494901 0.498099 0.767333 -0.168072
C8    C     C_R   0.505557 0.498268 0.232833 -0.162682
C9    C     C_R   0.385232 0.511546 0.811734 0.314240
C10   C     C_R   0.615787 0.481615 0.189417 0.318376
C11   C     C_R   0.385903 0.492507 0.904942 -0.089687
C12   C     C_R   0.613550 0.464781 0.095943 -0.085093
C13   C     C_R   0.498360 0.482466 0.953499 -0.035780
C14   C     C_R   0.501016 0.480811 0.047267 -0.030758
C15   C     C_R   0.607751 0.469817 0.908194 0.003839
C16   C     C_R   0.390569 0.492462 0.092120 -0.002570
C17   C     C_R   0.277840 0.472522 0.950426 0.160639
C18   C     C_R   0.718389 0.427416 0.049273 0.142782
C19   C     C_R   0.278365 0.484007 0.043453 0.262335
C20   C     C_R   0.717011 0.440205 0.956287 0.281043
H1    H     H_    0.686881 0.464522 0.778295 0.205638
H2    H     H_    0.312282 0.516939 0.221235 0.202803
C21   C     C_R   0.064274 0.375748 0.516590 0.144865
C22   C     C_R   0.935920 0.622652 0.482708 0.136658
C23   C     C_R   0.939165 0.372758 0.495539 0.151322
C24   C     C_R   0.060748 0.625567 0.504410 0.140842
C25   C     C_R   0.871892 0.497549 0.487422 -0.173172
C26   C     C_R   0.128063 0.501150 0.511694 -0.168649
C27   C     C_R   0.424827 0.074965 0.441397 0.215547
C28   C     C_R   0.575208 0.924990 0.558571 0.215272
C29   C     C_R   0.574464 0.072906 0.559080 0.212104
C30   C     C_R   0.425181 0.927033 0.441163 0.213103
N1    N     N_R   0.500000 0.852070 0.500000 -0.237434
N2    N     N_R   0.500000 0.147930 0.500000 -0.238282
N3    N     N_R   0.276602 0.557046 0.763760 0.124335
O9    O     O_R   0.233443 0.486388 0.696548 -0.376906
O10   O     O_R   0.215042 0.662574 0.791852 -0.275259
N4    N     N_R   0.728642 0.499372 0.239044 0.112507
O11   O     O_R   0.758802 0.415969 0.304284 -0.364122
O12   O     O_R   0.802866 0.597104 0.217601 -0.279770
I1    I     I_    0.135431 0.355435 0.888156 0.070193
I2    I     I_    0.864431 0.308145 0.109516 0.073007
N5    N     N_R   0.165592 0.475371 0.088088 0.133503
O13   O     O_R   0.074577 0.555882 0.063979 -0.252377
O14   O     O_R   0.150943 0.380930 0.148520 -0.311732
N6    N     N_R   0.826108 0.416778 0.909997 0.133881
O15   O     O_R   0.884932 0.523230 0.881385 -0.272390
O16   O     O_R   0.844054 0.296363 0.874399 -0.301710
I3    I     I_    0.142530 0.199383 0.584481 -0.097932
I4    I     I_    0.858935 0.798022 0.413740 -0.090941
I5    I     I_    0.869336 0.181365 0.446192 -0.096269
I6    I     I_    0.129467 0.813416 0.559546 -0.086852
I7    I     I_    0.301202 0.179727 0.348232 -0.143713
I8    I     I_    0.699330 0.820059 0.651340 -0.147504
I9    I     I_    0.692448 0.174140 0.656170 -0.147335
I10   I     I_    0.305668 0.825379 0.345257 -0.174247

loop_
_geom_bond_atom_site_label_1
_geom_bond_atom_site_label_2
_geom_bond_distance
_ccdc_geom_bond_type
C4    C7    1.453043 S    
O5    C3    1.305822 A    
C13   C14   1.407163 A    
C9    N3    1.433225 S    
C3    C8    1.451850 S    
C5    H1    1.083516 S    
C27   N2    1.381798 A    
Cu1   Cu2   2.723745 S    
C17   C19   1.401473 A    
C22   C25   1.407968 A    
C27   I7    2.154333 S    
Cu2   N2    2.046876 S    
C8    C10   1.405286 A    
C21   C26   1.409331 A    
C28   I8    2.154686 S    
O5    Cu1   1.960381 S    
O6    C4    1.305464 A    
O3    C2    1.315511 A    
C29   N2    1.381957 A    
C18   C20   1.400722 A    
C11   C17   1.406171 A    
C2    C25   1.484100 S    
C21   I3    2.141458 S    
C12   C18   1.416080 A    
N3    O9    1.297222 A    
C22   I4    2.136098 S    
N4    O12   1.301200 A    
C18   I2    2.136881 S    
C10   N4    1.431239 S    
O2    C2    1.311137 A    
C19   N5    1.433541 S    
O1    C1    1.312512 A    
C12   C14   1.416556 A    
C6    C8    1.388054 A    
N4    O11   1.298079 A    
C21   C23   1.396793 A    
C17   I1    2.125950 S    
C27   C30   1.432276 A    
C22   C24   1.395630 A    
O8    C3    1.303302 A    
N5    O14   1.301168 A    
C11   C13   1.410309 A    
O4    Cu2   1.988644 S    
O2    Cu2   1.991956 S    
O7    C4    1.304441 A    
C24   I6    2.131828 S    
C5    C15   1.399353 A    
O1    Cu1   1.991957 S    
C30   N1    1.381606 A    
C10   C12   1.412881 A    
C24   C26   1.409661 A    
Cu1   N1    2.046875 S    
C13   C15   1.407932 A    
C30   I10   2.154452 S    
N6    O15   1.301069 A    
C23   C25   1.413222 A    
C16   C19   1.409346 A    
C23   I5    2.134747 S    
O8    Cu2   1.958782 S    
N3    O10   1.301305 A    
C15   C20   1.401586 A    
C5    C7    1.388380 A    
O7    Cu1   1.958782 S    
C6    H2    1.082676 S    
C28   C29   1.432143 A    
C29   I9    2.154365 S    
O6    Cu2   1.960381 S    
C7    C9    1.404279 A    
C1    C26   1.483437 S    
C20   N6    1.425196 S    
C28   N1    1.381495 A    
C14   C16   1.413794 A    
N5    O13   1.301007 A    
N6    O16   1.301272 A    
O4    C1    1.313249 A    
C9    C11   1.410694 A    
C6    C16   1.396587 A    
O3    Cu1   1.988643 S    
