data_mof_unit_37952.cif
_audit_creation_date              2012-12-10T16:52:04-0500
_audit_creation_method            fapswitch 2.2
_symmetry_space_group_name_H-M    P1
_symmetry_Int_Tables_number       1
_space_group_crystal_system       triclinic
_cell_length_a                    7.90424
_cell_length_b                    8.604689
_cell_length_c                    14.951207
_cell_angle_alpha                 92.912368
_cell_angle_beta                  85.961313
_cell_angle_gamma                 93.645193
_cell_volume                      1011.21003566

loop_
_atom_site_label
_atom_site_type_symbol
_atom_type_description
_atom_site_fract_x
_atom_site_fract_y
_atom_site_fract_z
_atom_type_partial_charge
C1    C     C_R   0.544875 0.793768 0.495440 0.924120
C2    C     C_R   0.579433 0.640537 0.815571 0.472025
C3    C     C_R   0.495606 0.486316 0.231432 -0.203895
C4    C     C_R   0.505520 0.511927 0.767956 -0.178197
C5    C     C_R   0.602205 0.593622 0.186464 -0.259077
C6    C     C_R   0.426250 0.386130 0.810499 -0.253786
C7    C     C_R   0.596512 0.606377 0.094950 -0.024839
C8    C     C_R   0.410727 0.383318 0.903221 0.014538
C9    C     C_R   0.492877 0.497206 0.046452 -0.131088
C10   C     C_R   0.491941 0.506883 0.953351 -0.115236
C11   C     C_R   0.405121 0.369570 0.090292 -0.092520
C12   C     C_R   0.455016 0.206153 0.504361 0.905290
C13   C     C_R   0.582334 0.634466 0.909567 -0.141154
C14   C     C_R   0.694017 0.726465 0.051753 0.430780
C15   C     C_R   0.332488 0.250446 0.945030 0.381947
C16   C     C_3   0.420342 0.154059 0.269380 0.167782
C17   C     C_3   0.335139 0.993287 0.286326 -0.817396
C18   C     C_3   0.548037 0.856172 0.735317 0.088336
C19   C     C_3   0.640911 0.006058 0.704020 -0.767685
C20   C     C_3   0.746906 0.931381 0.153978 -0.431638
C21   C     C_3   0.144710 0.127607 0.846946 -0.402228
C22   C     C_3   0.656019 0.007544 0.947106 0.148929
C23   C     C_R   0.677465 0.747886 0.960815 0.389894
C24   C     C_3   0.759488 0.162819 0.947217 -0.886876
C25   C     C_3   0.173330 0.005939 0.064228 0.230951
C26   C     C_3   0.217602 0.843784 0.027270 -0.770213
C27   C     C_3   0.942424 0.248578 0.382741 -0.134837
C28   C     C_3   0.055271 0.753082 0.616051 -0.123596
C29   C     C_R   0.335724 0.241014 0.039174 0.359662
C30   C     C_2   0.567574 0.957186 0.491732 -0.397821
C31   C     C_2   0.431560 0.042385 0.504419 -0.383428
C32   C     C_R   0.502941 0.505547 0.672375 0.859865
C33   C     C_R   0.497513 0.495532 0.327400 0.845888
C34   C     C_R   0.402475 0.367304 0.184899 0.491880
H1    H     H_    0.684647 0.671319 0.225321 0.203484
H2    H     H_    0.442711 0.884793 0.785572 0.145157
H3    H     H_    0.489917 0.798350 0.676475 0.130101
H4    H     H_    0.735413 0.979514 0.647831 0.239650
H5    H     H_    0.548804 0.085567 0.681723 0.203735
H6    H     H_    0.709792 0.065802 0.758647 0.258795
H7    H     H_    0.803103 0.929760 0.219861 0.179303
H8    H     H_    0.606541 0.915469 0.165433 0.180721
H9    H     H_    0.780956 0.048006 0.127607 0.190921
H10   H     H_    0.173998 0.099517 0.774473 0.178766
H11   H     H_    0.090347 0.244307 0.854431 0.175821
H12   H     H_    0.380461 0.289024 0.768657 0.182201
H13   H     H_    0.048328 0.036301 0.869178 0.258136
H14   H     H_    0.587423 0.999860 0.013972 0.178603
H15   H     H_    0.560243 0.010938 0.898081 0.210349
H16   H     H_    0.681139 0.255829 0.976991 0.231530
H17   H     H_    0.867672 0.161622 0.989254 0.239327
H18   H     H_    0.802742 0.194675 0.878382 0.240899
H19   H     H_    0.088727 0.056676 0.020184 0.160970
H20   H     H_    0.100283 0.994597 0.129788 0.183662
H21   H     H_    0.285909 0.784883 0.077016 0.221057
H22   H     H_    0.100961 0.771666 0.012318 0.267288
H23   H     H_    0.696398 0.007051 0.480746 0.165207
H24   H     H_    0.299782 0.851593 0.964284 0.248003
H25   H     H_    0.816279 0.267382 0.359294 0.166015
H26   H     H_    0.932734 0.171700 0.440621 0.117041
H27   H     H_    0.012818 0.187631 0.326228 0.171773
H28   H     H_    0.069193 0.826570 0.556654 0.114676
H29   H     H_    0.179474 0.735587 0.642424 0.163076
H30   H     H_    0.980378 0.817175 0.669753 0.179225
H31   H     H_    0.302634 0.992573 0.514991 0.168827
H32   H     H_    0.455011 0.205292 0.334694 0.130989
H33   H     H_    0.540067 0.141327 0.227195 0.103307
H34   H     H_    0.303124 0.930985 0.222820 0.264433
H35   H     H_    0.423781 0.922012 0.318534 0.204340
H36   H     H_    0.218469 0.003120 0.331453 0.240869
N1    N     N_2   0.950330 0.457950 0.475660 0.186242
N2    N     N_2   0.049670 0.542050 0.524340 0.184972
O1    O     O_R   0.389250 0.738570 0.505970 -0.653961
O2    O     O_3   0.665626 0.761343 0.769975 -0.571484
O3    O     O_3   0.818641 0.815866 0.095241 -0.605904
O4    O     O_3   0.292468 0.115585 0.893575 -0.649924
O5    O     O_3   0.757970 0.879943 0.923571 -0.571567
O6    O     O_3   0.324370 0.097057 0.078441 -0.639085
O7    O     O_3   0.032905 0.389473 0.403854 -0.497368
O8    O     O_3   0.966759 0.610746 0.595973 -0.502212
O9    O     O_R   0.610750 0.261430 0.494030 -0.653986
O10   O     O_R   0.678390 0.711620 0.490370 -0.598676
O11   O     O_R   0.321610 0.288380 0.509630 -0.599620
O12   O     O_R   0.355420 0.513510 0.639950 -0.648176
O13   O     O_R   0.644580 0.486490 0.360050 -0.647315
O14   O     O_R   0.644560 0.486560 0.624350 -0.542986
O15   O     O_R   0.355440 0.513440 0.375650 -0.542383
O16   O     O_3   0.308650 0.249991 0.230661 -0.589096
Zn1   Zn    Zn3+2 0.306940 0.517990 0.510420 1.024037
Zn2   Zn    Zn3+2 0.693060 0.482010 0.489580 1.023857

loop_
_geom_bond_atom_site_label_1
_geom_bond_atom_site_label_2
_ccdc_geom_bond_type
C24   H18   S    
C22   H14   S    
C17   H35   S    
C26   H21   S    
N1    O7    S    
C20   H7    S    
C21   O4    S    
C18   H3    S    
C25   H19   S    
C27   O7    S    
C27   H26   S    
C30   C31   D    
C3    C33   S    
C30   H23   S    
C13   C23   A    
C31   H31   S    
C18   C19   S    
C2    C13   A    
C33   O13   A    
C27   H27   S    
C7    C14   A    
C29   O6    S    
C16   C17   S    
C9    C10   A    
C2    O2    S    
C24   H17   S    
C15   O4    S    
C17   H36   S    
C18   O2    S    
O11   Zn1   S    
C25   C26   S    
C15   C29   A    
C21   H11   S    
C24   H16   S    
C32   O12   A    
C25   O6    S    
C25   H20   S    
C4    C6    A    
O14   Zn2   S    
C5    C7    A    
C6    C8    A    
C3    C34   A    
C1    O10   A    
C12   O11   A    
C14   C23   A    
C2    C4    A    
C19   H4    S    
C21   H10   S    
C26   H24   S    
C32   O14   A    
C16   H33   S    
C34   O16   S    
C23   O5    S    
C9    C11   A    
C11   C29   A    
C4    C32   S    
C19   H5    S    
C22   H15   S    
O9    Zn2   S    
C28   H30   S    
C8    C15   A    
O15   Zn1   S    
C12   C31   S    
C22   C24   S    
C16   H32   S    
O12   Zn1   S    
C20   H9    S    
C7    C9    A    
C17   H34   S    
C6    H12   S    
C11   C34   A    
C22   O5    S    
C3    C5    A    
C10   C13   A    
C26   H22   S    
C20   H8    S    
O13   Zn2   S    
O10   Zn2   S    
C1    O1    A    
C14   O3    S    
C33   O15   A    
O1    Zn1   S    
N1    N2    D    
N2    O8    S    
C27   H25   S    
N2    Zn1   S    
N1    Zn2   S    
C5    H1    S    
C1    C30   S    
C12   O9    A    
C28   O8    S    
C19   H6    S    
C28   H29   S    
C20   O3    S    
C8    C10   A    
C16   O16   S    
C18   H2    S    
C21   H13   S    
C28   H28   S    
