data_mof_unit_26011.cif
_audit_creation_date              2012-12-10T16:48:44-0500
_audit_creation_method            fapswitch 2.2
_symmetry_space_group_name_H-M    P1
_symmetry_Int_Tables_number       1
_space_group_crystal_system       triclinic
_cell_length_a                    7.797466
_cell_length_b                    8.589516
_cell_length_c                    10.577816
_cell_angle_alpha                 88.472145
_cell_angle_beta                  97.99302
_cell_angle_gamma                 93.397232
_cell_volume                      700.227408834

loop_
_atom_site_label
_atom_site_type_symbol
_atom_type_description
_atom_site_fract_x
_atom_site_fract_y
_atom_site_fract_z
_atom_type_partial_charge
C1    C     C_R   0.544576 0.794735 0.496709 0.963036
C2    C     C_2   0.431789 0.041905 0.504744 -0.395743
C3    C     C_3   0.135958 0.361405 0.105373 0.105375
C4    C     C_3   0.204816 0.200727 0.145263 -0.420089
C5    C     C_3   0.080207 0.103925 0.219224 -0.927024
C6    C     C_3   0.694979 0.246082 0.905033 0.058713
C7    C     C_3   0.529471 0.169669 0.947217 -0.355365
C8    C     C_3   0.505664 0.998671 0.910745 -0.996226
C9    C     C_R   0.455385 0.205290 0.503228 0.967722
C10   C     C_R   0.571161 0.495435 0.736857 0.765248
C11   C     C_R   0.428750 0.506537 0.262308 0.759525
C12   C     C_2   0.609417 0.500839 0.875135 0.360853
C13   C     C_2   0.395893 0.523415 0.122705 0.329215
C14   C     C_2   0.521039 0.601034 0.932166 -0.205719
C15   C     C_2   0.524585 0.597984 0.068920 -0.178842
C16   C     C_2   0.568006 0.958165 0.494837 -0.396693
H1    H     H_    0.641244 0.647702 0.125409 0.149680
H2    H     H_    0.130213 0.986411 0.241120 0.270019
H3    H     H_    0.949689 0.090163 0.162134 0.258156
H4    H     H_    0.805130 0.178969 0.950157 0.155796
H5    H     H_    0.694791 0.234548 0.800641 0.148330
H6    H     H_    0.538308 0.178086 0.052528 0.232921
H7    H     H_    0.414838 0.231248 0.901579 0.242418
H8    H     H_    0.494382 0.987449 0.805454 0.271627
H9    H     H_    0.385435 0.946365 0.943516 0.269223
H10   H     H_    0.617619 0.933998 0.956958 0.269160
H11   H     H_    0.985223 0.384358 0.406272 0.181278
H12   H     H_    0.426939 0.673366 0.876898 0.159396
H13   H     H_    0.014714 0.616123 0.593534 0.196527
H14   H     H_    0.696821 0.009077 0.485453 0.183151
H15   H     H_    0.302944 0.991023 0.514047 0.185245
H16   H     H_    0.020806 0.340340 0.034248 0.211836
H17   H     H_    0.085994 0.421577 0.182764 0.166251
H18   H     H_    0.219828 0.136510 0.058212 0.229922
H19   H     H_    0.332932 0.212537 0.205561 0.213215
H20   H     H_    0.069412 0.160351 0.310623 0.263441
N1    N     N_2   0.940600 0.458860 0.467170 -0.171692
N2    N     N_2   0.059400 0.541140 0.532830 -0.166532
O1    O     O_R   0.391630 0.738350 0.508060 -0.608286
O2    O     O_3   0.723054 0.402540 0.946772 -0.657539
O3    O     O_R   0.608370 0.261650 0.491940 -0.610352
O4    O     O_R   0.674540 0.711990 0.487010 -0.624938
O5    O     O_R   0.325460 0.288010 0.512990 -0.620206
O6    O     O_R   0.411370 0.508250 0.688780 -0.615419
O7    O     O_R   0.588630 0.491750 0.311220 -0.617452
O8    O     O_R   0.694270 0.481880 0.667740 -0.606810
O9    O     O_R   0.305730 0.518120 0.332260 -0.619237
O10   O     O_3   0.253366 0.457006 0.042937 -0.649331
Zn1   Zn    Zn3+2 0.311100 0.517600 0.514050 0.938445
Zn2   Zn    Zn3+2 0.688900 0.482400 0.485950 0.937770

loop_
_geom_bond_atom_site_label_1
_geom_bond_atom_site_label_2
_ccdc_geom_bond_type
H13   N2    S    
C10   O8    A    
C13   O10   S    
C2    H15   S    
C1    O4    A    
C12   O2    S    
C6    C7    S    
C8    H9    S    
C2    C16   D    
C7    H6    S    
C6    H4    S    
O8    Zn2   S    
C9    O3    A    
C10   O6    A    
C14   H12   S    
C4    H19   S    
C1    C16   S    
C7    C8    S    
O9    Zn1   S    
N2    Zn1   S    
N1    Zn2   S    
C11   C13   S    
N1    N2    D    
C10   C12   S    
O7    Zn2   S    
H11   N1    S    
C7    H7    S    
O1    Zn1   S    
O4    Zn2   S    
C5    H3    S    
C4    H18   S    
C13   C15   D    
C3    H16   S    
C6    O2    S    
C11   O7    A    
C9    O5    A    
C1    O1    A    
C16   H14   S    
C3    C4    S    
C5    H20   S    
C3    O10   S    
C2    C9    S    
C8    H10   S    
C15   H1    S    
O3    Zn2   S    
C3    H17   S    
C14   C15   S    
O5    Zn1   S    
C5    H2    S    
C8    H8    S    
C6    H5    S    
C11   O9    A    
O6    Zn1   S    
C12   C14   D    
C4    C5    S    
