data_mof_unit_16998.cif
_audit_creation_date              2012-12-10T17:08:44-0500
_audit_creation_method            fapswitch 2.2
_symmetry_space_group_name_H-M    P1
_symmetry_Int_Tables_number       1
_space_group_crystal_system       triclinic
_cell_length_a                    27.463794
_cell_length_b                    10.717131
_cell_length_c                    9.95005
_cell_angle_alpha                 108.931746
_cell_angle_beta                  100.264172
_cell_angle_gamma                 91.222411
_cell_volume                      2716.00182461

loop_
_atom_site_label
_atom_site_type_symbol
_atom_type_description
_atom_site_fract_x
_atom_site_fract_y
_atom_site_fract_z
_atom_type_partial_charge
C1    C     C_R   0.496005 0.253015 0.443705 0.759507
C2    C     C_R   0.500647 0.746710 0.555446 0.765314
C3    C     C_R   0.097764 0.555230 0.464449 -0.206893
C4    C     C_R   0.902227 0.449735 0.523637 -0.209752
C5    C     C_R   0.114211 0.487973 0.335742 -0.109836
C6    C     C_R   0.886610 0.512571 0.654864 -0.109172
C7    C     C_R   0.079192 0.413816 0.211466 0.410454
C8    C     C_R   0.922331 0.582708 0.779289 0.414123
C9    C     C_R   0.130221 0.653891 0.575326 -0.096876
C10   C     C_R   0.868996 0.355527 0.410087 -0.089698
C11   C     C_R   0.353328 0.498954 0.495744 -0.166087
C12   C     C_R   0.646820 0.503460 0.504633 -0.180905
C13   C     C_R   0.967370 0.404267 0.379907 0.056863
C14   C     C_R   0.032149 0.603037 0.605959 0.058708
C15   C     C_R   0.985231 0.563359 0.627898 0.001630
C16   C     C_R   0.014870 0.440917 0.359185 -0.005344
C17   C     C_R   0.951465 0.474392 0.509459 -0.049138
C18   C     C_R   0.048287 0.531880 0.477144 -0.048926
C19   C     C_R   0.937749 0.288936 0.284541 0.349457
C20   C     C_R   0.061345 0.719525 0.701525 0.352791
C21   C     C_R   0.886973 0.272053 0.290996 0.355811
C22   C     C_R   0.110778 0.744474 0.686644 0.362801
C23   C     C_R   0.407217 0.497952 0.498228 0.932652
C24   C     C_R   0.592823 0.502475 0.501889 0.892493
C25   C     C_R   0.028817 0.400249 0.221456 0.343908
C26   C     C_R   0.972378 0.598023 0.766812 0.337431
C27   C     C_2   0.493932 0.110044 0.422583 0.199838
C28   C     C_2   0.494885 0.888164 0.572521 0.202218
C29   C     C_2   0.458333 0.055403 0.469208 0.388161
C30   C     C_2   0.460084 0.919803 0.475499 0.344726
C31   C     C_2   0.504149 0.513206 0.081669 0.530929
C32   C     C_2   0.496947 0.487101 0.920939 0.516404
C33   C     C_R   0.165435 0.503074 0.335503 0.710955
C34   C     C_R   0.835538 0.497164 0.657060 0.704735
C35   C     C_R   0.180610 0.663372 0.563719 0.711773
C36   C     C_R   0.818891 0.345456 0.423541 0.709043
C37   C     C_R   0.285943 0.593794 0.614912 0.434406
C38   C     C_R   0.714325 0.418395 0.380755 0.429775
C39   C     C_R   0.336869 0.583474 0.615168 -0.320908
C40   C     C_R   0.663404 0.426380 0.381516 -0.345620
C41   C     C_R   0.318315 0.409928 0.382681 0.283006
C42   C     C_R   0.681808 0.588148 0.621856 0.256706
C43   C     C_R   0.266948 0.417965 0.384442 0.368887
C44   C     C_R   0.733228 0.582229 0.619399 0.371089
C45   C     C_R   0.250654 0.529519 0.484966 0.148360
C46   C     C_R   0.749594 0.476124 0.512317 0.144501
Cu1   Cu    Cu3+1 0.508480 0.521810 0.644910 1.095059
Cu2   Cu    Cu3+1 0.491520 0.478190 0.355090 1.108638
H1    H     H_    0.636581 0.373522 0.284071 0.195766
H2    H     H_    0.363806 0.640600 0.710444 0.199110
N1    N     N_R   0.198463 0.563030 0.463617 -0.469370
N2    N     N_R   0.801796 0.442212 0.529221 -0.470136
N3    N     N_2   0.478780 0.445430 0.137360 -0.068349
N4    N     N_2   0.521220 0.554570 0.862640 -0.068354
O1    O     O_R   0.504520 0.332330 0.577400 -0.531587
O2    O     O_R   0.495480 0.667670 0.422600 -0.512535
O3    O     O_R   0.490210 0.295500 0.332650 -0.571760
O4    O     O_R   0.509790 0.704500 0.667350 -0.584611
O5    O     O_R   0.437420 0.518430 0.622370 -0.554785
O6    O     O_R   0.562580 0.481570 0.377630 -0.560520
O7    O     O_R   0.423110 0.481600 0.377610 -0.536425
O8    O     O_R   0.576890 0.518400 0.622390 -0.545178
O9    O     O_2   0.181456 0.467038 0.208960 -0.370798
O10   O     O_2   0.820451 0.527318 0.784724 -0.377028
O11   O     O_2   0.789416 0.235064 0.342117 -0.386923
O12   O     O_2   0.209663 0.775468 0.641203 -0.373869
Cl1   Cl    Cl    0.338412 0.284502 0.243018 -0.487275
Cl2   Cl    Cl    0.661634 0.706182 0.767829 -0.543574
O13   O     O_3   0.526291 0.987559 0.679496 -0.685164
H3    H     H_    0.550059 0.945721 0.735533 0.356779
O14   O     O_3   0.531246 0.035307 0.371088 -0.675176
H4    H     H_    0.554618 0.093111 0.347313 0.336840
Cl3   Cl    Cl    0.458211 0.347403 0.803527 -0.441222
Cl4   Cl    Cl    0.552675 0.629657 0.199810 -0.464840
O15   O     O_3   0.547512 0.668039 0.948027 -0.562356
H5    H     H_    0.564241 0.699493 0.883513 0.406763
O16   O     O_3   0.434286 0.386061 0.061242 -0.549567
H6    H     H_    0.421297 0.343233 0.123321 0.415021
O17   O     O_3   0.232632 0.312675 0.301643 -0.641067
H7    H     H_    0.249538 0.232730 0.260104 0.396842
O18   O     O_3   0.767408 0.685750 0.707912 -0.643949
H8    H     H_    0.750412 0.763659 0.755138 0.390714
O19   O     O_3   0.094596 0.358844 0.081402 -0.605538
H9    H     H_    0.069257 0.288898 0.014224 0.373210
O20   O     O_3   0.907954 0.632077 0.911628 -0.607680
H10   H     H_    0.933818 0.699550 0.980490 0.372228
O21   O     O_3   0.729828 0.369273 0.250191 -0.633505
H11   H     H_    0.700580 0.336618 0.169881 0.355114
O22   O     O_3   0.270504 0.651752 0.744205 -0.624282
H12   H     H_    0.299780 0.688123 0.823696 0.365840
O23   O     O_3   0.854654 0.176878 0.181557 -0.631810
H13   H     H_    0.867947 0.155171 0.091112 0.357903
O24   O     O_3   0.140143 0.856354 0.778135 -0.625636
H14   H     H_    0.119256 0.932018 0.796323 0.347223
O25   O     O_3   0.960452 0.188250 0.197813 -0.681618
H15   H     H_    0.940577 0.102913 0.173686 0.352349
O26   O     O_3   0.039432 0.812726 0.799285 -0.690611
H16   H     H_    0.064955 0.859389 0.886441 0.369390
Cl5   Cl    Cl    0.983334 0.367331 0.060293 -0.481029
Cl6   Cl    Cl    0.018971 0.621809 0.923656 -0.500865
Cl7   Cl    Cl    0.411706 0.803489 0.355908 -0.500915
Cl8   Cl    Cl    0.403190 0.133035 0.497952 -0.445182

loop_
_geom_bond_atom_site_label_1
_geom_bond_atom_site_label_2
_ccdc_geom_bond_type
C7    O19   S    
O21   H11   S    
O24   H14   S    
C27   C29   D    
C8    C26   A    
C14   C18   A    
O25   H15   S    
Cu1   O8    S    
O26   H16   S    
C19   O25   S    
Cu2   O3    S    
C41   Cl1   S    
O20   H10   S    
C23   O5    A    
O19   H9    S    
C19   C21   A    
C9    C22   A    
C45   N1    S    
C43   O17   S    
C40   H1    S    
C46   N2    S    
C3    C18   A    
C15   C17   A    
C8    O20   S    
C12   C42   A    
C25   Cl5   S    
C20   O26   S    
C28   O13   S    
C5    C33   A    
C36   N2    A    
C24   O6    A    
C1    C27   S    
C42   Cl2   S    
C41   C43   A    
C42   C44   A    
C32   N4    D    
C44   C46   A    
Cu2   O6    S    
C10   C21   A    
Cu2   N3    S    
C13   C19   A    
C14   C20   A    
C4    C6    A    
C44   O18   S    
O23   H13   S    
C5    C7    A    
C36   O11   S    
C15   C26   A    
C6    C8    A    
C35   O12   S    
O16   H6    S    
O18   H8    S    
C6    C34   A    
C12   C40   A    
N3    O16   S    
O15   H5    S    
C29   C30   S    
C3    C9    A    
C1    O3    A    
Cu1   Cu2   S    
C33   O9    S    
C34   O10   S    
C31   N3    D    
C11   C39   A    
C43   C45   A    
Cu1   N4    S    
C4    C17   A    
C20   C22   A    
C35   N1    A    
C22   O24   S    
C37   C45   A    
C32   Cl3   S    
C27   O14   S    
Cu1   O1    S    
C21   O23   S    
C16   C25   A    
Cu2   O2    S    
C24   O8    A    
C31   C32   S    
C3    C5    A    
C10   C36   A    
C2    O4    A    
C37   O22   S    
C33   N1    A    
C12   C24   S    
C34   N2    A    
C7    C25   A    
C13   C17   A    
C38   O21   S    
C28   C30   D    
C1    O1    A    
O14   H4    S    
C37   C39   A    
C2    O2    A    
Cu1   O4    S    
C38   C40   A    
Cu2   O7    S    
C30   Cl7   S    
C11   C23   S    
C29   Cl8   S    
C11   C41   A    
O13   H3    S    
C31   Cl4   S    
C38   C46   A    
Cu1   O5    S    
O17   H7    S    
C23   O7    A    
C39   H2    S    
C16   C18   A    
C13   C16   A    
C9    C35   A    
C14   C15   A    
C2    C28   S    
O22   H12   S    
C4    C10   A    
C26   Cl6   S    
N4    O15   S    
