data_mof_unit_10140.cif
_audit_creation_date              2012-10-26T19:40:09-0400
_audit_creation_method            fapswitch 2.2
_symmetry_space_group_name_H-M    P1
_symmetry_Int_Tables_number       1
_space_group_crystal_system       triclinic
_cell_length_a                    14.999677
_cell_length_b                    8.729532
_cell_length_c                    7.444236
_cell_angle_alpha                 102.290758
_cell_angle_beta                  93.912189
_cell_angle_gamma                 92.571665
_cell_volume                      948.423518895

loop_
_atom_site_label
_atom_site_type_symbol
_atom_type_description
_atom_site_fract_x
_atom_site_fract_y
_atom_site_fract_z
_atom_type_partial_charge
C1    C     C_R   0.494638 0.200718 0.455198 0.538705
C2    C     C_R   0.181103 0.373831 0.407063 -0.139749
C3    C     C_R   0.766894 0.496146 0.491308 -0.008733
C4    C     C_R   0.233106 0.503854 0.508694 -0.008733
C5    C     C_R   0.806582 0.364331 0.392446 -0.026733
C6    C     C_R   0.193419 0.635673 0.607544 -0.026733
C7    C     C_R   0.900609 0.365418 0.394249 0.004518
C8    C     C_R   0.099392 0.634583 0.605752 0.004516
C9    C     C_R   0.953010 0.498566 0.497437 0.052018
C10   C     C_R   0.046990 0.501433 0.502571 0.052018
C11   C     C_R   0.911608 0.628721 0.596519 0.014420
C12   C     C_R   0.505365 0.799282 0.544801 0.538708
C13   C     C_R   0.088393 0.371276 0.403493 0.014421
C14   C     C_R   0.943798 0.237010 0.297061 -0.125456
C15   C     C_R   0.056203 0.762991 0.702941 -0.125457
C16   C     C_1   0.750743 0.226353 0.299385 0.211169
C17   C     C_1   0.249258 0.773660 0.700574 0.211168
C18   C     C_1   0.411172 0.956889 0.296208 0.230357
C19   C     C_1   0.588850 0.043105 0.703756 0.230348
C20   C     C_R   0.036679 0.240271 0.301686 -0.127423
C21   C     C_R   0.963322 0.759726 0.698326 -0.127423
C22   C     C_2   0.479759 0.035437 0.437505 -0.056517
C23   C     C_2   0.520249 0.964562 0.562488 -0.056512
C24   C     C_R   0.329269 0.501094 0.502909 0.545101
C25   C     C_R   0.670731 0.498905 0.497091 0.545098
C26   C     C_R   0.818897 0.626164 0.592952 -0.139748
Cu1   Cu    Cu3+1 0.510010 0.517380 0.684380 1.022327
Cu2   Cu    Cu3+1 0.489990 0.482620 0.315620 1.022322
H1    H     H_    0.786634 0.725879 0.669175 0.123924
H2    H     H_    0.213367 0.274113 0.330848 0.123919
H3    H     H_    0.906291 0.133400 0.216455 0.130722
H4    H     H_    0.093711 0.866602 0.783544 0.130721
H5    H     H_    0.068161 0.139934 0.225292 0.119690
H6    H     H_    0.931840 0.860063 0.774723 0.119692
H7    H     H_    0.430609 0.377948 0.948974 0.246574
H8    H     H_    0.569391 0.622052 0.051026 0.246573
N1    N     N_2   0.474890 0.456420 0.038520 -0.242380
N2    N     N_2   0.525110 0.543580 0.961480 -0.242379
N3    N     N_1   0.706146 0.116130 0.226244 -0.274029
N4    N     N_1   0.293856 0.883889 0.773689 -0.274041
N5    N     N_1   0.356417 0.894443 0.184282 -0.249615
N6    N     N_1   0.643619 0.105546 0.815652 -0.249629
O1    O     O_R   0.506510 0.286130 0.619770 -0.508029
O2    O     O_R   0.493490 0.713870 0.380230 -0.508033
O3    O     O_R   0.489600 0.256770 0.308360 -0.483472
O4    O     O_R   0.510400 0.743230 0.691640 -0.483465
O5    O     O_R   0.378710 0.514640 0.655720 -0.499963
O6    O     O_R   0.621290 0.485360 0.344280 -0.499967
O7    O     O_R   0.361800 0.485290 0.344300 -0.497405
O8    O     O_R   0.638200 0.514710 0.655700 -0.497405

loop_
_geom_bond_atom_site_label_1
_geom_bond_atom_site_label_2
_ccdc_geom_bond_type
C19   C23   S    
Cu1   O8    S    
C11   C26   A    
N1    N2    D    
C25   O8    A    
Cu1   O1    S    
C9    C10   A    
C2    C4    A    
C12   C23   S    
C19   N6    T    
C15   C21   A    
C14   H3    S    
C2    H2    S    
H8    N2    S    
C1    C22   S    
C12   O2    A    
C10   C13   A    
C9    C11   A    
C25   O6    A    
C1    O3    A    
Cu2   N1    S    
C20   H5    S    
Cu1   O4    S    
C8    C10   A    
H7    N1    S    
Cu2   O2    S    
C8    C15   A    
C7    C9    A    
C3    C26   A    
C4    C24   S    
Cu2   O3    S    
C4    C6    A    
Cu1   N2    S    
C11   C21   A    
C6    C17   S    
C14   C20   A    
C3    C25   S    
C26   H1    S    
C12   O4    A    
Cu2   O7    S    
C18   N5    T    
Cu1   O5    S    
C24   O7    A    
C5    C7    A    
C2    C13   A    
C22   C23   D    
Cu2   O6    S    
C5    C16   S    
C6    C8    A    
C21   H6    S    
C16   N3    T    
C13   C20   A    
C3    C5    A    
C18   C22   S    
C24   O5    A    
C1    O1    A    
C7    C14   A    
Cu1   Cu2   S    
C17   N4    T    
C15   H4    S    
