data_mof_unit_25005.cif
_audit_creation_date              2012-12-11T19:09:14-0500
_audit_creation_method            fapswitch 2.2
_symmetry_space_group_name_H-M    P1
_symmetry_Int_Tables_number       1
_space_group_crystal_system       triclinic
_cell_length_a                    8.215828
_cell_length_b                    15.051819
_cell_length_c                    26.984726
_cell_angle_alpha                 98.703185
_cell_angle_beta                  92.522714
_cell_angle_gamma                 81.325907
_cell_volume                      3260.09639492

loop_
_atom_site_label
_atom_site_type_symbol
_atom_type_description
_atom_site_fract_x
_atom_site_fract_y
_atom_site_fract_z
_atom_type_partial_charge
Ba1   Ba    Ba6+2 0.860050 0.456430 0.522540 1.661566
Ba2   Ba    Ba6+2 0.329780 0.543490 0.477450 1.671116
C1    C     C_3   0.689420 0.134558 0.648513 -0.367308
C2    C     C_R   0.923801 0.591244 0.181561 0.588464
C3    C     C_2   0.761111 0.563195 0.273871 -0.083138
C4    C     C_3   0.186089 0.255754 0.654753 0.289371
C5    C     C_3   0.736713 0.591814 0.329466 -0.060921
C6    C     C_1   0.985497 0.484728 0.342850 0.040439
C7    C     C_2   0.027515 0.478312 0.294952 -0.086010
C8    C     C_2   0.908158 0.517605 0.256956 0.199549
C9    C     C_R   0.027135 0.506812 0.102012 -0.082308
C10   C     C_R   0.061900 0.428204 0.125350 -0.033667
C11   C     C_R   0.135095 0.347368 0.096871 -0.054413
C12   C     C_3   0.683481 0.226109 0.630660 0.345019
C13   C     C_R   0.958697 0.588822 0.130564 -0.025251
C14   C     C_2   0.847794 0.533347 0.361230 -0.279115
C15   C     C_2   0.353627 0.477217 0.640200 -0.285735
C16   C     C_3   0.153073 0.237623 0.706975 -0.340928
C17   C     C_R   0.189494 0.423251 0.971956 0.048488
C18   C     C_R   0.036176 0.577269 0.973747 -0.022038
C19   C     C_R   0.133139 0.500106 0.947449 -0.009719
C20   C     C_R   0.291348 0.349398 0.944921 -0.092394
C21   C     C_R   0.333150 0.350102 0.895501 -0.049930
C22   C     C_R   0.274335 0.424068 0.870411 -0.001566
C23   C     C_3   0.482229 0.683500 0.631823 0.270293
C24   C     C_R   0.172175 0.499097 0.896134 -0.149333
C25   C     C_R   0.111516 0.573386 0.870813 -0.083721
C26   C     C_R   0.158097 0.571534 0.820297 0.646222
C27   C     C_R   0.316521 0.424162 0.820114 0.574233
C28   C     C_3   0.216478 0.264949 0.412470 0.310534
C29   C     C_2   0.459263 0.480206 0.728568 -0.065351
C30   C     C_3   0.501819 0.485516 0.674910 -0.053207
C31   C     C_1   0.208028 0.516594 0.656545 0.039862
C32   C     C_2   0.167966 0.516301 0.703815 -0.109999
C33   C     C_2   0.299773 0.496256 0.742989 0.188451
C34   C     C_3   0.440337 0.719755 0.686224 -0.362278
C35   C     C_R   0.143229 0.422942 0.022526 0.020301
C36   C     C_R   0.061861 0.503835 0.050155 0.036633
C37   C     C_R   0.016225 0.582335 0.026555 0.057549
C38   C     C_R   0.176144 0.344828 0.046845 -0.098894
C39   C     C_R   0.929835 0.667841 0.107905 -0.081774
C40   C     C_3   0.221293 0.162776 0.399195 -0.374282
C41   C     C_R   0.956082 0.644806 0.945892 0.290841
C42   C     C_R   0.004066 0.646959 0.896213 0.360216
C43   C     C_R   0.959727 0.664877 0.057279 -0.044038
C44   C     C_R   0.349507 0.175546 0.533522 -0.008436
C45   C     C_3   0.944844 0.805264 0.350650 0.656369
C46   C     C_R   0.575529 0.209131 0.488558 0.055839
C47   C     C_R   0.756641 0.771106 0.484273 -0.233034
C48   C     C_R   0.848042 0.830199 0.467018 0.064256
C49   C     C_R   0.791779 0.923612 0.474075 -0.061803
C50   C     C_R   0.640011 0.959014 0.497959 0.044083
C51   C     C_R   0.554803 0.897772 0.518505 -0.023996
C52   C     C_3   0.940162 0.740723 0.598644 0.663617
C53   C     C_R   0.571652 0.053099 0.503231 0.024980
C54   C     C_R   0.420938 0.083467 0.529185 -0.022555
C55   C     C_R   0.344657 0.021560 0.550222 -0.105692
C56   C     C_3   0.989923 0.792656 0.295647 -0.237510
C57   C     C_R   0.411182 0.931161 0.545581 -0.048920
C58   C     C_R   0.644673 0.117688 0.482190 -0.112234
C59   C     C_R   0.431097 0.237812 0.514890 -0.293449
C60   C     C_R   0.616266 0.804179 0.512038 -0.003194
C61   C     C_3   0.851320 0.826494 0.629755 -0.351417
C62   C     C_3   0.694135 0.343148 0.372034 0.298158
C63   C     C_3   0.703615 0.320161 0.315289 -0.352224
C64   C     C_3   0.471428 0.783937 0.365785 0.407904
C65   C     C_3   0.431639 0.872416 0.343627 0.659510
C66   C     C_R   0.021504 0.431994 0.176465 0.597041
H1    H     H_    0.288415 0.138375 0.363777 0.123897
H2    H     H_    0.809889 0.266465 0.304971 0.137945
H3    H     H_    0.570803 0.238038 0.607129 -0.040188
H4    H     H_    0.691853 0.080080 0.615698 0.068719
H5    H     H_    0.586256 0.626847 0.630537 0.029688
H6    H     H_    0.342331 0.779614 0.687980 0.143394
H7    H     H_    0.394852 0.667234 0.704356 0.080354
H8    H     H_    0.551378 0.740202 0.707177 0.123864
H9    H     H_    0.579044 0.134445 0.670819 0.126441
H10   H     H_    0.202295 0.288503 0.735361 0.129469
H11   H     H_    0.879095 0.748061 0.355570 -0.040435
H12   H     H_    0.284583 0.127493 0.429411 0.077959
H13   H     H_    0.062828 0.724520 0.284944 0.111766
H14   H     H_    0.875589 0.799128 0.272220 0.173576
H15   H     H_    0.063464 0.845419 0.288647 0.072369
H16   H     H_    0.606909 0.771263 0.372008 -0.042706
H17   H     H_    0.295948 0.889025 0.338081 -0.006424
H18   H     H_    0.131822 0.326958 0.651854 0.077924
H19   H     H_    0.149936 0.446372 0.283313 0.125812
H20   H     H_    0.162306 0.285316 0.113341 0.124527
H21   H     H_    0.558277 0.469900 0.756030 0.108694
H22   H     H_    0.412726 0.291730 0.876871 0.120719
H23   H     H_    0.093908 0.146018 0.394147 0.127209
H24   H     H_    0.344808 0.290581 0.961469 0.068478
H25   H     H_    0.230193 0.279656 0.027725 0.073158
H26   H     H_    0.669024 0.590943 0.248063 0.116282
H27   H     H_    0.884298 0.732990 0.129391 0.129542
H28   H     H_    0.040259 0.532482 0.714680 0.131214
H29   H     H_    0.944395 0.729285 0.043404 0.144215
H30   H     H_    0.827412 0.545772 0.401304 0.076509
H31   H     H_    0.366984 0.441634 0.602132 0.071472
H32   H     H_    0.377274 0.308574 0.518457 0.069355
H33   H     H_    0.231987 0.041750 0.570725 0.108398
H34   H     H_    0.847074 0.699393 0.581112 0.016480
H35   H     H_    0.753290 0.099095 0.459824 0.089575
H36   H     H_    0.802506 0.699132 0.479620 0.070201
H37   H     H_    0.870080 0.966411 0.461284 0.068447
H38   H     H_    0.018398 0.242953 0.712178 0.146569
H39   H     H_    0.213427 0.168545 0.712457 0.119685
H40   H     H_    0.142399 0.288131 0.446694 0.066453
H41   H     H_    0.794033 0.223414 0.607941 0.106154
H42   H     H_    0.105522 0.805557 0.577548 0.300148
H43   H     H_    0.801998 0.120443 0.672041 0.135431
H44   H     H_    0.719164 0.381337 0.298735 0.066962
H45   H     H_    0.780504 0.807670 0.659693 0.122780
H46   H     H_    0.588317 0.295744 0.299629 0.135897
H47   H     H_    0.372071 0.658383 0.612777 0.056533
H48   H     H_    0.907266 0.937450 0.361911 0.299287
H49   H     H_    0.412603 0.792840 0.402809 0.044447
H50   H     H_    0.464718 0.997862 0.361112 0.318298
H51   H     H_    0.443935 0.831307 0.271971 0.292999
H52   H     H_    0.744484 0.720433 0.938087 0.321958
H53   H     H_    0.321242 0.247063 0.649778 -0.012650
H54   H     H_    0.919601 0.775071 0.897198 0.311526
H55   H     H_    0.345462 0.887956 0.563188 0.099664
H56   H     H_    0.766234 0.866589 0.605599 0.072934
H57   H     H_    0.343251 0.280311 0.419542 0.000947
H58   H     H_    0.941664 0.869845 0.647933 0.095355
H59   H     H_    0.811871 0.364014 0.387154 0.005592
H60   H     H_    0.592718 0.400167 0.381148 0.078642
N1    N     N_R   0.951955 0.513102 0.204244 -0.422351
N2    N     N_R   0.257506 0.497107 0.795305 -0.437369
O1    O     O_2   0.906490 0.548660 0.619040 -0.490528
O2    O     O_2   0.186907 0.823309 0.473298 -0.468278
O3    O     O_3   0.089739 0.804403 0.380387 -0.632944
O4    O     O_3   0.138490 0.548590 0.558860 -0.459269
O5    O     O_3   0.572560 0.389970 0.472910 -0.494855
O6    O     O_2   0.345680 0.723560 0.528460 -0.418455
O7    O     O_3   0.528102 0.754094 0.609750 -0.664081
O8    O     O_2   0.419451 0.535397 0.323633 -0.483006
O9    O     O_3   0.412186 0.712327 0.333541 -0.625548
O10   O     O_2   0.046324 0.362768 0.195844 -0.594134
O11   O     O_2   0.405497 0.358805 0.798341 -0.598856
O12   O     O_3   0.665354 0.266152 0.391704 -0.628973
O13   O     O_2   0.868662 0.663765 0.205892 -0.623220
O14   O     O_2   0.111903 0.636847 0.798690 -0.527765
O15   O     O_3   0.686290 0.382320 0.585720 -0.488936
O16   O     O_2   0.845525 0.428025 0.670917 -0.496003
O17   O     O_3   0.048186 0.693892 0.630608 -0.649882
O18   O     O_3   0.679957 0.294761 0.672256 -0.590563
O19   O     O_2   0.844020 0.276410 0.471510 -0.461604
O20   O     O_3   0.101490 0.335510 0.560360 -0.489345
O21   O     O_2   0.009811 0.175292 0.526249 -0.489902
O22   O     O_3   0.029061 0.764554 0.560885 -0.734772
O23   O     O_3   0.113506 0.194363 0.619398 -0.611385
O24   O     O_3   0.840270 0.887950 0.362523 -0.709801
O25   O     O_3   0.486504 0.942424 0.377471 -0.722175
O26   O     O_3   0.511934 0.863905 0.297865 -0.699282
O27   O     O_3   0.819530 0.702212 0.965721 -0.748177
O28   O     O_3   0.944751 0.720167 0.871876 -0.673326
O29   O     O_2   0.283210 0.451320 0.380930 -0.459514
O30   O     O_3   0.051220 0.451340 0.441130 -0.497945
O31   O     O_3   0.503420 0.617610 0.414270 -0.479529
O32   O     O_3   0.148047 0.305845 0.371684 -0.626192
O33   O     O_3   0.617160 0.609950 0.527080 -0.482666
O34   O     O_3   0.088220 0.664410 0.439630 -0.452047
P1    P     P_3+3 0.071960 0.575810 0.612130 1.013082
P2    P     P_3+3 0.664360 0.290070 0.457280 0.985264
P3    P     P_3+3 0.143763 0.218651 0.559402 0.926605
P4    P     P_3+3 0.117760 0.424110 0.387870 0.993985
P5    P     P_3+3 0.050708 0.782365 0.440241 1.018946
P6    P     P_3+3 0.678775 0.399550 0.651150 0.971672
P7    P     P_3+3 0.530857 0.723652 0.544662 0.936236
P8    P     P_3+3 0.517754 0.610275 0.349358 0.954248

loop_
_geom_bond_atom_site_label_1
_geom_bond_atom_site_label_2
_ccdc_geom_bond_type
C12   H41   S    
C53   C54   A    
C40   H12   S    
H51   O26   S    
C42   O28   S    
C63   H46   S    
Ba1   O15   S    
C45   H11   S    
C38   H25   S    
C19   C24   A    
C2    O13   D    
O17   P1    S    
C61   H56   S    
C51   C57   A    
C54   C55   A    
C60   P7    S    
C10   C66   A    
C24   C25   A    
Ba2   O4    S    
C17   C19   A    
C23   H5    S    
C32   H28   S    
C32   C33   S    
C35   C38   A    
H42   O22   S    
C56   H14   S    
C36   C37   A    
C55   C57   A    
C52   C61   S    
C63   H2    S    
C12   O18   S    
O29   P4    D    
C65   O25   S    
Ba1   Ba2   S    
C12   H3    S    
O3    P5    S    
C16   H39   S    
C11   C38   A    
C6    P4    S    
C22   C27   A    
O31   P8    S    
C9    C13   A    
C25   C42   A    
C64   O9    S    
C29   C30   S    
C1    H43   S    
C6    C7    D    
C62   H60   S    
C64   H49   S    
C34   H8    S    
O18   P6    S    
C21   C22   A    
Ba1   O19   S    
C26   O14   D    
C58   H35   S    
O33   P7    S    
C7    C8    S    
H48   O24   S    
C50   C53   A    
C16   H10   S    
C37   C43   A    
C64   C65   S    
C28   H57   S    
C6    C14   D    
C53   C58   A    
O23   P3    S    
O34   P5    S    
C15   C31   D    
C47   H36   S    
Ba2   O31   S    
C46   C58   A    
Ba1   O20   S    
C57   H55   S    
C4    C16   S    
C65   H17   S    
C44   P3    S    
C44   C59   A    
O8    P8    D    
C49   C50   A    
C4    O23   S    
H50   O25   S    
C17   C20   A    
C13   C39   A    
C56   H13   S    
Ba2   O34   S    
C3    C5    S    
C18   C37   A    
Ba2   O29   S    
C52   O22   S    
C41   O27   S    
C40   H1    S    
Ba2   O6    S    
C65   O26   S    
C9    C36   A    
C23   O7    S    
C41   C42   A    
C16   H38   S    
C63   H44   S    
C35   C36   A    
C34   H7    S    
O12   P2    S    
C51   C60   A    
C27   N2    Am   
O6    P7    D    
Ba1   P1    S    
C49   H37   S    
C62   H59   S    
C27   O11   D    
C5    P8    S    
C48   C49   A    
H54   O28   S    
O4    P1    S    
O9    P8    S    
C3    H26   S    
C18   C19   A    
C15   H31   S    
C33   N2    S    
O1    P1    D    
C1    C12   S    
C34   H6    S    
O32   P4    S    
C5    C14   S    
O16   P6    D    
H52   O27   S    
C29   C33   D    
C66   O10   D    
C59   H32   S    
C17   C35   A    
O2    P5    D    
C28   O32   S    
Ba1   O4    S    
C1    H9    S    
Ba2   P4    S    
C18   C41   A    
C50   C51   A    
C30   P6    S    
O15   P6    S    
C39   C43   A    
C47   C60   A    
C28   H40   S    
C52   H34   S    
Ba1   O30   S    
C31   P1    S    
O19   P2    D    
C22   C24   A    
Ba1   O1    S    
Ba2   O33   S    
C9    C10   A    
C2    N1    Am   
C45   O24   S    
C29   H21   S    
C55   H33   S    
Ba2   O5    S    
C4    H18   S    
C62   C63   S    
C2    C13   A    
C23   H47   S    
C1    H4    S    
C8    N1    S    
C3    C8    D    
C43   H29   S    
C56   H15   S    
C7    H19   S    
C45   C56   S    
C21   H22   S    
C14   H30   S    
C46   C59   A    
C39   H27   S    
C62   O12   S    
Ba1   P2    S    
O21   P3    D    
O20   P3    S    
C11   H20   S    
O5    P2    S    
C31   C32   D    
C48   P5    S    
C26   N2    Am   
O30   P4    S    
C66   N1    Am   
O7    P7    S    
C61   H58   S    
C23   C34   S    
C64   H16   S    
C61   H45   S    
C46   P2    S    
C10   C11   A    
Ba1   O33   S    
Ba2   O30   S    
C47   C48   A    
C44   C54   A    
C25   C26   A    
C15   C30   S    
C20   H24   S    
C20   C21   A    
C28   C40   S    
C4    H53   S    
Ba1   O5    S    
C45   O3    S    
C40   H23   S    
C52   O17   S    
