data_mof_unit_45059.cif
_audit_creation_date              2012-10-26T19:07:21-0400
_audit_creation_method            fapswitch 2.2
_symmetry_space_group_name_H-M    P1
_symmetry_Int_Tables_number       1
_space_group_crystal_system       triclinic
_cell_length_a                    15.016907
_cell_length_b                    13.880494
_cell_length_c                    10.642097
_cell_angle_alpha                 89.02773
_cell_angle_beta                  88.198898
_cell_angle_gamma                 89.843404
_cell_volume                      2216.8404081

loop_
_atom_site_label
_atom_site_type_symbol
_atom_type_description
_atom_site_fract_x
_atom_site_fract_y
_atom_site_fract_z
_atom_type_partial_charge
C1    C     C_R   0.329100 0.500235 0.504261 0.529031
C2    C     C_R   0.961552 0.608824 0.315734 -0.085687
C3    C     C_R   0.431938 0.793525 0.560299 0.358874
C4    C     C_R   0.568054 0.206480 0.439684 0.358859
C5    C     C_R   0.568083 0.794830 0.440029 0.374464
C6    C     C_R   0.431907 0.205174 0.559942 0.374450
C7    C     C_R   0.570605 0.897508 0.440977 0.031573
C8    C     C_R   0.429374 0.102497 0.558958 0.031497
C9    C     C_R   0.429833 0.896322 0.560313 0.024145
C10   C     C_R   0.570149 0.103684 0.439632 0.024117
C11   C     C_R   0.499842 0.948504 0.499676 -0.150327
C12   C     C_R   0.670900 0.499766 0.495744 0.529010
C13   C     C_R   0.500140 0.051501 0.500266 -0.150317
C14   C     C_R   0.642211 0.950020 0.383267 0.242559
C15   C     C_R   0.357749 0.049991 0.616609 0.242469
C16   C     C_R   0.360763 0.947775 0.623901 0.240099
C17   C     C_R   0.639196 0.052238 0.375991 0.240064
C18   C     C_R   0.495788 0.500996 0.260364 0.556755
C19   C     C_R   0.504209 0.499004 0.739637 0.556739
C20   C     C_3   0.484551 0.592122 0.034950 -0.043615
C21   C     C_3   0.515448 0.407887 0.965055 -0.043622
C22   C     C_3   0.568135 0.557393 0.959156 -0.055815
C23   C     C_R   0.953263 0.499706 0.497542 0.011391
C24   C     C_3   0.431865 0.442615 0.040849 -0.055817
C25   C     C_3   0.425993 0.530683 0.951506 0.205371
C26   C     C_3   0.574006 0.469328 0.048499 0.205354
C27   C     C_3   0.508375 0.496543 0.875583 0.000055
C28   C     C_3   0.491625 0.503464 0.124420 0.000052
C29   C     C_R   0.816925 0.552349 0.398153 0.253658
C30   C     C_R   0.183077 0.447657 0.601867 0.253689
C31   C     C_R   0.767594 0.498586 0.490491 0.004046
C32   C     C_R   0.232406 0.501421 0.509528 0.004042
C33   C     C_R   0.810724 0.443614 0.581515 -0.160099
C34   C     C_R   0.046737 0.500321 0.502498 0.011386
C35   C     C_R   0.189275 0.556411 0.418524 -0.160111
C36   C     C_R   0.903108 0.444016 0.586118 0.000793
C37   C     C_R   0.096891 0.556014 0.413925 0.000771
C38   C     C_R   0.456148 0.694113 0.063256 0.043762
C39   C     C_R   0.485999 0.770967 0.985364 -0.066371
C40   C     C_R   0.458208 0.865155 0.009731 -0.099867
C41   C     C_R   0.399671 0.883456 0.111205 -0.102866
C42   C     C_R   0.366897 0.807129 0.186256 -0.107085
C43   C     C_R   0.393593 0.712664 0.160918 -0.073013
C44   C     C_R   0.543877 0.305899 0.936805 0.043729
C45   C     C_R   0.910186 0.554327 0.403640 0.061124
C46   C     C_R   0.514107 0.229075 0.014806 -0.066337
C47   C     C_R   0.541991 0.134896 0.990570 -0.099863
C48   C     C_R   0.600531 0.116578 0.889112 -0.102868
C49   C     C_R   0.633214 0.192880 0.813934 -0.107114
C50   C     C_R   0.606428 0.287337 0.839144 -0.073104
C51   C     C_R   0.651665 0.613838 0.927320 0.014904
C52   C     C_R   0.686505 0.675411 0.016813 -0.053788
C53   C     C_R   0.765215 0.726302 0.990161 -0.089165
C54   C     C_R   0.810331 0.715236 0.874460 -0.109176
C55   C     C_R   0.777118 0.652652 0.785860 -0.094093
C56   C     C_R   0.089814 0.445694 0.596395 0.061127
C57   C     C_R   0.698465 0.601560 0.812579 -0.084865
C58   C     C_R   0.348333 0.386176 0.072685 0.014985
C59   C     C_R   0.313511 0.324568 0.983217 -0.053774
C60   C     C_R   0.234766 0.273734 0.009838 -0.089132
C61   C     C_R   0.189600 0.284883 0.125489 -0.109142
C62   C     C_R   0.222806 0.347484 0.214072 -0.094087
C63   C     C_R   0.301493 0.398523 0.187383 -0.084840
C64   C     C_R   0.945944 0.390300 0.678957 -0.136918
C65   C     C_R   0.054055 0.609733 0.321090 -0.136925
C66   C     C_R   0.038448 0.391202 0.684305 -0.085684
Cu1   Cu    Cu3+1 0.500000 0.597420 0.500000 0.972853
Cu2   Cu    Cu3+1 0.500000 0.402580 0.500000 0.972933
H1    H     H_    0.771825 0.402188 0.650911 0.111675
H2    H     H_    0.481541 0.923743 0.949093 0.106410
H3    H     H_    0.378501 0.956507 0.130284 0.112079
H4    H     H_    0.320003 0.820999 0.263201 0.127027
H5    H     H_    0.364813 0.654205 0.216922 0.114151
H6    H     H_    0.470395 0.241748 0.095561 0.126952
H7    H     H_    0.518730 0.076330 0.051306 0.106402
H8    H     H_    0.621780 0.043535 0.870143 0.112083
H9    H     H_    0.680114 0.179000 0.737002 0.127018
H10   H     H_    0.635152 0.345784 0.783063 0.114222
H11   H     H_    0.652532 0.684196 0.107008 0.146608
H12   H     H_    0.228173 0.597844 0.349135 0.111691
H13   H     H_    0.791332 0.774046 0.059381 0.152704
H14   H     H_    0.871359 0.754519 0.853867 0.123541
H15   H     H_    0.812743 0.643166 0.696921 0.133975
H16   H     H_    0.675386 0.551245 0.744965 0.108835
H17   H     H_    0.347516 0.315726 0.893056 0.146475
H18   H     H_    0.208654 0.225977 0.940632 0.152687
H19   H     H_    0.128539 0.245651 0.146053 0.123538
H20   H     H_    0.187146 0.357031 0.302971 0.133934
H21   H     H_    0.324565 0.448858 0.254978 0.108737
H22   H     H_    0.717436 0.572868 0.287407 0.350180
H23   H     H_    0.907811 0.347660 0.747743 0.117916
H24   H     H_    0.282583 0.427095 0.712578 0.350220
H25   H     H_    0.388461 0.694689 0.673008 0.379536
H26   H     H_    0.611539 0.305281 0.326933 0.379505
H27   H     H_    0.606880 0.697413 0.326884 0.349167
H28   H     H_    0.393164 0.302477 0.673274 0.348992
H29   H     H_    0.769263 0.941655 0.342593 0.332819
H30   H     H_    0.230671 0.058368 0.657039 0.332777
H31   H     H_    0.278510 0.937399 0.768234 0.326982
H32   H     H_    0.721343 0.062654 0.231546 0.326902
H33   H     H_    0.092188 0.652378 0.252308 0.117920
H34   H     H_    0.069447 0.348899 0.757457 0.175414
H35   H     H_    0.930553 0.651126 0.242580 0.175417
H36   H     H_    0.306035 0.578319 0.967123 0.332071
H37   H     H_    0.693982 0.421743 0.032883 0.332080
H38   H     H_    0.529712 0.758317 0.904603 0.126966
N1    N     N_R   0.500000 0.743810 0.500000 -0.281007
N2    N     N_R   0.500000 0.256190 0.500000 -0.280937
O1    O     O_R   0.370260 0.582280 0.500030 -0.479068
O2    O     O_3   0.652235 0.436870 0.103840 -0.689612
O3    O     O_3   0.776728 0.601182 0.300670 -0.677860
O4    O     O_3   0.223275 0.398806 0.699335 -0.677793
O5    O     O_3   0.362451 0.744375 0.618228 -0.592290
O6    O     O_3   0.637545 0.255636 0.381779 -0.592271
O7    O     O_3   0.635151 0.747149 0.376455 -0.589373
O8    O     O_3   0.364853 0.252861 0.623534 -0.589272
O9    O     O_3   0.715682 0.900799 0.335829 -0.647669
O10   O     O_3   0.284251 0.099216 0.663966 -0.647627
O11   O     O_3   0.297479 0.897634 0.695633 -0.643304
O12   O     O_R   0.629740 0.417720 0.499970 -0.478982
O13   O     O_3   0.702444 0.102385 0.304219 -0.643352
O14   O     O_R   0.629740 0.582280 0.499970 -0.480088
O15   O     O_R   0.370260 0.417720 0.500030 -0.479890
O16   O     O_R   0.499980 0.582260 0.316850 -0.553134
O17   O     O_R   0.500020 0.417740 0.683150 -0.553103
O18   O     O_R   0.500020 0.582260 0.683150 -0.507328
O19   O     O_R   0.499980 0.417740 0.316850 -0.507312
O20   O     O_3   0.347762 0.563140 0.896165 -0.689578

loop_
_geom_bond_atom_site_label_1
_geom_bond_atom_site_label_2
_ccdc_geom_bond_type
C43   H5    S    
C39   H38   S    
H37   O2    S    
C34   C56   A    
C8    C13   A    
C23   C45   A    
C34   C37   A    
C41   C42   A    
C48   H8    S    
C65   H33   S    
C21   C26   S    
C2    C65   A    
Cu1   O16   S    
C1    O15   A    
H26   O6    S    
C53   C54   A    
C7    C11   A    
C4    N2    A    
C40   H2    S    
C4    O6    S    
C46   H6    S    
C35   C37   A    
C25   O20   S    
C38   C39   A    
C20   C25   S    
C10   C17   A    
C15   C16   A    
C35   H12   S    
C33   C36   A    
C53   H13   S    
H32   O13   S    
C66   H34   S    
C61   H19   S    
C1    O1    A    
C12   O12   A    
Cu1   O1    S    
C7    C14   A    
H27   O7    S    
C37   C65   A    
C31   C33   A    
C51   C57   A    
C52   H11   S    
C19   C27   S    
C26   O2    S    
C33   H1    S    
C41   H3    S    
C23   C34   A    
C21   C27   S    
C59   C60   A    
C5    O7    S    
C14   C17   A    
H22   O3    S    
C50   H10   S    
Cu2   O15   S    
C44   C46   A    
H30   O10   S    
C2    C45   A    
C51   C52   A    
C32   C35   A    
C18   C28   S    
C24   C25   S    
C3    O5    S    
Cu1   O18   S    
C39   C40   A    
C5    C7    A    
C60   H18   S    
H24   O4    S    
C6    C8    A    
C20   C28   S    
C3    N1    A    
C58   C59   A    
C30   C56   A    
C19   O17   A    
C1    C32   S    
Cu1   Cu2   S    
C30   O4    S    
C60   C61   A    
C64   C66   A    
C59   H17   S    
C62   C63   A    
C3    C9    A    
C18   O19   A    
C21   C44   S    
C20   C38   S    
C47   C48   A    
H36   O20   S    
C14   O9    S    
C63   H21   S    
C42   H4    S    
C57   H16   S    
H25   O5    S    
C9    C11   A    
Cu2   O19   S    
C6    O8    S    
C17   O13   S    
C48   C49   A    
C20   C22   S    
C23   C36   A    
C8    C15   A    
C22   C27   S    
C55   C57   A    
C12   C31   S    
C16   O11   S    
C42   C43   A    
C55   H15   S    
Cu1   O14   S    
C54   H14   S    
C52   C53   A    
C5    N1    A    
C44   C50   A    
C58   C63   A    
C46   C47   A    
C40   C41   A    
C29   O3    S    
C24   C28   S    
C10   C13   A    
C54   C55   A    
C25   C27   S    
C19   O18   A    
C26   C28   S    
C15   O10   S    
C47   H7    S    
C38   C43   A    
C29   C31   A    
Cu2   O12   S    
C30   C32   A    
C11   C13   A    
Cu1   N1    S    
C62   H20   S    
C2    H35   S    
C56   C66   A    
C49   H9    S    
H29   O9    S    
C61   C62   A    
H31   O11   S    
C12   O14   A    
C24   C58   S    
C49   C50   A    
C22   C26   S    
C21   C24   S    
C29   C45   A    
C6    N2    A    
H28   O8    S    
Cu2   N2    S    
C64   H23   S    
C18   O16   A    
C36   C64   A    
C4    C10   A    
Cu2   O17   S    
C9    C16   A    
C22   C51   S    
