data_mof_unit_8441.cif
_audit_creation_date              2012-12-10T16:52:03-0500
_audit_creation_method            fapswitch 2.2
_symmetry_space_group_name_H-M    P1
_symmetry_Int_Tables_number       1
_space_group_crystal_system       triclinic
_cell_length_a                    7.784284
_cell_length_b                    8.743616
_cell_length_c                    15.012189
_cell_angle_alpha                 91.125413
_cell_angle_beta                  84.980879
_cell_angle_gamma                 93.809012
_cell_volume                      1015.50683817

loop_
_atom_site_label
_atom_site_type_symbol
_atom_type_description
_atom_site_fract_x
_atom_site_fract_y
_atom_site_fract_z
_atom_type_partial_charge
C1    C     C_R   0.545470 0.794061 0.497423 0.980162
C2    C     C_R   0.555016 0.630953 0.811023 -0.075090
C3    C     C_R   0.498376 0.503337 0.232316 -0.137170
C4    C     C_R   0.501624 0.496659 0.767684 -0.137171
C5    C     C_R   0.558016 0.636374 0.186378 -0.080953
C6    C     C_R   0.441999 0.363616 0.813619 -0.080953
C7    C     C_R   0.561217 0.637856 0.092085 0.029408
C8    C     C_R   0.438794 0.362135 0.907914 0.029411
C9    C     C_R   0.498260 0.502022 0.047108 0.026010
C10   C     C_R   0.501743 0.497971 0.952891 0.026008
C11   C     C_R   0.429842 0.370575 0.096497 0.031568
C12   C     C_R   0.454529 0.205939 0.502573 0.980163
C13   C     C_R   0.570156 0.629420 0.903503 0.031572
C14   C     C_R   0.629418 0.767136 0.040934 -0.064555
C15   C     C_R   0.370595 0.232854 0.959066 -0.064552
C16   C     C_1   0.429623 0.227299 0.239465 0.205166
C17   C     C_1   0.570355 0.772702 0.760538 0.205175
C18   C     C_1   0.629525 0.762937 0.238530 0.199868
C19   C     C_1   0.370506 0.237045 0.761462 0.199865
C20   C     C_1   0.677087 0.916124 0.079911 0.200951
C21   C     C_1   0.322943 0.083860 0.920091 0.200949
C22   C     C_1   0.763100 0.871571 0.899881 0.203560
C23   C     C_R   0.648419 0.756336 0.947941 -0.066502
C24   C     C_1   0.236898 0.128424 0.100117 0.203563
C25   C     C_3   0.757199 0.015259 0.462888 -0.810115
C26   C     C_3   0.242793 0.984740 0.537093 -0.810107
C27   C     C_1   0.026915 0.352075 0.417925 0.399218
C28   C     C_1   0.973084 0.647924 0.582076 0.399221
C29   C     C_R   0.351583 0.243658 0.052059 -0.066508
C30   C     C_2   0.570300 0.955920 0.491424 -0.010204
C31   C     C_2   0.429697 0.044079 0.508565 -0.010190
C32   C     C_R   0.500526 0.498210 0.672288 0.899241
C33   C     C_R   0.499474 0.501790 0.327712 0.899234
C34   C     C_R   0.444976 0.369046 0.188978 -0.075086
H1    H     H_    0.847299 0.924713 0.444160 0.243250
H2    H     H_    0.761381 0.085731 0.401912 0.263988
H3    H     H_    0.813847 0.080216 0.518795 0.249251
H4    H     H_    0.152688 0.075284 0.555814 0.243242
H5    H     H_    0.186157 0.919777 0.481184 0.249252
H6    H     H_    0.238601 0.914273 0.598072 0.263988
N1    N     N_2   0.950330 0.457950 0.475660 -0.158916
N2    N     N_1   0.145133 0.036683 0.137539 -0.167295
N3    N     N_1   0.088191 0.262714 0.369237 -0.228010
N4    N     N_1   0.911807 0.737284 0.630764 -0.228012
N5    N     N_2   0.049670 0.542050 0.524340 -0.158917
N6    N     N_1   0.418611 0.115305 0.280024 -0.189605
N7    N     N_1   0.581355 0.884698 0.719982 -0.189598
N8    N     N_1   0.687524 0.862338 0.280704 -0.190014
N9    N     N_1   0.312519 0.137636 0.719284 -0.190006
N10   N     N_1   0.715488 0.035869 0.109087 -0.177023
N11   N     N_1   0.284555 0.964109 0.890918 -0.177030
N12   N     N_1   0.854862 0.963311 0.862457 -0.167301
O1    O     O_R   0.389250 0.738570 0.505970 -0.645985
O2    O     O_R   0.610750 0.261430 0.494030 -0.645984
O3    O     O_R   0.678390 0.711620 0.490370 -0.635035
O4    O     O_R   0.321610 0.288380 0.509630 -0.635036
O5    O     O_R   0.355420 0.513510 0.639950 -0.624322
O6    O     O_R   0.644580 0.486490 0.360050 -0.624324
O7    O     O_R   0.644560 0.486560 0.624350 -0.628530
O8    O     O_R   0.355440 0.513440 0.375650 -0.628532
Zn1   Zn    Zn3+2 0.306940 0.517990 0.510420 0.957674
Zn2   Zn    Zn3+2 0.693060 0.482010 0.489580 0.957674

loop_
_geom_bond_atom_site_label_1
_geom_bond_atom_site_label_2
_ccdc_geom_bond_type
C14   C23   A    
O6    Zn2   S    
C2    C4    A    
C8    C10   A    
O5    Zn1   S    
C33   O6    A    
C27   N3    T    
C33   O8    A    
C24   N2    T    
C9    C10   A    
C27   N1    S    
C3    C34   A    
C15   C21   S    
C16   C34   S    
C1    O3    A    
C26   C31   S    
O4    Zn1   S    
C12   O4    A    
N1    N5    D    
C2    C17   S    
C6    C19   S    
C9    C11   A    
C26   H6    S    
C4    C32   S    
N1    Zn2   S    
C25   H1    S    
C20   N10   T    
C32   O5    A    
N5    Zn1   S    
C1    C30   S    
C15   C29   A    
C8    C15   A    
C5    C7    A    
C7    C14   A    
C12   C31   S    
C30   C31   D    
C26   H5    S    
C28   N5    S    
C4    C6    A    
C11   C29   A    
C3    C33   S    
C25   H2    S    
O3    Zn2   S    
C14   C20   S    
C21   N11   T    
C13   C23   A    
C22   N12   T    
C16   N6    T    
C25   C30   S    
C7    C9    A    
C2    C13   A    
C1    O1    A    
C22   C23   S    
C26   H4    S    
O7    Zn2   S    
C6    C8    A    
C5    C18   S    
O2    Zn2   S    
C32   O7    A    
C25   H3    S    
C24   C29   S    
O1    Zn1   S    
C28   N4    T    
C11   C34   A    
C12   O2    A    
C17   N7    T    
C19   N9    T    
O8    Zn1   S    
C3    C5    A    
C10   C13   A    
C18   N8    T    
