data_mof_unit_30370.cif
_audit_creation_date              2012-12-11T18:13:30-0500
_audit_creation_method            fapswitch 2.2
_symmetry_space_group_name_H-M    P1
_symmetry_Int_Tables_number       1
_space_group_crystal_system       triclinic
_cell_length_a                    8.168789
_cell_length_b                    12.833204
_cell_length_c                    18.755035
_cell_angle_alpha                 99.98518
_cell_angle_beta                  91.372586
_cell_angle_gamma                 98.76899
_cell_volume                      1911.14145756

loop_
_atom_site_label
_atom_site_type_symbol
_atom_type_description
_atom_site_fract_x
_atom_site_fract_y
_atom_site_fract_z
_atom_type_partial_charge
Ba1   Ba    Ba6+2 0.852780 0.548340 0.465070 1.684280
Ba2   Ba    Ba6+2 0.337060 0.451750 0.534940 1.681639
Br1   Br    Br    0.569282 0.145529 0.187121 -0.629386
C1    C     C_3   0.581992 0.894705 0.254108 -0.361845
C2    C     C_R   0.889219 0.397061 0.094807 0.031955
C3    C     C_R   0.724755 0.353147 0.071470 -0.061158
C4    C     C_3   0.130533 0.759989 0.265841 0.358822
C5    C     C_R   0.664705 0.356757 0.001671 -0.080738
C6    C     C_R   0.768129 0.404237 0.953570 0.028027
C7    C     C_R   0.931851 0.451483 0.976705 0.016188
C8    C     C_R   0.710453 0.403733 0.882577 -0.103373
C9    C     C_R   0.815118 0.447656 0.832773 -0.026977
C10   C     C_R   0.977138 0.500576 0.856619 0.003550
C11   C     C_R   0.034652 0.501932 0.928968 -0.004985
C12   C     C_3   0.634329 0.816331 0.298897 0.303969
C13   C     C_R   0.763476 0.438662 0.759440 0.066532
C14   C     C_R   0.874561 0.477478 0.710524 -0.212252
C15   C     C_R   0.027167 0.541222 0.733909 0.033888
C16   C     C_3   0.111325 0.783597 0.189626 -0.349304
C17   C     C_R   0.081046 0.552450 0.808594 -0.049119
C18   C     C_R   0.155080 0.496325 0.071623 -0.003707
C19   C     C_R   0.214585 0.495234 0.143348 0.000862
C20   C     C_R   0.109599 0.445304 0.191718 -0.050136
C21   C     C_R   0.950343 0.391938 0.164738 -0.025077
C22   C     C_R   0.236367 0.610773 0.836825 -0.013568
C23   C     C_3   0.461094 0.269630 0.314132 0.346632
C24   C     C_R   0.295932 0.607704 0.907484 0.028428
C25   C     C_R   0.195822 0.552241 0.953425 0.005721
C26   C     C_R   0.256781 0.548361 0.024292 0.017093
C27   C     C_R   0.456031 0.658247 0.932782 -0.056907
C28   C     C_3   0.207282 0.785288 0.616782 0.353417
C29   C     C_R   0.518603 0.651612 0.001527 -0.083023
C30   C     C_R   0.419619 0.597184 0.047774 0.026436
C31   C     C_R   0.378706 0.545094 0.166515 -0.044753
C32   C     C_R   0.480504 0.593011 0.117460 -0.112863
C33   C     C_R   0.434744 0.548177 0.238714 0.000194
C34   C     C_3   0.406579 0.225037 0.235047 0.073510
C35   C     C_R   0.327504 0.505270 0.287180 -0.299326
C36   C     C_R   0.166726 0.452922 0.265542 0.028657
C37   C     C_R   0.764656 0.182552 0.530318 -0.279152
C38   C     C_R   0.430398 0.809928 0.470499 -0.269489
C39   C     C_R   0.400398 0.984705 0.446745 -0.104343
C40   C     C_3   0.188388 0.902445 0.631342 -0.310990
C41   C     C_R   0.337343 0.876874 0.442071 -0.014498
C42   C     C_R   0.580519 0.850662 0.510227 0.029936
C43   C     C_R   0.643938 0.962129 0.518039 -0.054415
C44   C     C_R   0.553257 0.029198 0.484410 -0.053123
C45   C     C_3   0.047711 0.233771 0.734588 0.358588
C46   C     C_R   0.616695 0.139601 0.490558 0.029549
C47   C     C_R   0.857652 0.117501 0.560366 0.003737
C48   C     C_R   0.795983 0.008608 0.556399 -0.102038
C49   C     C_3   0.960946 0.215424 0.381298 0.301269
C50   C     C_3   0.937985 0.093835 0.364250 -0.351554
C51   C     C_3   0.644442 0.779188 0.701359 0.162939
C52   C     C_3   0.704652 0.871209 0.765334 -0.273528
C53   C     C_2   0.655341 0.670618 0.719136 0.834442
C54   C     C_2   0.581220 0.884722 0.823171 0.798899
C55   C     C_3   0.062971 0.207858 0.810330 -0.339870
C56   C     C_3   0.527583 0.182314 0.693285 0.333071
C57   C     C_3   0.549628 0.089029 0.728949 -0.361742
C58   C     C_R   0.992167 0.448459 0.047800 0.007706
H1    H     H_    0.726606 0.860315 0.342389 0.084272
H2    H     H_    0.516234 0.783434 0.683854 0.030266
H3    H     H_    0.527214 0.957895 0.289340 0.122089
H4    H     H_    0.734304 0.946453 0.744552 0.080703
H5    H     H_    0.826629 0.862476 0.789097 0.085881
H6    H     H_    0.522971 0.782419 0.325070 -0.045518
H7    H     H_    0.488520 0.851715 0.210884 0.123933
H8    H     H_    0.357505 0.305520 0.340569 -0.054491
H9    H     H_    0.571257 0.332699 0.316415 0.050023
H10   H     H_    0.286232 0.170453 0.232018 0.098657
H11   H     H_    0.390591 0.291643 0.206159 -0.003174
H12   H     H_    0.285629 0.947368 0.671313 0.121211
H13   H     H_    0.690869 0.932353 0.228173 0.170510
H14   H     H_    0.151038 0.719009 0.149743 0.069133
H15   H     H_    0.119078 0.314836 0.734795 0.066088
H16   H     H_    0.914539 0.233629 0.721266 -0.091307
H17   H     H_    0.195335 0.209871 0.826339 0.148995
H18   H     H_    0.011308 0.267614 0.849806 0.066114
H19   H     H_    0.993108 0.126910 0.811616 0.123882
H20   H     H_    0.648490 0.209368 0.670971 -0.073778
H21   H     H_    0.432994 0.155562 0.647883 0.104640
H22   H     H_    0.660107 0.111933 0.767319 0.102389
H23   H     H_    0.199176 0.935175 0.580505 0.084997
H24   H     H_    0.565825 0.020788 0.685955 0.046713
H25   H     H_    0.048225 0.683800 0.268752 0.095015
H26   H     H_    0.439437 0.066978 0.759891 0.176713
H27   H     H_    0.641527 0.317053 0.107457 0.125372
H28   H     H_    0.537356 0.321641 0.985141 0.084903
H29   H     H_    0.836097 0.464818 0.653695 0.092799
H30   H     H_    0.584358 0.366358 0.866573 0.102520
H31   H     H_    0.870197 0.348174 0.198116 0.134147
H32   H     H_    0.315261 0.655724 0.803588 0.114699
H33   H     H_    0.533207 0.702797 0.899291 0.124421
H34   H     H_    0.066293 0.911829 0.653992 0.140903
H35   H     H_    0.643830 0.690592 0.018931 0.090310
H36   H     H_    0.607320 0.629247 0.132949 0.110278
H37   H     H_    0.261087 0.750277 0.275925 -0.078125
H38   H     H_    0.371474 0.510652 0.342778 0.072102
H39   H     H_    0.326051 0.032937 0.422163 0.107296
H40   H     H_    0.869846 0.961301 0.581642 0.106739
H41   H     H_    0.813188 0.266747 0.533999 0.055967
H42   H     H_    0.380200 0.725755 0.465370 0.061858
H43   H     H_    0.979739 0.788291 0.176441 0.153283
H44   H     H_    0.189005 0.861016 0.185456 0.135361
H45   H     H_    0.845298 0.241475 0.401068 -0.001524
H46   H     H_    0.330508 0.776601 0.596485 -0.107977
H47   H     H_    0.113501 0.744366 0.573824 0.093862
H48   H     H_    0.743778 0.715380 0.825619 0.267245
H49   H     H_    0.543207 0.912674 0.930145 0.324160
H50   H     H_    0.061472 0.243741 0.423978 0.076400
H51   H     H_    0.832533 0.063424 0.324116 0.135976
H52   H     H_    0.912006 0.059938 0.413914 0.079418
H53   H     H_    0.052365 0.067262 0.341716 0.142337
O1    O     O_2   0.873090 0.425890 0.325140 -0.463075
O2    O     O_2   0.196996 0.123676 0.551177 -0.496950
O3    O     O_3   0.111901 0.156674 0.685273 -0.596795
O4    O     O_3   0.122420 0.434370 0.414380 -0.499910
O5    O     O_3   0.578370 0.633800 0.536380 -0.441609
O6    O     O_2   0.341510 0.231850 0.465510 -0.470199
O7    O     O_3   0.500671 0.186197 0.347419 -0.627445
O8    O     O_2   0.423303 0.457352 0.757156 -0.456350
O9    O     O_3   0.473155 0.260345 0.745085 -0.616507
O10   O     O_3   0.659500 0.627100 0.368810 -0.476023
O11   O     O_2   0.777907 0.546442 0.244948 -0.499333
O12   O     O_3   0.752861 0.794336 0.646555 -0.638135
O13   O     O_3   0.999007 0.254633 0.317709 -0.622933
O14   O     O_3   0.708299 0.739308 0.253522 -0.596250
O15   O     O_2   0.848200 0.768190 0.534530 -0.449955
O16   O     O_3   0.081160 0.685950 0.404810 -0.492970
O17   O     O_2   0.997340 0.877024 0.449171 -0.490044
O18   O     O_2   0.632364 0.594897 0.669231 -0.540952
O19   O     O_R   0.694470 0.651443 0.788306 -0.797045
O20   O     O_2   0.434789 0.882465 0.806772 -0.614331
O21   O     O_R   0.636427 0.903334 0.896032 -0.750194
O22   O     O_3   0.086573 0.844798 0.315844 -0.593894
O23   O     O_2   0.316610 0.574140 0.674900 -0.446645
O24   O     O_3   0.067290 0.565720 0.585630 -0.501952
O25   O     O_3   0.530210 0.372990 0.631200 -0.442367
O26   O     O_3   0.190144 0.745502 0.681748 -0.612042
O27   O     O_3   0.611340 0.366290 0.463630 -0.474123
O28   O     O_3   0.108550 0.314140 0.595200 -0.491214
P1    P     P_3+3 0.041040 0.394770 0.336330 0.980751
P2    P     P_3+3 0.672880 0.754030 0.556100 1.009211
P3    P     P_3+3 0.126323 0.822626 0.403682 0.944770
P4    P     P_3+3 0.148670 0.605320 0.663680 1.009052
P5    P     P_3+3 0.068076 0.176842 0.597390 0.938042
P6    P     P_3+3 0.644575 0.612642 0.275193 0.950594
P7    P     P_3+3 0.522895 0.229956 0.441205 0.941671
P8    P     P_3+3 0.547788 0.385236 0.724691 1.029763

loop_
_geom_bond_atom_site_label_1
_geom_bond_atom_site_label_2
_ccdc_geom_bond_type
C47   P5    S    
C40   H12   S    
C22   H32   S    
Ba2   P4    S    
O5    P2    S    
C4    H37   S    
C28   H47   S    
C45   H15   S    
C56   H21   S    
C53   O19   S    
Ba2   O4    S    
O27   P7    S    
C44   C46   A    
O15   P2    D    
C42   C43   A    
C50   H53   S    
O10   P6    S    
O6    P7    D    
C28   C40   S    
Ba2   O25   S    
O8    P8    D    
C25   C26   A    
C23   H9    S    
C31   C32   A    
Ba1   O15   S    
C35   C36   A    
C57   H22   S    
C20   C36   A    
C4    H25   S    
C17   C22   A    
C37   C46   A    
C26   C30   A    
C3    H27   S    
C14   C15   A    
Ba1   Ba2   S    
Ba1   O5    S    
C28   H46   S    
O12   P2    S    
C43   C44   A    
C33   P6    S    
C9    C13   A    
C13   C14   A    
C42   P2    S    
C40   H34   S    
C20   C21   A    
C23   O7    S    
C6    C7    A    
C1    H13   S    
O22   P3    S    
C55   H19   S    
Ba1   O4    S    
O9    P8    S    
C49   H45   S    
C56   C57   S    
C10   C11   A    
O16   P3    S    
C40   H23   S    
H49   O21   S    
C39   C41   A    
C21   H31   S    
C52   H4    S    
C49   O13   S    
C50   H52   S    
C47   C48   A    
C51   C53   S    
C56   O9    S    
C19   C31   A    
O1    P1    D    
C34   H10   S    
H48   O19   S    
Ba2   O24   S    
O23   P4    D    
O4    P1    S    
C7    C11   A    
O26   P4    S    
C1    H7    S    
Ba2   O6    S    
O14   P6    S    
C3    C5    A    
C49   H50   S    
C18   C26   A    
C43   C48   A    
C38   H42   S    
C57   H26   S    
C45   H16   S    
Ba1   P1    S    
C39   H39   S    
C51   O12   S    
C16   H43   S    
C57   H24   S    
C12   H6    S    
C41   P3    S    
C5    C6    A    
C2    C58   A    
O13   P1    S    
C6    C8    A    
Br1   C34   S    
C53   O18   D    
C55   H18   S    
C16   H44   S    
C50   H51   S    
C29   H35   S    
C36   P1    S    
Ba1   O16   S    
C4    C16   S    
C12   O14   S    
C52   C54   S    
Ba2   O28   S    
C38   C41   A    
C54   O20   D    
C7    C58   A    
C48   H40   S    
C52   H5    S    
C49   C50   S    
C23   H8    S    
C51   C52   S    
C10   C17   A    
Ba2   O23   S    
C18   C58   A    
O28   P5    S    
C14   H29   S    
C56   H20   S    
C35   H38   S    
C15   P4    S    
O11   P6    D    
O2    P5    D    
Ba2   O5    S    
C23   C34   S    
C45   C55   S    
C45   O3    S    
C22   C24   A    
C1    H3    S    
O25   P8    S    
C46   P7    S    
O3    P5    S    
C29   C30   A    
C1    C12   S    
C16   H14   S    
Ba1   O10   S    
C4    O22   S    
C27   H33   S    
Ba1   P2    S    
C32   H36   S    
C27   C29   A    
C2    C3    A    
C2    C21   A    
O24   P4    S    
C37   C47   A    
C33   C35   A    
C30   C32   A    
C12   H1    S    
O7    P7    S    
O17   P3    D    
C15   C17   A    
C39   C44   A    
Ba1   O27   S    
C55   H17   S    
C37   H41   S    
C8    H30   S    
C9    C10   A    
C31   C33   A    
C51   H2    S    
C34   H11   S    
C24   C25   A    
Ba2   O27   S    
C38   C42   A    
C19   C20   A    
C54   O21   S    
C13   P8    S    
C5    H28   S    
Ba1   O1    S    
C11   C25   A    
C28   O26   S    
C18   C19   A    
Ba1   O24   S    
C8    C9    A    
C24   C27   A    
