data_mof_unit_46605.cif
_audit_creation_date              2013-03-05T15:41:43-0500
_audit_creation_method            fapswitch 2.2
_symmetry_space_group_name_H-M    P1
_symmetry_Int_Tables_number       1
_space_group_crystal_system       triclinic
_cell_length_a                    6.949468
_cell_length_b                    13.618416
_cell_length_c                    20.442657
_cell_angle_alpha                 102.065001
_cell_angle_beta                  90.906711
_cell_angle_gamma                 90.979832
_cell_volume                      1891.3237404

loop_
_atom_site_label
_atom_site_type_symbol
_atom_site_description
_atom_site_fract_x
_atom_site_fract_y
_atom_site_fract_z
_atom_type_partial_charge
O1    O     O_R   0.506860 0.599390 0.449240 -0.554965
O2    O     O_R   0.180220 0.594600 0.586780 -0.579534
O3    O     O_R   0.004500 0.400610 0.550760 -0.555832
C1    C     C_R   0.351437 0.617537 0.612988 0.781003
O4    O     O_R   0.177490 0.611290 0.451970 -0.560876
O5    O     O_R   0.001750 0.417420 0.414990 -0.540781
C2    C     C_R   0.346451 0.637723 0.434968 0.862480
O6    O     O_R   0.509610 0.582580 0.585010 -0.523941
O7    O     O_3   0.337420 0.436370 0.488020 -0.236757
V1    V     V_3+5 0.064680 0.511800 0.502220 1.243080
O8    O     O_R   0.671710 0.405400 0.413220 -0.505840
C3    C     C_R   0.837706 0.382452 0.386945 0.824559
O9    O     O_R   0.674440 0.388710 0.548030 -0.561479
C4    C     C_R   0.842863 0.361950 0.564644 0.853375
V2    V     V_3+5 0.564010 0.488200 0.497780 1.284952
O10   O     O_3   0.841140 0.563630 0.511980 -0.272116
C5    C     C_R   0.801653 0.111514 0.612859 0.369057
H1    H     H_    0.774311 0.166521 0.522030 0.159726
H2    H     H_    0.849667 0.985253 0.697535 0.167821
C6    C     C_R   0.848338 0.285731 0.605622 -0.160528
C7    C     C_R   0.836997 0.314655 0.928670 -0.099741
C8    C     C_R   0.807487 0.389055 0.892595 -0.042808
C9    C     C_R   0.807332 0.365630 0.822925 -0.061626
C10   C     C_R   0.845633 0.267255 0.787292 0.056991
C11   C     C_R   0.860497 0.190170 0.824434 0.012939
C12   C     C_R   0.852861 0.241572 0.715732 -0.011426
C13   C     C_R   0.831756 0.138410 0.683128 -0.034200
C14   C     C_R   0.847855 0.064096 0.721071 -0.021757
C15   C     C_R   0.868225 0.089558 0.790183 -0.096562
C16   C     C_R   0.883003 0.313390 0.675054 -0.100243
C17   C     C_R   0.804337 0.186259 0.575424 -0.076491
C18   C     C_R   0.860100 0.215185 0.895273 -0.086156
H3    H     H_    0.834099 0.333943 0.982833 0.061297
H4    H     H_    0.765563 0.424585 0.798038 0.091500
H5    H     H_    0.779677 0.465033 0.918737 0.091090
H6    H     H_    0.881766 0.028958 0.816721 0.081678
C19   C     C_2   0.974848 0.247595 0.297939 0.259811
C20   C     C_2   0.830484 0.312242 0.320225 0.120266
C21   C     C_2   0.969446 0.175712 0.231345 -0.049916
C22   C     C_2   0.872775 0.189845 0.176469 -0.169340
H7    H     H_    0.056052 0.108974 0.226929 0.100542
H8    H     H_    0.792385 0.257157 0.176428 0.116601
C23   C     C_2   0.216575 0.805074 0.776508 -0.031855
C24   C     C_2   0.353957 0.807853 0.823912 -0.133771
H9    H     H_    0.096599 0.855790 0.786528 0.101582
H10   H     H_    0.469604 0.754538 0.816015 0.128241
C25   C     C_2   0.214175 0.731681 0.711060 -0.116652
C26   C     C_2   0.371743 0.692876 0.677164 0.202653
H11   H     H_    0.072412 0.710169 0.689292 0.156093
C27   C     C_R   0.373473 0.890716 0.388680 0.379618
H12   H     H_    0.359454 0.837420 0.480643 0.141541
H13   H     H_    0.390283 0.014867 0.301065 0.193935
C28   C     C_R   0.355424 0.715322 0.395195 -0.143202
C29   C     C_R   0.320975 0.683522 0.071049 -0.065786
C30   C     C_R   0.275816 0.610619 0.107180 -0.088368
C31   C     C_R   0.268879 0.634159 0.177006 -0.040061
C32   C     C_R   0.326645 0.732166 0.213346 0.046364
C33   C     C_R   0.356134 0.808384 0.175713 0.009777
C34   C     C_R   0.347826 0.759363 0.285083 0.005118
C35   C     C_R   0.367108 0.862704 0.317613 -0.032191
C36   C     C_R   0.379087 0.935768 0.278683 -0.030258
C37   C     C_R   0.380826 0.909014 0.209528 -0.109577
C38   C     C_R   0.359602 0.687316 0.325605 -0.117126
C39   C     C_R   0.358707 0.816438 0.426479 -0.088433
C40   C     C_R   0.353495 0.783521 0.104670 -0.111686
H14   H     H_    0.378921 0.608834 0.304653 0.113984
H15   H     H_    0.236226 0.535321 0.080265 0.078956
H16   H     H_    0.397700 0.969144 0.182677 0.092712
O11   O     O_R   0.203230 0.917310 0.915020 -0.563415
O12   O     O_R   0.535500 0.888690 0.048040 -0.563204
O13   O     O_R   0.711080 0.082610 0.085000 -0.547103
C41   C     C_R   0.366483 0.862528 0.065303 0.817659
O14   O     O_R   0.532630 0.905370 0.913230 -0.552990
O15   O     O_R   0.708190 0.099410 0.949230 -0.559475
C42   C     C_R   0.362236 0.882885 0.887302 0.834673
O16   O     O_R   0.206120 0.900510 0.050790 -0.560944
O17   O     O_3   0.375360 0.063570 0.011990 -0.271108
V3    V     V_3+5 0.648170 0.988200 0.997780 1.169779
O18   O     O_R   0.038240 0.111390 0.951940 -0.564747
C43   C     C_R   0.869596 0.137948 0.935271 0.814933
O19   O     O_R   0.041120 0.094710 0.086750 -0.560727
C44   C     C_R   0.875024 0.115700 0.113104 0.828470
V4    V     V_3+5 0.148810 0.011930 0.002180 1.162414
O20   O     O_3   0.871750 0.936430 0.988010 -0.274632
N1    N     N_R   0.649747 0.304795 0.284060 0.082023
O21   O     O_R   0.557448 0.218860 0.267900 -0.331027
O22   O     O_R   0.566020 0.385822 0.275033 -0.349064
N2    N     N_R   0.562441 0.729494 0.699027 0.077832
O23   O     O_R   0.699451 0.666640 0.702177 -0.377294
O24   O     O_R   0.603499 0.825172 0.709672 -0.359990
N3    N     N_R   0.398217 0.993503 0.423417 0.118120
O25   O     O_R   0.545571 0.046363 0.410839 -0.321113
O26   O     O_R   0.298472 0.027234 0.476457 -0.288702
C45   C     C_1   0.320068 0.655213 0.998797 0.249663
N4    N     N_1   0.319347 0.632596 0.940977 -0.294844
C46   C     C_1   0.173481 0.559675 0.206925 0.280408
N5    N     N_1   0.096186 0.499767 0.230387 -0.262723
N6    N     N_R   0.758929 0.009709 0.579027 0.094320
O27   O     O_R   0.623396 0.958331 0.600707 -0.330781
O28   O     O_R   0.829631 0.974961 0.520347 -0.303178
C47   C     C_1   0.972789 0.410985 0.701320 0.291024
N7    N     N_1   0.045168 0.488743 0.721911 -0.271348
N8    N     N_R   0.132576 0.238035 0.342039 0.084493
O29   O     O_R   0.150784 0.155562 0.363916 -0.323719
O30   O     O_R   0.271737 0.304722 0.352313 -0.251144

loop_
_geom_bond_atom_site_label_1
_geom_bond_atom_site_label_2
_geom_bond_distance
_ccdc_geom_bond_type
C33   C37   1.406250 A    
C30   C31   1.397872 A    
C47   N7    1.157703 T    
O12   V3    2.019023 S    
C27   C39   1.398763 A    
C1    O6    1.298458 A    
O19   C44   1.292633 A    
C25   H11   1.084515 S    
C29   C40   1.404034 A    
C6    C16   1.406093 A    
O17   V3    2.166020 S    
C8    H5    1.082812 S    
C15   H6    1.082792 S    
C12   C13   1.427560 A    
C14   C15   1.386930 A    
C10   C12   1.433134 A    
H13   C36   1.079702 S    
O5    C3    1.304497 A    
C28   C39   1.391428 A    
C32   C34   1.440023 A    
C7    H3    1.083821 S    
O17   V4    1.704907 S    
V2    O10   2.153737 S    
C31   C32   1.432547 A    
C5    N6    1.437793 S    
O8    V2    2.018616 S    
V4    O20   2.153709 S    
C9    C10   1.416571 A    
C26   N2    1.438815 S    
O1    V2    2.017794 S    
O7    V1    2.165956 S    
C41   O16   1.292653 A    
O13   C44   1.297960 A    
C11   C18   1.416725 A    
C22   H8    1.081779 S    
C38   H14   1.076641 S    
C34   C35   1.428382 A    
O15   C43   1.291375 A    
O9    C4    1.293008 A    
O14   C42   1.294912 A    
C36   C37   1.384504 A    
O16   V4    2.021626 S    
O19   V4    2.018635 S    
C24   H10   1.083606 S    
N1    O22   1.301514 A    
C11   C15   1.404694 A    
C7    C18   1.396848 A    
C20   N1    1.438529 S    
C5    C13   1.417494 A    
C22   C44   1.467020 S    
C10   C11   1.422553 A    
C21   H7    1.087452 S    
C21   C22   1.348204 D    
O4    C2    1.296097 A    
N1    O21   1.302365 A    
N3    O26   1.301393 A    
C35   C36   1.400215 A    
C24   C42   1.472678 S    
O2    C1    1.302902 A    
C23   C24   1.343939 D    
C19   C20   1.366079 D    
O11   V4    2.014048 S    
C4    C6    1.464398 S    
C18   C43   1.462710 S    
C33   C40   1.420411 A    
C25   C26   1.359854 D    
O14   V3    2.003654 S    
C9    H4    1.077847 S    
C46   N5    1.158000 T    
N8    O30   1.299220 A    
H2    C14   1.081301 S    
C23   H9    1.086333 S    
O3    C4    1.293001 A    
N2    O24   1.301281 A    
C12   C16   1.424937 A    
O6    V2    2.013602 S    
N6    O28   1.301399 A    
O9    V2    2.018010 S    
C5    C17   1.395562 A    
C2    C28   1.462972 S    
O2    V1    2.003652 S    
N3    O25   1.301338 A    
C19   N8    1.433119 S    
C1    C26   1.490043 S    
C31   C46   1.446265 S    
C29   C30   1.390322 A    
O1    C2    1.293679 A    
H12   C39   1.084076 S    
O5    V1    2.005262 S    
C30   H15   1.086130 S    
O8    C3    1.295645 A    
C40   C41   1.474577 S    
C34   C38   1.412799 A    
C37   H16   1.082705 S    
C27   C35   1.422625 A    
O7    V2    1.706110 S    
O4    V1    2.019055 S    
C19   C21   1.501009 S    
O3    V1    2.017930 S    
V1    O10   1.714576 S    
O18   V4    2.017932 S    
C28   C38   1.394616 A    
C32   C33   1.429254 A    
C16   C47   1.451494 S    
O11   C42   1.299372 A    
C3    C20   1.492672 S    
C45   N4    1.157394 T    
C29   C45   1.446315 S    
O18   C43   1.293773 A    
V3    O20   1.714511 S    
C27   N3    1.437219 S    
N2    O23   1.300916 A    
N6    O27   1.301311 A    
O15   V3    2.018070 S    
N8    O29   1.300205 A    
C8    C9    1.392928 A    
O12   C41   1.297111 A    
H1    C17   1.084152 S    
C7    C8    1.388227 A    
C23   C25   1.492987 S    
O13   V3    2.005266 S    
C13   C14   1.402746 A    
C6    C17   1.392820 A    
