data_mof_unit_46512.cif
_audit_creation_date              2012-12-10T17:29:15-0500
_audit_creation_method            fapswitch 2.2
_symmetry_space_group_name_H-M    P1
_symmetry_Int_Tables_number       1
_space_group_crystal_system       triclinic
_cell_length_a                    11.989821
_cell_length_b                    12.882007
_cell_length_c                    13.03731
_cell_angle_alpha                 87.438825
_cell_angle_beta                  112.184854
_cell_angle_gamma                 93.319482
_cell_volume                      1860.88559815

loop_
_atom_site_label
_atom_site_type_symbol
_atom_type_description
_atom_site_fract_x
_atom_site_fract_y
_atom_site_fract_z
_atom_type_partial_charge
C1    C     C_R   0.477157 0.299545 0.497487 0.870559
C2    C     C_R   0.599361 0.457438 0.826007 -0.148719
C3    C     C_R   0.535354 0.811894 0.500908 -0.055785
C4    C     C_R   0.563415 0.485505 0.707814 0.877163
C5    C     C_R   0.463300 0.188342 0.495885 -0.043431
C6    C     C_R   0.359886 0.029520 0.520470 -0.209478
C7    C     C_R   0.366391 0.137061 0.514737 -0.196944
C8    C     C_R   0.551812 0.133021 0.479705 -0.265570
C9    C     C_R   0.546835 0.026171 0.486528 0.180654
C10   C     C_R   0.450399 0.974125 0.507546 0.187351
C11   C     C_R   0.445852 0.867344 0.515218 -0.274071
C12   C     C_R   0.544952 0.424409 0.986873 0.059918
C13   C     C_R   0.631876 0.863143 0.481320 -0.196322
C14   C     C_R   0.637497 0.970707 0.473926 -0.211956
C15   C     C_R   0.023573 0.619550 0.425468 -0.299172
C16   C     C_R   0.522582 0.700516 0.501784 0.900961
C17   C     C_R   0.140971 0.606014 0.430224 0.005545
C18   C     C_R   0.148310 0.444169 0.525665 -0.042664
C19   C     C_R   0.031108 0.455260 0.524595 0.103718
C20   C     C_R   0.967829 0.544096 0.473487 0.109027
C21   C     C_R   0.850106 0.554641 0.471517 -0.003230
C22   C     C_R   0.859511 0.394519 0.570671 0.068490
C23   C     C_R   0.512669 0.423373 0.871239 0.103565
C24   C     C_R   0.975990 0.380232 0.573628 -0.336970
C25   C     C_R   0.434146 0.493770 0.292727 0.889515
C26   C     C_R   0.241385 0.450024 0.993038 -0.162961
C27   C     C_R   0.394261 0.463706 0.177664 -0.171321
C28   C     C_R   0.720830 0.471954 0.895874 -0.252432
C29   C     C_R   0.756056 0.462823 0.010889 0.024780
C30   C     C_R   0.667323 0.444010 0.055632 -0.236779
C31   C     C_2   0.553412 0.332382 0.210466 0.896017
C32   C     C_2   0.884693 0.478104 0.084747 0.907140
C33   C     C_R   0.451358 0.417888 0.028598 0.045586
C34   C     C_R   0.329828 0.422512 0.954529 0.157614
C35   C     C_R   0.300520 0.400537 0.843748 -0.234193
C36   C     C_R   0.392478 0.393535 0.804412 -0.182054
C37   C     C_R   0.475351 0.415733 0.141763 -0.095473
C38   C     C_R   0.275802 0.478523 0.103117 -0.172208
H1    H     H_    0.209919 0.509373 0.130528 0.204155
H2    H     H_    0.022399 0.311082 0.613854 0.140804
H3    H     H_    0.183595 0.665069 0.393936 0.141330
H4    H     H_    0.207379 0.391261 0.787444 0.143186
H5    H     H_    0.196846 0.375466 0.563150 0.107599
H6    H     H_    0.148459 0.456617 0.936832 0.167681
H7    H     H_    0.787763 0.493999 0.860731 0.195456
H8    H     H_    0.694504 0.450101 0.143949 0.205139
H9    H     H_    0.367835 0.369260 0.720412 0.161772
H10   H     H_    0.371754 0.827562 0.531561 0.159192
H11   H     H_    0.582686 0.178806 0.229795 0.338617
H12   H     H_    0.701230 0.820280 0.469808 0.155264
H13   H     H_    0.010072 0.472440 0.240148 0.346960
H14   H     H_    0.285468 0.989888 0.536215 0.140981
H15   H     H_    0.711827 0.010317 0.458012 0.142105
H16   H     H_    0.297600 0.179859 0.527302 0.156127
H17   H     H_    0.625901 0.172959 0.463469 0.173067
H18   H     H_    0.799452 0.621612 0.430685 0.114268
H19   H     H_    0.817467 0.336043 0.608144 0.127755
H20   H     H_    0.977235 0.688708 0.385196 0.146395
N1    N     N_R   0.798200 0.480260 0.519790 -0.087417
N2    N     N_R   0.201820 0.519740 0.480210 -0.101029
O1    O     O_R   0.579910 0.341070 0.505280 -0.613530
O2    O     O_R   0.523696 0.229164 0.178218 -0.791245
O3    O     O_2   0.960655 0.503738 0.045780 -0.670308
O4    O     O_R   0.919812 0.461924 0.199239 -0.798816
O5    O     O_R   0.388440 0.353740 0.492580 -0.639837
O6    O     O_R   0.643280 0.490550 0.663120 -0.618662
O7    O     O_R   0.451810 0.503220 0.650420 -0.613436
O8    O     O_R   0.611560 0.646260 0.507420 -0.628654
O9    O     O_R   0.420090 0.658930 0.494720 -0.626113
O10   O     O_R   0.548190 0.496780 0.349580 -0.571559
O11   O     O_R   0.356720 0.509450 0.336880 -0.617443
O12   O     O_2   0.644312 0.352913 0.291364 -0.605214
Zn1   Zn    Zn3+2 0.627850 0.491540 0.508480 0.977258
Zn2   Zn    Zn3+2 0.372150 0.508460 0.491520 0.942283

loop_
_geom_bond_atom_site_label_1
_geom_bond_atom_site_label_2
_ccdc_geom_bond_type
C35   C36   A    
C22   H19   S    
C26   H6    S    
C12   C23   A    
C1    C5    S    
C28   C29   A    
C21   N1    A    
C29   C32   S    
C38   H1    S    
C27   C38   A    
C36   H9    S    
C34   C35   A    
C35   H4    S    
C26   C34   A    
C19   C20   A    
C8    C9    A    
C1    O5    A    
C25   O11   A    
C9    C10   A    
N1    Zn1   S    
C3    C13   A    
C13   C14   A    
C31   O2    S    
C11   H10   S    
C8    H17   S    
C15   C20   A    
C28   H7    S    
C16   O9    A    
C32   O4    S    
C22   N1    A    
C5    C7    A    
C18   C19   A    
O1    Zn1   S    
O8    Zn1   S    
O6    Zn1   S    
C33   C37   A    
O5    Zn2   S    
C31   C37   S    
C2    C4    S    
C9    C14   A    
C29   C30   A    
C21   H18   S    
O10   Zn1   S    
C33   C34   A    
O9    Zn2   S    
O7    Zn2   S    
C16   O8    A    
C18   N2    A    
C31   O12   D    
C15   H20   S    
C22   C24   A    
C5    C8    A    
C15   C17   A    
H11   O2    S    
C12   C30   A    
C30   H8    S    
C26   C38   A    
H13   O4    S    
C32   O3    D    
C4    O7    A    
C1    O1    A    
C6    C10   A    
O11   Zn2   S    
C6    C7    A    
C25   C27   S    
C19   C24   A    
C18   H5    S    
C4    O6    A    
C27   C37   A    
N2    Zn2   S    
C24   H2    S    
C17   H3    S    
C3    C11   A    
C10   C11   A    
C17   N2    A    
C13   H12   S    
C14   H15   S    
C20   C21   A    
C23   C36   A    
C2    C23   A    
C2    C28   A    
C25   O10   A    
C7    H16   S    
C6    H14   S    
C12   C33   A    
C3    C16   S    
