data_mof_unit_64627.cif
_audit_creation_date              2012-12-11T17:27:16-0500
_audit_creation_method            fapswitch 2.2
_symmetry_space_group_name_H-M    P1
_symmetry_Int_Tables_number       1
_space_group_crystal_system       triclinic
_cell_length_a                    6.953769
_cell_length_b                    21.246205
_cell_length_c                    22.925855
_cell_angle_alpha                 92.989487
_cell_angle_beta                  89.097743
_cell_angle_gamma                 89.491775
_cell_volume                      3381.90525792

loop_
_atom_site_label
_atom_site_type_symbol
_atom_type_description
_atom_site_fract_x
_atom_site_fract_y
_atom_site_fract_z
_atom_type_partial_charge
O1    O     O_R   0.494570 0.443040 0.441850 -0.534008
O2    O     O_R   0.823720 0.437670 0.557760 -0.538773
O3    O     O_R   0.994070 0.556960 0.558150 -0.524829
C1    C     C_R   0.654418 0.422782 0.577117 0.714795
O4    O     O_R   0.824280 0.435690 0.442260 -0.537572
O5    O     O_R   0.994640 0.554970 0.441830 -0.526385
C2    C     C_R   0.657207 0.420356 0.422970 0.747680
O6    O     O_R   0.494000 0.445030 0.558170 -0.536406
O7    O     O_3   0.660820 0.539140 0.499990 -0.358537
V1    V     V_3+5 0.935650 0.492740 0.500000 1.463975
O8    O     O_R   0.324360 0.562330 0.442240 -0.525951
C3    C     C_R   0.155976 0.577006 0.422544 0.723618
O9    O     O_R   0.323800 0.564310 0.557740 -0.525253
C4    C     C_R   0.153188 0.582230 0.580000 0.698649
V2    V     V_3+5 0.435660 0.507260 0.500000 1.480625
O10   O     O_3   0.160620 0.460860 0.500010 -0.367222
C5    C     C_1   0.139775 0.633392 0.631294 -0.185574
C6    C     C_1   0.128902 0.675081 0.673603 0.030783
C7    C     C_1   0.115947 0.724853 0.724344 0.019413
C8    C     C_1   0.105129 0.766418 0.766761 0.020791
C9    C     C_1   0.092153 0.816188 0.817503 0.034715
C10   C     C_1   0.081223 0.857872 0.859815 -0.177678
C11   C     C_R   0.264036 0.749629 0.284711 0.356502
C12   C     C_R   0.123654 0.702835 0.291057 -0.193672
C13   C     C_R   0.969732 0.699126 0.251679 0.351182
C14   C     C_R   0.956270 0.741735 0.206512 0.357319
C15   C     C_R   0.096668 0.788521 0.200160 -0.194594
C16   C     C_R   0.250569 0.792240 0.239545 0.353387
C17   C     C_1   0.137164 0.658657 0.337880 0.227348
C18   C     C_1   0.083202 0.832671 0.153315 0.231578
C19   C     C_1   0.073505 0.869621 0.114557 -0.101647
C20   C     C_1   0.146872 0.621675 0.376613 -0.112543
H1    H     H_    0.355805 0.325840 0.738241 0.171078
C21   C     C_R   0.455615 0.246168 0.783963 0.403318
C22   C     C_R   0.600442 0.199908 0.788267 -0.120924
C23   C     C_R   0.759161 0.199318 0.749100 0.418406
C24   C     C_R   0.773155 0.244676 0.706402 0.163920
C25   C     C_R   0.626467 0.290611 0.702215 -0.054396
C26   C     C_R   0.468910 0.290762 0.741093 -0.201081
C27   C     C_1   0.586920 0.153434 0.832762 0.184460
C28   C     C_1   0.635708 0.337636 0.658237 0.008821
C29   C     C_1   0.643954 0.376600 0.621382 -0.180174
C30   C     C_1   0.576798 0.114742 0.869828 -0.095058
H2    H     H_    0.368135 0.332407 0.259930 0.135488
C31   C     C_R   0.453858 0.249571 0.207350 0.182237
C32   C     C_R   0.591573 0.200809 0.200532 0.026279
C33   C     C_R   0.744681 0.196315 0.239366 0.358350
C34   C     C_R   0.760936 0.241174 0.285117 -0.185024
H3    H     H_    0.878786 0.238267 0.315297 0.167675
C35   C     C_R   0.625040 0.289646 0.291872 0.033183
C36   C     C_R   0.472170 0.294236 0.253638 -0.160811
C37   C     C_1   0.577064 0.155645 0.153403 0.101080
C38   C     C_1   0.641331 0.335037 0.338458 -0.001275
C39   C     C_1   0.651044 0.373837 0.377405 -0.174392
C40   C     C_1   0.568297 0.117206 0.114128 -0.111990
O11   O     O_R   0.726340 0.046440 0.933120 -0.532907
O12   O     O_R   0.395690 0.055650 0.048950 -0.534502
O13   O     O_R   0.225700 0.936320 0.049330 -0.529689
C41   C     C_R   0.562647 0.071015 0.068297 0.743955
O14   O     O_R   0.396600 0.053690 0.933450 -0.529764
O15   O     O_R   0.226620 0.934340 0.933010 -0.528145
C42   C     C_R   0.565936 0.068672 0.914173 0.704925
O16   O     O_R   0.725420 0.048420 0.049440 -0.529498
O17   O     O_3   0.559650 0.952270 0.991250 -0.368400
V3    V     V_3+5 0.284670 0.998570 0.991180 1.527612
O18   O     O_R   0.896930 0.926880 0.933340 -0.528771
C43   C     C_R   0.067624 0.909024 0.911114 0.696871
O19   O     O_R   0.896010 0.928840 0.048840 -0.528106
C44   C     C_R   0.064383 0.914251 0.068597 0.725421
V4    V     V_3+5 0.784710 0.983880 0.991060 1.522520
O20   O     O_3   0.059600 0.030370 0.991120 -0.358609
Cl1   Cl    Cl    0.427491 0.850722 0.232519 -0.472616
N1    N     N_3   0.298660 0.253719 0.166943 -0.630938
H4    H     H_    0.209427 0.215107 0.172490 0.272105
H5    H     H_    0.214677 0.293985 0.177094 0.242173
Cl2   Cl    Cl    0.917630 0.135114 0.231913 -0.620339
Cl3   Cl    Cl    0.457834 0.755158 0.333616 -0.479270
Cl4   Cl    Cl    0.792768 0.640660 0.258715 -0.506498
Cl5   Cl    Cl    0.762456 0.736211 0.157612 -0.494028
Cl6   Cl    Cl    0.255243 0.249841 0.832005 -0.569398
Cl7   Cl    Cl    0.942052 0.141507 0.752827 -0.541387
N2    N     N_3   0.937194 0.243394 0.667650 -0.569224
H6    H     H_    0.888817 0.238015 0.624746 0.240392
H7    H     H_    0.006488 0.286759 0.672596 0.235229

loop_
_geom_bond_atom_site_label_1
_geom_bond_atom_site_label_2
_ccdc_geom_bond_type
C40   C41   S    
N1    H4    S    
C7    C8    T    
C1    O6    A    
O18   V4    S    
C31   C32   A    
C14   C15   A    
H1    C26   S    
C31   N1    S    
C23   C24   A    
C33   Cl2   S    
C6    C7    S    
C17   C20   T    
O5    C3    A    
C18   C19   T    
O12   C41   A    
C31   C36   A    
V2    O10   S    
C32   C37   S    
O14   C42   A    
C21   C22   A    
C28   C29   T    
C12   C17   S    
C21   Cl6   S    
O8    V2    S    
C27   C30   T    
C22   C23   A    
O19   C44   A    
C11   C12   A    
V4    O20   S    
O1    V2    S    
O17   V4    S    
O7    V1    S    
C37   C40   T    
C34   C35   A    
O18   C43   A    
O9    C4    A    
C3    C20   S    
C15   C18   S    
N1    H5    S    
C4    C5    S    
C16   Cl1   S    
C35   C36   A    
C35   C38   S    
C21   C26   A    
C12   C13   A    
C25   C28   S    
O4    C2    A    
C13   C14   A    
C38   C39   T    
C13   Cl4   S    
O2    C1    A    
C24   C25   A    
O15   C43   A    
O13   V3    S    
C33   C34   A    
O16   V4    S    
C23   Cl7   S    
C5    C6    T    
C11   C16   A    
C11   Cl3   S    
O3    C4    A    
H2    C36   S    
C34   H3    S    
O14   V3    S    
O6    V2    S    
N2    H7    S    
O9    V2    S    
O11   C42   A    
C24   N2    S    
O2    V1    S    
C32   C33   A    
O1    C2    A    
C41   O16   A    
O12   V3    S    
O5    V1    S    
O8    C3    A    
O13   C44   A    
O11   V4    S    
C14   Cl5   S    
O17   V3    S    
C22   C27   S    
O7    V2    S    
O4    V1    S    
O3    V1    S    
V3    O20   S    
C25   C26   A    
C1    C29   S    
C10   C43   S    
O15   V3    S    
C19   C44   S    
C8    C9    S    
O19   V4    S    
N2    H6    S    
C15   C16   A    
V1    O10   S    
C2    C39   S    
C9    C10   T    
C30   C42   S    
