data_mof_unit_47305.cif
_audit_creation_date              2013-03-05T15:54:01-0500
_audit_creation_method            fapswitch 2.2
_symmetry_space_group_name_H-M    P1
_symmetry_Int_Tables_number       1
_space_group_crystal_system       triclinic
_cell_length_a                    15.742419
_cell_length_b                    10.724369
_cell_length_c                    9.913896
_cell_angle_alpha                 89.767692
_cell_angle_beta                  90.482235
_cell_angle_gamma                 92.063076
_cell_volume                      1672.58243342

loop_
_atom_site_label
_atom_site_type_symbol
_atom_site_description
_atom_site_fract_x
_atom_site_fract_y
_atom_site_fract_z
_atom_type_partial_charge
O1    O     O_R   0.500000 0.316780 0.614690 -0.651507
O2    O     O_R   0.499990 0.316750 0.385360 -0.641958
C1    C     C_R   0.505553 0.260107 0.501509 0.883431
O3    O     O_R   0.377150 0.500020 0.614720 -0.626897
O4    O     O_R   0.377140 0.499990 0.385380 -0.625302
C2    C     C_R   0.338455 0.499390 0.499584 0.899770
Zn1   Zn    Zn3+2 0.500010 0.500020 0.653130 0.922366
Zn2   Zn    Zn3+2 0.499990 0.499980 0.346870 0.956357
O5    O     O_R   0.500010 0.683250 0.614640 -0.662235
O6    O     O_R   0.500000 0.683220 0.385310 -0.613945
O7    O     O_R   0.622860 0.500010 0.614620 -0.650027
O8    O     O_R   0.622850 0.499980 0.385280 -0.599148
C3    C     C_R   0.491623 0.738868 0.500169 0.884270
C4    C     C_R   0.661589 0.500106 0.500455 0.912671
C5    C     C_3   0.046946 0.406954 0.614208 -0.167878
C6    C     C_3   0.046417 0.451610 0.359812 -0.170204
C7    C     C_3   0.947951 0.446135 0.364171 -0.418983
H1    H     H_    0.921706 0.312557 0.597564 0.210462
H2    H     H_    0.065449 0.309941 0.592409 0.185673
H3    H     H_    0.066197 0.522855 0.282895 0.208209
H4    H     H_    0.922290 0.348666 0.351087 0.172431
H5    H     H_    0.921880 0.499914 0.278246 0.228075
C8    C     C_1   0.750422 0.498671 0.501530 -0.135238
C9    C     C_3   0.082700 0.495143 0.500020 0.103027
C10   C     C_3   0.948386 0.408955 0.614014 -0.534777
C11   C     C_3   0.917191 0.496943 0.500951 0.179714
C12   C     C_3   0.955360 0.630795 0.529116 0.192754
C13   C     C_3   0.053586 0.630186 0.523219 -0.479188
C14   C     C_1   0.825687 0.497486 0.501705 -0.023845
C15   C     C_1   0.174405 0.496522 0.498936 -0.030133
C16   C     C_1   0.249668 0.497913 0.498733 -0.106617
H6    H     H_    0.081168 0.669103 0.618434 0.163213
H7    H     H_    0.078243 0.692426 0.441211 0.226819
H8    H     H_    0.937835 0.656235 0.634015 0.112125
H9    H     H_    0.923980 0.439668 0.713267 0.183274
H10   H     H_    0.510982 0.112240 0.287607 0.171784
C17   C     C_R   0.524470 0.110771 0.759195 -0.149404
H11   H     H_    0.562357 0.196002 0.770978 0.170283
C18   C     C_R   0.499503 0.049334 0.877429 -0.125866
H12   H     H_    0.513864 0.090990 0.974667 0.137074
C19   C     C_R   0.453919 0.936264 0.869933 -0.076112
H13   H     H_    0.430878 0.890966 0.961006 0.141044
C20   C     C_R   0.441169 0.878986 0.745162 -0.117992
H14   H     H_    0.405169 0.791185 0.743177 0.161576
C21   C     C_R   0.473865 0.935341 0.625827 0.102422
C22   C     C_R   0.503300 0.059618 0.630750 0.121011
C23   C     C_R   0.509486 0.126248 0.506492 -0.110938
C24   C     C_R   0.505096 0.063506 0.383257 -0.202542
H15   H     H_    0.497365 0.889287 0.285162 0.176336
C25   C     C_R   0.494215 0.936454 0.381379 -0.180391
C26   C     C_R   0.481160 0.871425 0.502080 -0.126316
H16   H     H_    0.591922 0.643338 0.130548 0.195877
C27   C     C_R   0.389601 0.334371 0.139079 -0.213782
H17   H     H_    0.384869 0.330678 0.246038 0.228830
C28   C     C_R   0.335874 0.251275 0.069009 -0.231625
H18   H     H_    0.294258 0.188155 0.125519 0.216825
C29   C     C_R   0.335450 0.249646 0.928476 0.344351
C30   C     C_R   0.389748 0.333652 0.859331 -0.230480
H19   H     H_    0.386677 0.330710 0.752448 0.242473
C31   C     C_R   0.445851 0.417748 0.927411 0.085511
C32   C     C_R   0.445838 0.417976 0.071744 0.162441
N1    N     N_R   0.499210 0.498800 0.142780 -0.137563
C33   C     C_R   0.550802 0.579572 0.073501 -0.074788
C34   C     C_R   0.551305 0.580972 0.930212 -0.009373
N2    N     N_R   0.499180 0.498720 0.857170 -0.160591
C35   C     C_2   0.082568 0.440330 0.752247 0.471814
H20   H     H_    0.067337 0.527775 0.799400 0.066456
O9    O     O_2   0.128126 0.368671 0.812514 -0.493796
N3    N     N_R   0.921363 0.725025 0.437285 0.223203
O10   O     O_R   0.874224 0.811587 0.484759 -0.368662
O11   O     O_R   0.940737 0.727223 0.309910 -0.384557
N4    N     N_R   0.280351 0.162655 0.855867 0.241300
O12   O     O_R   0.229563 0.085262 0.920412 -0.346953
O13   O     O_R   0.281200 0.158731 0.724657 -0.395517
C36   C     C_2   0.609077 0.673539 0.862877 0.416585
H21   H     H_    0.619828 0.671808 0.756363 0.150841
O14   O     O_2   0.646698 0.755340 0.927568 -0.576496
C37   C     C_2   0.079673 0.327884 0.314871 0.432738
H22   H     H_    0.063343 0.242816 0.369837 0.088197
O15   O     O_2   0.124672 0.322416 0.215501 -0.521986

loop_
_geom_bond_atom_site_label_1
_geom_bond_atom_site_label_2
_geom_bond_distance
_ccdc_geom_bond_type
C35   O9    1.220942 D    
C28   H18   1.082805 S    
C19   H13   1.082607 S    
C20   H14   1.081548 S    
C18   C19   1.388549 A    
C27   H17   1.064096 S    
C5    H2    1.112968 S    
C11   C12   1.561388 S    
N1    C33   1.354862 A    
C7    C11   1.551201 S    
C8    C14   1.185354 T    
C15   C16   1.184397 T    
O7    C4    1.290078 A    
C37   O15   1.221063 D    
C5    C10   1.552474 S    
C21   C26   1.415272 A    
C30   C31   1.409434 A    
N3    O11   1.301502 A    
O5    C3    1.287933 A    
C3    C26   1.437192 S    
C27   C32   1.407577 A    
C6    C7    1.550055 S    
C12   N3    1.469618 S    
C6    H3    1.115510 S    
C24   C25   1.367322 A    
C2    C16   1.397201 S    
C6    C9    1.564934 S    
C19   C20   1.393125 A    
N3    O10   1.301152 A    
H1    C10   1.113871 S    
O3    Zn1   1.968097 S    
C27   C28   1.390295 A    
C12   H8    1.115612 S    
C13   H6    1.112215 S    
C35   H20   1.084941 S    
N4    O13   1.301844 A    
C18   H12   1.082847 S    
C37   H22   1.084780 S    
C10   C11   1.550326 S    
C21   C22   1.396103 A    
C5    C35   1.513931 S    
H16   C33   1.082414 S    
C7    H4    1.114655 S    
C31   C32   1.430914 A    
O1    C1    1.283381 A    
C4    C8    1.399045 S    
Zn1   O7    1.974434 S    
C36   H21   1.071191 S    
C17   H11   1.079493 S    
Zn1   N2    2.022973 S    
C20   C21   1.418417 A    
C23   C24   1.397164 A    
Zn2   O8    1.968096 S    
C25   C26   1.395545 A    
C36   O14   1.221646 D    
C10   H9    1.114652 S    
O3    C2    1.289211 A    
C5    C9    1.567329 S    
O8    C4    1.289929 A    
C31   N2    1.377040 A    
C28   C29   1.393368 A    
Zn1   O5    2.000213 S    
C22   C23   1.423898 A    
O1    Zn1   2.003254 S    
O2    Zn2   2.000214 S    
C9    C13   1.553274 S    
N4    O12   1.301586 A    
O6    C3    1.297648 A    
C13   H7    1.113311 S    
O4    Zn2   1.974434 S    
C7    H5    1.110814 S    
C34   N2    1.385233 A    
O2    C1    1.303483 A    
C30   H19   1.060873 S    
C17   C18   1.394773 A    
C29   C30   1.400575 A    
O4    C2    1.289986 A    
C1    C23   1.439748 S    
C34   C36   1.482601 S    
H10   C24   1.083940 S    
C6    C37   1.513920 S    
C29   N4    1.441381 S    
C32   N1    1.376869 A    
C9    C15   1.443340 S    
C33   C34   1.420652 A    
C11   C14   1.440798 S    
Zn2   O6    2.003255 S    
H15   C25   1.083849 S    
C12   C13   1.548158 S    
C17   C22   1.420883 A    
Zn2   N1    2.023349 S    
