data_mof_unit_27251.cif
_audit_creation_date              2012-12-10T18:59:53-0500
_audit_creation_method            fapswitch 2.2
_symmetry_space_group_name_H-M    P1
_symmetry_Int_Tables_number       1
_space_group_crystal_system       triclinic
_cell_length_a                    10.706941
_cell_length_b                    10.703245
_cell_length_c                    9.818074
_cell_angle_alpha                 90.062592
_cell_angle_beta                  89.905345
_cell_angle_gamma                 90.344429
_cell_volume                      1125.11906298

loop_
_atom_site_label
_atom_site_type_symbol
_atom_type_description
_atom_site_fract_x
_atom_site_fract_y
_atom_site_fract_z
_atom_type_partial_charge
C1    C     C_R   0.499932 0.259833 0.499907 0.858354
C2    C     C_R   0.500066 0.740166 0.500092 0.858369
C3    C     C_R   0.872453 0.492913 0.500254 -0.079271
C4    C     C_R   0.127548 0.507085 0.499748 -0.079266
C5    C     C_R   0.938442 0.440994 0.610450 -0.002683
C6    C     C_R   0.061559 0.559006 0.389554 -0.002697
C7    C     C_R   0.531792 0.064033 0.380506 -0.208915
C8    C     C_R   0.468229 0.935966 0.619486 -0.208929
C9    C     C_R   0.531981 0.936066 0.380656 -0.214135
C10   C     C_R   0.468034 0.063934 0.619335 -0.214165
C11   C     C_R   0.500104 0.872554 0.500109 -0.005276
C12   C     C_R   0.499901 0.127445 0.499887 -0.005276
C13   C     C_R   0.575374 0.580334 0.071961 -0.081343
C14   C     C_R   0.424627 0.419664 0.928039 -0.081374
C15   C     C_R   0.575342 0.580299 0.927908 -0.058726
C16   C     C_R   0.424659 0.419699 0.072092 -0.058743
C17   C     C_R   0.260053 0.503888 0.499893 0.872918
C18   C     C_R   0.739947 0.496113 0.500108 0.872902
C19   C     C_R   0.254753 0.792258 0.187418 -0.121333
C20   C     C_R   0.745205 0.207795 0.812600 -0.121335
C21   C     C_R   0.193382 0.733817 0.296133 -0.105317
C22   C     C_R   0.806570 0.266225 0.703879 -0.105227
C23   C     C_R   0.122490 0.624765 0.273854 0.140608
C24   C     C_R   0.877513 0.375250 0.726155 0.140610
C25   C     C_R   0.112408 0.576327 0.141209 -0.169131
C26   C     C_R   0.887652 0.423671 0.858803 -0.169183
C27   C     C_R   0.174064 0.635008 0.032856 -0.139641
C28   C     C_R   0.825998 0.365005 0.967160 -0.139655
C29   C     C_R   0.245513 0.742633 0.056018 -0.106904
C30   C     C_R   0.754497 0.257407 0.944001 -0.106903
C31   C     C_R   0.933509 0.549932 0.390740 -0.260549
C32   C     C_R   0.066492 0.450068 0.609263 -0.260553
H1    H     H_    0.293774 0.787498 0.972168 0.118569
H2    H     H_    0.706238 0.212551 0.027854 0.118579
H3    H     H_    0.635729 0.644217 0.873105 0.125382
H4    H     H_    0.364273 0.355781 0.126895 0.125380
H5    H     H_    0.309868 0.875757 0.205111 0.128717
H6    H     H_    0.690055 0.124315 0.794911 0.128710
H7    H     H_    0.058892 0.491924 0.122380 0.122069
H8    H     H_    0.941214 0.508050 0.877633 0.122084
H9    H     H_    0.167334 0.596471 0.931120 0.132921
H10   H     H_    0.832769 0.403529 0.068897 0.132925
H11   H     H_    0.881201 0.591531 0.307917 0.155785
H12   H     H_    0.118801 0.408471 0.692087 0.155783
H13   H     H_    0.557449 0.112969 0.287891 0.149463
H14   H     H_    0.442581 0.887030 0.712099 0.149473
H15   H     H_    0.635695 0.644362 0.126651 0.117388
H16   H     H_    0.364307 0.355636 0.873349 0.117392
N1    N     N_R   0.499970 0.499970 0.857200 -0.074421
N2    N     N_R   0.500030 0.500030 0.142800 -0.074418
O1    O     O_R   0.499990 0.316750 0.614620 -0.623643
O2    O     O_R   0.500010 0.683250 0.385380 -0.623633
O3    O     O_R   0.499990 0.316780 0.385290 -0.631468
O4    O     O_R   0.500010 0.683220 0.614710 -0.631473
O5    O     O_R   0.316760 0.500000 0.614660 -0.631896
O6    O     O_R   0.683240 0.500000 0.385340 -0.631890
O7    O     O_R   0.316760 0.500020 0.385330 -0.605220
O8    O     O_R   0.683240 0.499980 0.614670 -0.605220
Zn1   Zn    Zn3+2 0.500000 0.499980 0.653120 0.945737
Zn2   Zn    Zn3+2 0.500000 0.500020 0.346880 0.945745
H17   H     H_    0.202167 0.772493 0.397698 0.103124
H18   H     H_    0.797742 0.227561 0.602313 0.103102
H19   H     H_    0.557686 0.887191 0.288102 0.148861
H20   H     H_    0.442326 0.112808 0.711887 0.148861

loop_
_geom_bond_atom_site_label_1
_geom_bond_atom_site_label_2
_ccdc_geom_bond_type
C10   H20   S    
C14   H16   S    
C31   H11   S    
O5    Zn1   S    
C22   H18   S    
C20   H6    S    
C19   H5    S    
C17   O5    A    
C21   H17   S    
N1    Zn1   S    
C18   O6    A    
C5    C32   A    
N2    Zn2   S    
C7    C9    A    
C28   C30   A    
C6    C31   A    
C32   H12   S    
C20   C30   A    
C16   H4    S    
C15   N1    A    
C3    C31   A    
C9    C11   A    
C26   H8    S    
C4    C32   A    
C1    C12   S    
C2    O2    A    
C8    C11   A    
C4    C17   S    
C10   C12   A    
C28   H10   S    
C19   C21   A    
O3    Zn2   S    
C20   C22   A    
C14   C16   A    
O4    Zn1   S    
C13   C15   A    
C21   C23   A    
C7    C12   A    
C16   N2    A    
C22   C24   A    
C14   N1    A    
O1    Zn1   S    
C30   H2    S    
C13   N2    A    
C19   C29   A    
C7    H13   S    
C17   O7    A    
C23   C25   A    
C27   C29   A    
C3    C18   S    
C4    C6    A    
C2    O4    A    
C15   H3    S    
C13   H15   S    
C1    O3    A    
C5    C24   S    
O7    Zn2   S    
C2    C11   S    
C1    O1    A    
O2    Zn2   S    
C8    H14   S    
O8    Zn1   S    
C6    C23   S    
C9    H19   S    
C26   C28   A    
C18   O8    A    
C8    C10   A    
C25   H7    S    
O6    Zn2   S    
C29   H1    S    
C24   C26   A    
C27   H9    S    
C3    C5    A    
C25   C27   A    
