data_mof_unit_37566.cif
_audit_creation_date              2012-12-10T17:51:59-0500
_audit_creation_method            fapswitch 2.2
_symmetry_space_group_name_H-M    P1
_symmetry_Int_Tables_number       1
_space_group_crystal_system       triclinic
_cell_length_a                    14.690697
_cell_length_b                    14.763005
_cell_length_c                    19.353219
_cell_angle_alpha                 76.371268
_cell_angle_beta                  102.6052
_cell_angle_gamma                 114.4734
_cell_volume                      3677.94579004

loop_
_atom_site_label
_atom_site_type_symbol
_atom_type_description
_atom_site_fract_x
_atom_site_fract_y
_atom_site_fract_z
_atom_type_partial_charge
C1    C     C_R   0.880631 0.312716 0.510516 0.808153
C2    C     C_R   0.119311 0.687290 0.489512 0.809092
C3    C     C_R   0.812740 0.206102 0.522677 -0.087264
C4    C     C_R   0.186879 0.794016 0.477465 -0.085280
C5    C     C_R   0.766455 0.059601 0.614400 -0.188973
C6    C     C_R   0.232770 0.940922 0.386053 -0.193364
C7    C     C_R   0.840147 0.144393 0.582960 -0.191399
C8    C     C_R   0.159274 0.855704 0.417255 -0.199041
C9    C     C_R   0.713481 0.172509 0.484570 -0.072489
C10   C     C_R   0.285874 0.828028 0.515836 -0.076236
C11   C     C_R   0.639154 0.079785 0.513383 0.041781
C12   C     C_R   0.360058 0.920980 0.487170 0.038342
C13   C     C_R   0.665674 0.032127 0.583129 0.143275
C14   C     C_R   0.333511 0.968670 0.417433 0.143878
C15   C     C_R   0.537450 0.036791 0.479484 0.057511
C16   C     C_R   0.461705 0.964115 0.521119 0.056015
C17   C     C_R   0.490048 0.939176 0.595230 -0.215920
C18   C     C_R   0.509085 0.061781 0.405378 -0.210940
C19   C     C_R   0.590613 0.964107 0.623854 -0.217825
C20   C     C_R   0.408536 0.036883 0.376766 -0.221299
C21   C     C_R   0.717668 0.671356 0.380666 -0.109847
C22   C     C_R   0.277250 0.321175 0.613055 -0.108500
C23   C     C_R   0.999604 0.499908 0.632228 0.792484
C24   C     C_R   0.000462 0.500177 0.367761 0.791323
C25   C     C_R   0.798348 0.639685 0.400148 0.044807
C26   C     C_R   0.199049 0.356374 0.596662 0.046968
C27   C     C_R   0.714589 0.509548 0.489591 0.025409
C28   C     C_R   0.285978 0.491361 0.511032 0.022081
C29   C     C_R   0.628899 0.536217 0.472800 -0.047597
C30   C     C_R   0.370487 0.462942 0.526336 -0.047251
C31   C     C_R   0.632431 0.620238 0.417921 0.106255
C32   C     C_R   0.364970 0.376019 0.578780 0.106527
C33   C     C_R   0.540996 0.483162 0.508824 0.086847
C34   C     C_R   0.458964 0.516809 0.490959 0.086686
C35   C     C_R   0.468324 0.603448 0.438509 -0.241080
C36   C     C_R   0.532313 0.397382 0.561983 -0.240137
C37   C     C_R   0.552489 0.653351 0.402904 -0.193588
C38   C     C_R   0.447131 0.346003 0.596338 -0.198937
C39   C     C_R   0.008183 0.419047 0.761112 -0.029229
C40   C     C_R   0.992174 0.581126 0.238859 -0.032014
C41   C     C_R   0.008721 0.420139 0.833041 -0.199376
C42   C     C_R   0.991676 0.579999 0.166945 -0.197073
C43   C     C_R   0.000600 0.501087 0.853626 0.021466
C44   C     C_R   0.999833 0.499054 0.146392 0.021050
C45   C     C_R   0.992240 0.581922 0.801032 -0.200582
C46   C     C_R   0.008259 0.418279 0.199014 -0.201149
C47   C     C_R   0.991556 0.582056 0.728717 -0.041221
C48   C     C_R   0.008828 0.418142 0.271313 -0.039623
C49   C     C_R   0.999287 0.500160 0.708085 -0.124130
C50   C     C_R   0.000902 0.499967 0.291907 -0.125162
C51   C     C_R   0.999898 0.499415 0.070161 0.425860
C52   C     C_R   0.000580 0.500724 0.929863 0.425973
Cu1   Cu    Cu3+1 0.081740 0.475680 0.518680 0.968908
Cu2   Cu    Cu3+1 0.918260 0.524320 0.481320 0.967947
H1    H     H_    0.554513 0.719629 0.363671 0.158971
H2    H     H_    0.446798 0.281985 0.637482 0.158133
H3    H     H_    0.281952 0.553859 0.470498 0.129250
H4    H     H_    0.720095 0.449292 0.531833 0.128827
H5    H     H_    0.131013 0.314898 0.621491 0.154477
H6    H     H_    0.864594 0.678533 0.373130 0.154200
H7    H     H_    0.411616 0.635463 0.423308 0.132629
H8    H     H_    0.590146 0.366869 0.578481 0.133145
H9    H     H_    0.014871 0.356949 0.872984 0.159236
H10   H     H_    0.985595 0.643201 0.126985 0.160475
H11   H     H_    0.986715 0.645464 0.816162 0.158197
H12   H     H_    0.013967 0.354809 0.183918 0.157091
H13   H     H_    0.609537 0.935573 0.679741 0.147718
H14   H     H_    0.389611 0.065457 0.320887 0.147790
H15   H     H_    0.083152 0.831288 0.388932 0.175845
H16   H     H_    0.916337 0.168577 0.611177 0.179493
H17   H     H_    0.787282 0.019750 0.665980 0.148773
H18   H     H_    0.211891 0.980818 0.334509 0.147145
H19   H     H_    0.435641 0.899818 0.632277 0.162800
H20   H     H_    0.563460 0.101153 0.368312 0.165345
N1    N     N_R   0.991280 0.577855 0.950440 -0.245319
N2    N     N_R   0.009198 0.422282 0.049588 -0.246029
N3    N     N_R   0.990973 0.577199 0.019205 -0.245221
N4    N     N_R   0.009506 0.422939 0.980819 -0.246052
N5    N     N_R   0.795420 0.560800 0.453240 -0.183616
N6    N     N_R   0.204580 0.439200 0.546760 -0.183773
O1    O     O_R   0.977910 0.338110 0.524620 -0.582170
O2    O     O_R   0.022090 0.661890 0.475380 -0.583237
O3    O     O_R   0.839850 0.379180 0.493080 -0.574797
O4    O     O_R   0.160150 0.620820 0.506920 -0.575258
O5    O     O_R   0.069040 0.479450 0.615630 -0.570849
O6    O     O_R   0.930960 0.520550 0.384370 -0.571767
O7    O     O_R   0.930990 0.520520 0.584090 -0.573850
O8    O     O_R   0.069010 0.479480 0.415910 -0.572773
C53   C     C_1   0.013430 0.331776 0.743314 0.225163
N7    N     N_1   0.017531 0.261517 0.729603 -0.332611
C54   C     C_1   0.987363 0.668643 0.256584 0.233486
N8    N     N_1   0.983668 0.739186 0.270153 -0.324262
C55   C     C_R   0.725676 0.757634 0.321545 0.092078
C56   C     C_R   0.802609 0.852709 0.328451 -0.132019
C57   C     C_R   0.811349 0.933867 0.272232 -0.119077
C58   C     C_R   0.743952 0.920456 0.208667 -0.105735
C59   C     C_R   0.667905 0.825776 0.201125 -0.129262
C60   C     C_R   0.658897 0.744408 0.257219 -0.151583
H21   H     H_    0.855375 0.863953 0.377419 0.133321
H22   H     H_    0.870421 0.007127 0.277920 0.138115
H23   H     H_    0.750833 0.983347 0.165189 0.128210
H24   H     H_    0.616074 0.815384 0.151745 0.130692
H25   H     H_    0.600140 0.671200 0.250620 0.127979
C61   C     C_R   0.261608 0.224258 0.662653 0.082872
C62   C     C_R   0.244594 0.213955 0.733262 -0.134073
C63   C     C_R   0.226645 0.121512 0.779253 -0.117046
C64   C     C_R   0.224874 0.038714 0.754963 -0.107525
C65   C     C_R   0.240716 0.048085 0.684546 -0.125708
C66   C     C_R   0.258533 0.140322 0.638363 -0.142641
H26   H     H_    0.245433 0.277469 0.752617 0.131940
H27   H     H_    0.213890 0.114000 0.833694 0.133177
H28   H     H_    0.210869 0.967209 0.790616 0.128639
H29   H     H_    0.238778 0.983780 0.665655 0.133879
H30   H     H_    0.269597 0.146351 0.583667 0.139999
C67   C     C_1   0.986497 0.668848 0.677043 0.225193
N9    N     N_1   0.982586 0.738352 0.635638 -0.284278
C68   C     C_1   0.014200 0.331503 0.323029 0.224218
N10   N     N_1   0.018398 0.262139 0.364479 -0.287903
C69   C     C_R   0.312049 0.757431 0.578114 0.112185
C70   C     C_R   0.382586 0.717326 0.575058 -0.102244
C71   C     C_R   0.403148 0.647417 0.632228 -0.132730
C72   C     C_R   0.352318 0.615649 0.692135 -0.100565
C73   C     C_R   0.281565 0.654520 0.695390 -0.112068
C74   C     C_R   0.261457 0.725224 0.638720 -0.166209
H31   H     H_    0.420948 0.739799 0.528292 0.124075
H32   H     H_    0.457618 0.616922 0.629691 0.137634
H33   H     H_    0.367549 0.560663 0.735949 0.122688
H34   H     H_    0.241891 0.629486 0.741669 0.133209
H35   H     H_    0.206008 0.754333 0.641616 0.120358
C75   C     C_R   0.687133 0.243371 0.422519 0.110624
C76   C     C_R   0.737618 0.276110 0.361815 -0.159622
C77   C     C_R   0.717264 0.346967 0.305389 -0.110303
C78   C     C_R   0.646289 0.385396 0.308935 -0.099979
C79   C     C_R   0.595527 0.353075 0.368906 -0.135080
C80   C     C_R   0.616457 0.283151 0.425894 -0.104305
H36   H     H_    0.793249 0.247373 0.358679 0.124215
H37   H     H_    0.756908 0.372447 0.259066 0.134209
H38   H     H_    0.630835 0.440471 0.265304 0.123243
H39   H     H_    0.540824 0.383171 0.371634 0.135458
H40   H     H_    0.578176 0.260325 0.472732 0.123024

loop_
_geom_bond_atom_site_label_1
_geom_bond_atom_site_label_2
_ccdc_geom_bond_type
C15   C18   A    
C62   H26   S    
C55   C56   A    
C5    H17   S    
C27   C29   A    
C64   H28   S    
C2    O4    A    
C57   C58   A    
Cu2   O2    S    
C4    C8    A    
C52   N1    A    
C7    H16   S    
C59   C60   A    
C73   C74   A    
C39   C41   A    
Cu1   Cu2   S    
C6    H18   S    
C21   C31   A    
C8    H15   S    
C22   C32   A    
Cu1   O4    S    
C35   C37   A    
N2    N4    A    
C46   H12   S    
C27   N5    A    
C61   C66   A    
C36   H8    S    
C43   C52   S    
C23   C49   S    
C63   C64   A    
C1    O1    A    
C15   C16   A    
C29   C33   A    
C33   C36   A    
C22   C61   S    
C65   C66   A    
C18   C20   A    
Cu1   O1    S    
C34   C35   A    
C72   H33   S    
C61   C62   A    
C10   C69   S    
C11   C15   A    
C12   C16   A    
C77   C78   A    
C64   C65   A    
C19   H13   S    
C25   H6    S    
C32   C38   A    
C26   H5    S    
C5    C13   A    
C59   H24   S    
C40   C42   A    
C78   H38   S    
C18   H20   S    
C23   O7    A    
C58   H23   S    
C17   H19   S    
C41   C43   A    
C42   C44   A    
C52   N4    A    
Cu2   O3    S    
C44   C46   A    
C63   H27   S    
C45   C47   A    
C24   C50   S    
C80   H40   S    
C46   C48   A    
C30   C34   A    
C14   C20   A    
Cu1   N6    S    
C51   N2    A    
C47   C49   A    
C76   H36   S    
C54   N8    T    
Cu2   O6    S    
C13   C19   A    
C70   H31   S    
C16   C17   A    
C6    C8    A    
C77   H37   S    
C9    C75   S    
C26   N6    A    
C31   C37   A    
C1    C3    S    
C65   H29   S    
C2    C4    S    
C51   N3    A    
C3    C9    A    
C6    C14   A    
C24   O8    A    
C58   C59   A    
C33   C34   A    
C35   H7    S    
N1    N3    A    
C71   C72   A    
C47   C67   S    
C10   C12   A    
C66   H30   S    
C44   C51   S    
C39   C49   A    
C75   C80   A    
C12   C14   A    
C9    C11   A    
C45   H11   S    
C78   C79   A    
C2    O2    A    
C41   H9    S    
C4    C10   A    
C76   C77   A    
C42   H10   S    
C79   H39   S    
C70   C71   A    
C5    C7    A    
Cu2   N5    S    
C21   C25   A    
C57   H22   S    
C20   H14   S    
C27   H4    S    
C25   N5    A    
C69   C70   A    
C48   C68   S    
C1    O3    A    
C62   C63   A    
C79   C80   A    
C3    C7    A    
C28   C30   A    
C75   C76   A    
C72   C73   A    
C23   O5    A    
C71   H32   S    
C43   C45   A    
C68   N10   T    
C36   C38   A    
C30   C32   A    
C11   C13   A    
C73   H34   S    
Cu2   O7    S    
C21   C55   S    
C56   H21   S    
C40   C50   A    
C48   C50   A    
C17   C19   A    
C74   H35   S    
Cu1   O8    S    
C69   C74   A    
C40   C54   S    
C56   C57   A    
C28   N6    A    
C37   H1    S    
C38   H2    S    
C28   H3    S    
C29   C31   A    
C22   C26   A    
Cu1   O5    S    
C67   N9    T    
C53   N7    T    
C24   O6    A    
C55   C60   A    
C39   C53   S    
C60   H25   S    
