data_mof_unit_33629.cif
_audit_creation_date              2012-12-10T17:02:39-0500
_audit_creation_method            fapswitch 2.2
_symmetry_space_group_name_H-M    P1
_symmetry_Int_Tables_number       1
_space_group_crystal_system       triclinic
_cell_length_a                    15.078012
_cell_length_b                    15.11342
_cell_length_c                    15.45549
_cell_angle_alpha                 96.235011
_cell_angle_beta                  82.58674
_cell_angle_gamma                 89.951911
_cell_volume                      3471.50952288

loop_
_atom_site_label
_atom_site_type_symbol
_atom_type_description
_atom_site_fract_x
_atom_site_fract_y
_atom_site_fract_z
_atom_type_partial_charge
C1    C     C_R   0.262329 0.489187 0.481434 0.558837
C2    C     C_R   0.506724 0.470993 0.118084 -0.121784
C3    C     C_R   0.652876 0.410398 0.131308 0.202138
C4    C     C_R   0.737643 0.516690 0.513474 0.515735
C5    C     C_R   0.440768 0.557722 0.835696 -0.027379
C6    C     C_R   0.168481 0.494612 0.462530 -0.007659
C7    C     C_R   0.832644 0.522260 0.518378 -0.000372
C8    C     C_R   0.955094 0.571288 0.597560 0.275204
C9    C     C_R   0.863517 0.564962 0.592858 -0.082506
C10   C     C_R   0.891859 0.479310 0.450640 -0.099123
C11   C     C_R   0.984417 0.483141 0.453481 -0.078038
C12   C     C_R   0.322835 0.568525 0.960179 0.251312
C13   C     C_R   0.016565 0.536454 0.523939 0.005118
C14   C     C_R   0.108389 0.554323 0.517278 0.221853
C15   C     C_R   0.138051 0.444266 0.388964 0.158656
C16   C     C_R   0.509560 0.261657 0.515723 0.513486
C17   C     C_R   0.045071 0.437585 0.385875 -0.033759
C18   C     C_R   0.506847 0.166346 0.527647 0.005333
C19   C     C_R   0.481133 0.832451 0.476698 -0.022915
C20   C     C_R   0.437484 0.957170 0.403753 0.229538
C21   C     C_R   0.455280 0.865012 0.400919 0.225511
C22   C     C_R   0.500225 0.890729 0.548896 -0.061361
C23   C     C_R   0.378389 0.523126 0.006371 -0.121696
C24   C     C_R   0.499639 0.982744 0.543515 -0.017627
C25   C     C_R   0.470161 0.015960 0.469695 -0.017159
C26   C     C_R   0.476685 0.107296 0.461956 -0.063588
C27   C     C_R   0.530848 0.133368 0.603759 -0.018481
C28   C     C_R   0.486296 0.737180 0.482692 0.555776
C29   C     C_R   0.527794 0.042427 0.610571 -0.096837
C30   C     C_R   0.545375 0.459817 0.263934 0.569304
C31   C     C_R   0.459143 0.541608 0.737886 0.512099
C32   C     C_R   0.677604 0.413094 0.041533 -0.101169
C33   C     C_R   0.567727 0.442471 0.169503 0.039297
C34   C     C_R   0.469568 0.506898 0.974958 -0.007819
C35   C     C_R   0.357447 0.595124 0.877846 0.224381
C36   C     C_1   0.011413 0.379722 0.316594 0.308950
C37   C     C_1   0.557782 0.190296 0.676947 0.262002
C38   C     C_1   0.737770 0.439841 0.860617 0.224911
C39   C     C_1   0.526241 0.854990 0.625820 0.240316
C40   C     C_R   0.500751 0.523077 0.887912 -0.017814
C41   C     C_R   0.530080 0.473599 0.027406 0.035810
C42   C     C_R   0.618743 0.448202 0.989670 0.002455
C43   C     C_R   0.648294 0.463602 0.902647 -0.007049
C44   C     C_R   0.591684 0.506004 0.855499 -0.066736
H1    H     H_    0.815833 0.592483 0.647742 0.162109
H2    H     H_    0.272940 0.529263 0.270815 0.346069
H3    H     H_    0.930217 0.603576 0.836836 0.393364
H4    H     H_    0.255887 0.944057 0.265903 0.393160
H5    H     H_    0.372024 0.677874 0.265376 0.362333
H6    H     H_    0.211262 0.790649 0.882607 0.388184
H7    H     H_    0.137167 0.687200 0.099159 0.381351
H8    H     H_    0.241174 0.749621 0.470807 0.396072
H9    H     H_    0.864569 0.442929 0.396031 0.182793
H10   H     H_    0.461624 0.132907 0.402747 0.211952
H11   H     H_    0.548224 0.018742 0.668816 0.150826
H12   H     H_    0.744652 0.391719 0.013416 0.174942
H13   H     H_    0.444242 0.498604 0.152270 0.140859
H14   H     H_    0.348628 0.501487 0.067576 0.179937
H15   H     H_    0.620914 0.527451 0.793745 0.153608
H16   H     H_    0.804869 0.494640 0.203221 0.354228
N1    N     N_1   0.984092 0.333540 0.261640 -0.120941
N2    N     N_1   0.579298 0.235693 0.735646 -0.229386
N3    N     N_1   0.809162 0.420277 0.826902 -0.181416
N4    N     N_1   0.546987 0.826430 0.686895 -0.223234
O1    O     O_3   0.500000 0.500000 0.500000 -0.500986
O2    O     O_R   0.486020 0.413600 0.304760 -0.473978
O3    O     O_R   0.410760 0.579600 0.689750 -0.463365
O4    O     O_R   0.584420 0.523620 0.304110 -0.489058
O5    O     O_R   0.518800 0.483180 0.701380 -0.560827
O6    O     O_2   0.685392 0.315045 0.260754 -0.240845
O7    O     O_2   0.804930 0.318271 0.137915 -0.222664
O8    O     O_3   0.776029 0.459831 0.249578 -0.504059
O9    O     O_2   0.250692 0.312909 0.310311 -0.170566
O10   O     O_2   0.172165 0.391453 0.212315 -0.210067
O11   O     O_3   0.300850 0.472378 0.280390 -0.513993
O12   O     O_R   0.551580 0.314770 0.565720 -0.527042
O13   O     O_2   0.073040 0.562187 0.713325 -0.201382
O14   O     O_2   0.999318 0.706986 0.710560 -0.173786
O15   O     O_3   0.906951 0.583367 0.781030 -0.519080
O16   O     O_2   0.309261 0.076126 0.384930 -0.252751
O17   O     O_2   0.415080 0.026187 0.254806 -0.209076
O18   O     O_3   0.289704 0.918476 0.308357 -0.419720
O19   O     O_2   0.444510 0.840036 0.224202 -0.159329
O20   O     O_2   0.536042 0.735353 0.282990 -0.265954
O21   O     O_3   0.363976 0.723414 0.317038 -0.489505
O22   O     O_2   0.370885 0.734699 0.781880 -0.244630
O23   O     O_R   0.429950 0.701690 0.536820 -0.507569
O24   O     O_2   0.239256 0.640117 0.774474 -0.162559
O25   O     O_3   0.246412 0.751694 0.913493 -0.420754
O26   O     O_2   0.149056 0.589180 0.937903 -0.180541
O27   O     O_2   0.180744 0.511336 0.061331 -0.235833
O28   O     O_3   0.201007 0.682153 0.073909 -0.446062
O29   O     O_2   0.062675 0.728922 0.534307 -0.223608
O30   O     O_2   0.178044 0.685554 0.620537 -0.148757
O31   O     O_3   0.220826 0.688756 0.453265 -0.492246
O32   O     O_R   0.314790 0.427190 0.441330 -0.470320
O33   O     O_R   0.703670 0.556350 0.456130 -0.503545
O34   O     O_R   0.291500 0.546870 0.537740 -0.475083
O35   O     O_R   0.690030 0.469590 0.564810 -0.536528
O36   O     O_R   0.466830 0.291510 0.457690 -0.519562
O37   O     O_R   0.551640 0.692030 0.439770 -0.496294
S1    S     S_3+6 0.731440 0.372004 0.195192 0.049385
S2    S     S_3+6 0.215120 0.402114 0.295261 0.086115
S3    S     S_3+6 0.987443 0.607866 0.701778 0.098183
S4    S     S_3+6 0.362365 0.997711 0.336201 0.094419
S5    S     S_3+6 0.451791 0.791031 0.302539 0.089030
S6    S     S_3+6 0.303102 0.681436 0.833553 0.131242
S7    S     S_3+6 0.209581 0.585879 0.007542 0.099444
S8    S     S_3+6 0.141180 0.667636 0.534718 0.108428
Zn1   Zn    Zn3+2 0.563990 0.442880 0.581560 0.975579
Zn2   Zn    Zn3+2 0.442900 0.409640 0.427210 1.081073
Zn3   Zn    Zn3+2 0.583480 0.566840 0.426280 1.054043
Zn4   Zn    Zn3+2 0.409620 0.580640 0.564950 1.081026

loop_
_geom_bond_atom_site_label_1
_geom_bond_atom_site_label_2
_ccdc_geom_bond_type
C14   S8    S    
C9    H1    S    
C8    C13   A    
C27   C29   A    
C41   C42   A    
O22   S6    D    
C18   C26   A    
H3    O15   S    
C37   N2    T    
C2    H13   S    
O37   Zn3   S    
C31   O3    A    
C39   N4    T    
C12   C23   A    
O24   S6    D    
C34   C40   A    
C19   C21   A    
C38   N3    T    
C20   C25   A    
H16   O8    S    
C44   H15   S    
H8    O31   S    
C7    C9    A    
O4    Zn3   S    
O18   S4    S    
C10   H9    S    
C24   C29   A    
O1    Zn2   S    
C6    C15   A    
C28   O37   A    
O28   S7    S    
C8    C9    A    
O9    S2    D    
O20   S5    D    
C17   C36   S    
O2    Zn2   S    
C21   S5    S    
C4    O33   A    
O11   S2    S    
C34   C41   A    
C4    C7    S    
C26   H10   S    
H2    O11   S    
O32   Zn2   S    
O17   S4    D    
O14   S3    D    
C1    C6    S    
H5    O21   S    
C19   C22   A    
C24   C25   A    
O31   S8    S    
C12   S7    S    
O33   Zn3   S    
C16   O36   A    
O34   Zn4   S    
C29   H11   S    
C25   C26   A    
O35   Zn1   S    
O16   S4    D    
C43   C44   A    
O1    Zn3   S    
H7    O28   S    
C6    C14   A    
O5    Zn1   S    
H6    O25   S    
C31   O5    A    
C23   C34   A    
O25   S6    S    
C28   O23   A    
C12   C35   A    
C19   C28   S    
C8    S3    S    
C30   O2    A    
C3    S1    S    
C16   C18   S    
O7    S1    D    
C22   C24   A    
O15   S3    S    
C5    C40   A    
C42   C43   A    
C36   N1    T    
C2    C33   A    
C20   S4    S    
C15   C17   A    
C11   C17   A    
C32   C42   A    
C30   C33   S    
C16   O12   A    
O1    Zn4   S    
O27   S7    D    
C18   C27   A    
C1    O34   A    
O6    S1    D    
O30   S8    D    
O19   S5    D    
C7    C10   A    
O3    Zn4   S    
O26   S7    D    
C38   C43   S    
C11   C13   A    
O8    S1    S    
C27   C37   S    
C1    O32   A    
C22   C39   S    
C5    C35   A    
H4    O18   S    
C23   H14   S    
C3    C32   A    
O1    Zn1   S    
O23   Zn4   S    
C35   S6    S    
C10   C11   A    
C40   C44   A    
C20   C21   A    
O36   Zn2   S    
O12   Zn1   S    
C4    O35   A    
C3    C33   A    
O13   S3    D    
C2    C41   A    
C15   S2    S    
C13   C14   A    
C32   H12   S    
C30   O4    A    
O21   S5    S    
O29   S8    D    
O10   S2    D    
C5    C31   S    
