data_mof_unit_44162.cif
_audit_creation_date              2012-12-10T19:42:13-0500
_audit_creation_method            fapswitch 2.2
_symmetry_space_group_name_H-M    P1
_symmetry_Int_Tables_number       1
_space_group_crystal_system       triclinic
_cell_length_a                    10.89393
_cell_length_b                    10.932524
_cell_length_c                    9.71123
_cell_angle_alpha                 90.259095
_cell_angle_beta                  91.107588
_cell_angle_gamma                 90.12272
_cell_volume                      1156.35874472

loop_
_atom_site_label
_atom_site_type_symbol
_atom_type_description
_atom_site_fract_x
_atom_site_fract_y
_atom_site_fract_z
_atom_type_partial_charge
C1    C     C_R   0.504277 0.265699 0.499822 0.843137
C2    C     C_R   0.207060 0.593133 0.977650 -0.083006
C3    C     C_R   0.931562 0.519379 0.379516 -0.209972
C4    C     C_R   0.871979 0.503921 0.504495 -0.085853
C5    C     C_R   0.942342 0.492749 0.627556 0.056952
C6    C     C_R   0.069091 0.490062 0.620818 -0.167793
C7    C     C_R   0.128504 0.505110 0.495838 -0.080599
C8    C     C_R   0.058439 0.522576 0.373629 -0.012430
C9    C     C_R   0.865037 0.596075 0.843195 -0.009455
C10   C     C_R   0.811990 0.585216 0.975016 -0.036140
C11   C     C_R   0.782045 0.468347 0.024566 -0.126096
C12   C     C_R   0.262353 0.502148 0.498409 0.789110
C13   C     C_R   0.806496 0.363584 0.948083 -0.171975
C14   C     C_R   0.860591 0.373124 0.820181 -0.169395
C15   C     C_R   0.888999 0.488070 0.766200 0.110987
C16   C     C_2   0.508596 0.933347 0.395042 -0.199525
C17   C     C_2   0.472774 0.864817 0.502369 0.014897
C18   C     C_2   0.495112 0.066149 0.389844 -0.177745
C19   C     C_2   0.519344 0.134674 0.501176 -0.327149
C20   C     C_2   0.456259 0.410555 0.920952 -0.073394
C21   C     C_2   0.463552 0.407402 0.076328 -0.079572
C22   C     C_R   0.494712 0.734348 0.500297 0.866560
C23   C     C_R   0.737829 0.501246 0.501631 0.801126
C24   C     C_R   0.206849 0.685635 0.077453 -0.147492
C25   C     C_R   0.159398 0.662617 0.207561 -0.100666
C26   C     C_R   0.112113 0.546527 0.238086 0.136505
C27   C     C_R   0.111848 0.454272 0.137378 -0.137004
C28   C     C_R   0.160078 0.477353 0.007980 -0.137969
Cu1   Cu    Cu3+1 0.500020 0.500020 0.638630 0.947240
Cu2   Cu    Cu3+1 0.499980 0.499980 0.361370 0.973435
H1    H     H_    0.244435 0.611044 0.877300 0.164685
H2    H     H_    0.740506 0.457244 0.123740 0.188600
H3    H     H_    0.783500 0.274467 0.988415 0.136150
H4    H     H_    0.878808 0.290703 0.761745 0.125610
H5    H     H_    0.550100 0.890332 0.306265 0.177682
H6    H     H_    0.470339 0.107663 0.291780 0.162868
H7    H     H_    0.553643 0.094402 0.595979 0.153514
H8    H     H_    0.414001 0.332742 0.869053 0.149644
H9    H     H_    0.544173 0.569408 0.895452 0.203320
H10   H     H_    0.435348 0.323460 0.125626 0.148926
H11   H     H_    0.243546 0.775063 0.054035 0.132534
H12   H     H_    0.516016 0.580701 0.106474 0.231168
H13   H     H_    0.159255 0.734837 0.284283 0.129175
H14   H     H_    0.074901 0.364567 0.159445 0.121239
H15   H     H_    0.161727 0.404819 0.932026 0.117110
H16   H     H_    0.879495 0.532069 0.285226 0.190293
H17   H     H_    0.121485 0.478392 0.715209 0.145149
N1    N     N_2   0.498640 0.498660 0.846910 -0.283327
N2    N     N_2   0.498610 0.498630 0.153040 -0.270349
O1    O     O_R   0.500020 0.321960 0.617040 -0.585947
O2    O     O_R   0.499980 0.321920 0.382900 -0.586322
O3    O     O_R   0.319660 0.500030 0.617070 -0.588608
O4    O     O_R   0.319620 0.499990 0.382930 -0.569211
O5    O     O_R   0.500020 0.678080 0.617100 -0.573511
O6    O     O_R   0.499980 0.678040 0.382960 -0.570816
O7    O     O_R   0.680380 0.500010 0.617070 -0.577771
O8    O     O_R   0.680340 0.499970 0.382930 -0.557680
N3    N     N_3   0.400199 0.911476 0.613350 -0.586968
H18   H     H_    0.339840 0.979435 0.578777 0.244637
H19   H     H_    0.457789 0.944188 0.692464 0.215112
C29   C     C_2   0.889144 0.719391 0.784656 0.313707
H20   H     H_    0.830558 0.795896 0.810280 0.050042
O9    O     O_2   0.975024 0.737632 0.708482 -0.536163
C30   C     C_2   0.791459 0.694134 0.064032 0.257471
H21   H     H_    0.834095 0.781184 0.041452 0.075975
O10   O     O_2   0.727446 0.687922 0.165534 -0.554658

loop_
_geom_bond_atom_site_label_1
_geom_bond_atom_site_label_2
_ccdc_geom_bond_type
C14   H4    S    
Cu2   O2    S    
C13   H3    S    
C22   O6    A    
Cu1   O7    S    
Cu1   Cu2   S    
C20   H8    S    
C9    C10   A    
H9    N1    S    
C3    H16   S    
C12   O4    A    
C17   N3    S    
C9    C15   A    
Cu1   O5    S    
C10   C11   A    
C30   H21   S    
C25   H13   S    
C21   N2    D    
C11   H2    S    
N3    H18   S    
C23   O7    A    
C22   O5    A    
C13   C14   A    
C24   C25   A    
C24   H11   S    
C1    O2    A    
C26   C27   A    
C20   N1    D    
C21   H10   S    
C9    C29   S    
C5    C6    A    
C12   O3    A    
Cu2   N2    S    
C1    O1    A    
C3    C8    A    
C6    C7    A    
Cu1   O1    S    
C16   H5    S    
C2    C24   A    
C29   H20   S    
C28   H15   S    
Cu2   O4    S    
C7    C12   S    
C1    C19   S    
C5    C15   S    
C6    H17   S    
H12   N2    S    
N3    H19   S    
C3    C4    A    
Cu2   O8    S    
C11   C13   A    
C8    C26   S    
C20   C21   S    
C16   C18   S    
C18   C19   D    
Cu2   O6    S    
C27   C28   A    
C23   O8    A    
C7    C8    A    
C14   C15   A    
C4    C5    A    
C2    C28   A    
C19   H7    S    
C25   C26   A    
Cu1   N1    S    
C18   H6    S    
C27   H14   S    
C4    C23   S    
C10   C30   S    
C17   C22   S    
C16   C17   D    
C2    H1    S    
C29   O9    D    
Cu1   O3    S    
C30   O10   D    
