data_mof_unit_33115.cif
_audit_creation_date              2012-12-10T17:32:16-0500
_audit_creation_method            fapswitch 2.2
_symmetry_space_group_name_H-M    P1
_symmetry_Int_Tables_number       1
_space_group_crystal_system       triclinic
_cell_length_a                    12.326079
_cell_length_b                    13.146847
_cell_length_c                    15.006717
_cell_angle_alpha                 77.528068
_cell_angle_beta                  100.946059
_cell_angle_gamma                 116.782414
_cell_volume                      2107.73045364

loop_
_atom_site_label
_atom_site_type_symbol
_atom_type_description
_atom_site_fract_x
_atom_site_fract_y
_atom_site_fract_z
_atom_type_partial_charge
C1    C     C_R   0.854980 0.286569 0.505869 0.777470
C2    C     C_R   0.109743 0.578935 0.094423 0.051085
C3    C     C_R   0.787087 0.360067 0.040522 0.158707
C4    C     C_R   0.787579 0.362152 0.946838 -0.245987
C5    C     C_R   0.892639 0.432333 0.902826 0.080617
C6    C     C_R   0.000350 0.502891 0.952370 0.066220
C7    C     C_R   0.106483 0.573253 0.907556 0.126166
C8    C     C_R   0.211486 0.647196 0.954945 -0.217423
C9    C     C_R   0.212593 0.651703 0.046662 -0.173404
C10   C     C_R   0.891740 0.433099 0.809479 -0.231413
C11   C     C_R   0.998387 0.500549 0.766671 -0.049469
C12   C     C_R   0.998758 0.499104 0.670751 0.800076
C13   C     C_R   0.105480 0.569834 0.815332 -0.233227
C14   C     C_R   0.274818 0.025254 0.378490 -0.180621
C15   C     C_R   0.228998 0.835491 0.465345 -0.022936
C16   C     C_R   0.817294 0.081384 0.548134 -0.244086
C17   C     C_R   0.740286 0.963459 0.556328 0.026687
C18   C     C_R   0.615839 0.928058 0.526362 -0.251419
C19   C     C_R   0.568306 0.008818 0.483722 0.054745
C20   C     C_R   0.650932 0.125628 0.462350 0.088754
C21   C     C_R   0.441200 0.976723 0.459808 0.087737
C22   C     C_R   0.400244 0.056604 0.403034 0.161958
C23   C     C_R   0.145337 0.713748 0.486123 0.841303
C24   C     C_R   0.485088 0.166183 0.370529 -0.239352
C25   C     C_R   0.608699 0.200233 0.399359 -0.195330
C26   C     C_R   0.353378 0.868364 0.493107 -0.249373
C27   C     C_R   0.189494 0.914774 0.408922 -0.129511
C28   C     C_R   0.773547 0.163312 0.503466 -0.128642
C29   C     C_R   0.344735 0.326746 0.646199 -0.287863
C30   C     C_R   0.762236 0.648806 0.377838 0.080327
C31   C     C_R   0.669390 0.685402 0.354826 -0.240436
C32   C     C_R   0.566426 0.630857 0.402508 -0.135845
C33   C     C_R   0.554095 0.537744 0.473277 0.013041
C34   C     C_R   0.001878 0.502201 0.329077 0.843180
C35   C     C_R   0.653305 0.505484 0.496248 0.284548
C36   C     C_R   0.448454 0.476942 0.522998 -0.024214
C37   C     C_R   0.446191 0.387737 0.596204 0.175108
C38   C     C_R   0.545162 0.359834 0.619265 -0.276871
C39   C     C_R   0.646264 0.417340 0.570448 -0.180063
C40   C     C_R   0.343597 0.499533 0.503039 0.032122
C41   C     C_R   0.245152 0.353567 0.623434 0.082727
C42   C     C_R   0.110333 0.581519 0.188093 -0.045934
C43   C     C_R   0.004953 0.506594 0.231998 -0.133544
C44   C     C_R   0.899127 0.434848 0.183825 -0.264442
C45   C     C_R   0.895084 0.432020 0.090661 0.089153
C46   C     C_R   0.001898 0.503950 0.046137 0.007697
Cu1   Cu    Cu3+1 0.098270 0.475420 0.521130 0.955378
Cu2   Cu    Cu3+1 0.901730 0.524580 0.478870 0.937783
H1    H     H_    0.455743 0.226511 0.323693 0.149625
H2    H     H_    0.242969 0.085530 0.334445 0.137096
H3    H     H_    0.379611 0.807661 0.541524 0.149115
H4    H     H_    0.911938 0.109479 0.576998 0.190565
H5    H     H_    0.558416 0.836674 0.533638 0.174789
H6    H     H_    0.670353 0.284429 0.369030 0.173865
H7    H     H_    0.166390 0.306692 0.661624 0.130699
H8    H     H_    0.544492 0.292366 0.675737 0.147277
H9    H     H_    0.342401 0.258584 0.702405 0.142081
H10   H     H_    0.820479 0.380941 0.221019 0.151460
H11   H     H_    0.336543 0.564517 0.447717 0.142231
H12   H     H_    0.842515 0.692186 0.341171 0.134278
H13   H     H_    0.499073 0.664455 0.384136 0.147228
H14   H     H_    0.677715 0.756872 0.300505 0.148314
H15   H     H_    0.717411 0.390165 0.594114 0.202573
H16   H     H_    0.705587 0.307905 0.907955 0.141775
H17   H     H_    0.809322 0.379601 0.770497 0.126510
H18   H     H_    0.187034 0.622829 0.780634 0.140291
H19   H     H_    0.292626 0.703061 0.920619 0.147272
H20   H     H_    0.295107 0.713346 0.078812 0.184870
H21   H     H_    0.093442 0.890356 0.386093 0.148869
N1    N     N_R   0.246280 0.438190 0.553160 -0.188582
N2    N     N_R   0.754320 0.561190 0.447410 -0.211154
O1    O     O_R   0.972510 0.318130 0.526570 -0.581179
O2    O     O_R   0.806530 0.359650 0.490890 -0.610186
O3    O     O_R   0.082980 0.479210 0.647590 -0.582438
O4    O     O_R   0.917000 0.520730 0.611900 -0.593385
O5    O     O_R   0.193470 0.640350 0.509110 -0.584986
O6    O     O_R   0.027490 0.681870 0.473430 -0.583359
O7    O     O_R   0.083000 0.479270 0.388100 -0.574915
O8    O     O_R   0.917020 0.520790 0.352410 -0.590327
C47   C     C_2   0.215681 0.667542 0.238616 0.806759
O9    O     O_2   0.199087 0.731996 0.276649 -0.618515
O10   O     O_R   0.333258 0.675551 0.242246 -0.789485
H22   H     H_    0.397309 0.744196 0.271442 0.318474
C48   C     C_2   0.788925 0.876862 0.597816 0.843963
O11   O     O_2   0.897294 0.908000 0.625804 -0.603954
O12   O     O_R   0.711091 0.759108 0.604309 -0.775582
H23   H     H_    0.755215 0.708830 0.632653 0.341874
C49   C     C_3   0.669443 0.281242 0.083560 -0.407137
C50   C     C_3   0.675567 0.171601 0.139216 -0.817842
H24   H     H_    0.688261 0.122285 0.093726 0.254346
H25   H     H_    0.751981 0.191673 0.195040 0.248957
H26   H     H_    0.588802 0.116795 0.170506 0.248118
H27   H     H_    0.648006 0.327068 0.126852 0.196855
H28   H     H_    0.590720 0.255124 0.029589 0.201711

loop_
_geom_bond_atom_site_label_1
_geom_bond_atom_site_label_2
_ccdc_geom_bond_type
C16   C28   A    
C21   C26   A    
C42   C47   S    
C12   O3    A    
C19   C20   A    
C31   H14   S    
C23   O5    A    
C30   N2    A    
C7    C8    A    
C14   H2    S    
C45   C46   A    
C2    C46   A    
C40   N1    A    
C5    C6    A    
Cu2   O8    S    
C36   C37   A    
C19   C21   A    
C48   O12   S    
Cu1   O5    S    
C38   C39   A    
C20   C25   A    
C33   C36   A    
C18   C19   A    
C41   H7    S    
C18   H5    S    
C48   O11   D    
Cu1   Cu2   S    
C44   H10   S    
C16   C17   A    
C30   H12   S    
C1    C28   S    
C14   C27   A    
C50   H25   S    
C27   H21   S    
C15   C23   S    
C35   N2    A    
C40   H11   S    
C21   C22   A    
Cu2   O4    S    
C13   H18   S    
C49   H28   S    
C1    O1    A    
C36   C40   A    
C25   H6    S    
C47   O10   S    
O12   H23   S    
C8    C9    A    
C15   C26   A    
C20   C28   A    
C3    C45   A    
C23   O6    A    
Cu2   O6    S    
C35   C39   A    
C43   C44   A    
Cu1   N1    S    
C37   C38   A    
C34   O8    A    
C15   C27   A    
C31   C32   A    
C7    C13   A    
C17   C18   A    
C24   C25   A    
C50   H26   S    
C29   H9    S    
C22   C24   A    
C42   C43   A    
Cu2   N2    S    
C3    C4    A    
C44   C45   A    
C10   H17   S    
C24   H1    S    
C49   H27   S    
C6    C46   A    
C29   C41   A    
C3    C49   S    
Cu2   O2    S    
C34   C43   S    
C16   H4    S    
Cu1   O3    S    
C47   O9    D    
C32   H13   S    
C11   C12   S    
C6    C7    A    
C39   H15   S    
C4    H16   S    
C17   C48   S    
C1    O2    A    
C32   C33   A    
C14   C22   A    
C9    H20   S    
C5    C10   A    
C26   H3    S    
C34   O7    A    
C11   C13   A    
C30   C31   A    
C2    C42   A    
C33   C35   A    
Cu1   O1    S    
C10   C11   A    
C4    C5    A    
C38   H8    S    
C49   C50   S    
C8    H19   S    
O10   H22   S    
C12   O4    A    
C29   C37   A    
Cu1   O7    S    
C50   H24   S    
C2    C9    A    
C41   N1    A    
