data_mof_unit_58417.cif
_audit_creation_date              2013-03-05T15:55:00-0500
_audit_creation_method            fapswitch 2.2
_symmetry_space_group_name_H-M    P1
_symmetry_Int_Tables_number       1
_space_group_crystal_system       triclinic
_cell_length_a                    23.198656
_cell_length_b                    10.776908
_cell_length_c                    10.019811
_cell_angle_alpha                 91.770339
_cell_angle_beta                  89.719069
_cell_angle_gamma                 94.380677
_cell_volume                      2496.53209534

loop_
_atom_site_label
_atom_site_type_symbol
_atom_site_description
_atom_site_fract_x
_atom_site_fract_y
_atom_site_fract_z
_atom_type_partial_charge
O1    O     O_R   0.500000 0.316780 0.614690 -0.624579
O2    O     O_R   0.500000 0.316750 0.385360 -0.574743
C1    C     C_R   0.506300 0.262440 0.498521 0.941775
O3    O     O_R   0.416160 0.499970 0.614690 -0.593797
O4    O     O_R   0.416150 0.499950 0.385360 -0.530057
C2    C     C_R   0.389502 0.506655 0.499113 1.004181
Zn1   Zn    Zn3+2 0.500000 0.500020 0.653130 1.075482
Zn2   Zn    Zn3+2 0.500000 0.499980 0.346870 1.056553
O5    O     O_R   0.500000 0.683250 0.614640 -0.544915
O6    O     O_R   0.500000 0.683220 0.385310 -0.631468
O7    O     O_R   0.583850 0.500050 0.614640 -0.573314
O8    O     O_R   0.583840 0.500030 0.385310 -0.627596
C3    C     C_R   0.499573 0.740912 0.503693 0.892724
C4    C     C_R   0.610727 0.501819 0.498881 0.950119
C5    C     C_R   0.878747 0.571762 0.352208 0.592982
N1    N     N_R   0.850712 0.468775 0.405949 -0.329251
C6    C     C_R   0.878870 0.365121 0.431402 0.665853
C7    C     C_R   0.938567 0.363804 0.406164 -0.208856
C8    C     C_R   0.969075 0.476104 0.370061 -0.068044
C9    C     C_R   0.938806 0.580158 0.340135 -0.045112
C10   C     C_R   0.969013 0.256686 0.424090 0.424036
C11   C     C_R   0.029740 0.266812 0.424703 0.229068
C12   C     C_R   0.060469 0.381894 0.396608 -0.186651
C13   C     C_R   0.029891 0.486420 0.369555 -0.104898
C14   C     C_R   0.060007 0.603328 0.348629 -0.140087
C15   C     C_R   0.029339 0.704211 0.308554 0.541946
C16   C     C_R   0.969086 0.691778 0.304751 -0.210596
C17   C     C_R   0.121151 0.397079 0.395916 0.561466
N2    N     N_R   0.148956 0.513865 0.396681 -0.346656
C18   C     C_R   0.119561 0.616573 0.374659 0.607380
O9    O     O_2   0.848573 0.667173 0.314930 -0.536617
O10   O     O_2   0.849456 0.266180 0.485767 -0.446182
O11   O     O_2   0.152528 0.296642 0.394465 -0.470070
O12   O     O_2   0.147398 0.731085 0.383261 -0.433826
H1    H     H_    0.946300 0.771885 0.279330 0.195302
C19   C     C_R   0.250217 0.589825 0.347085 0.496011
C20   C     C_R   0.308830 0.597692 0.382090 0.406938
C21   C     C_R   0.327636 0.527316 0.488758 -0.231386
C22   C     C_R   0.286376 0.465488 0.569593 -0.199932
H2    H     H_    0.298081 0.405405 0.645619 0.270008
C23   C     C_R   0.227957 0.470652 0.544810 -0.180679
H3    H     H_    0.196948 0.422016 0.609689 0.205132
C24   C     C_R   0.209306 0.527533 0.430545 0.091348
C25   C     C_R   0.749792 0.394142 0.370397 0.554754
C26   C     C_R   0.691542 0.402107 0.398174 -0.348863
H4    H     H_    0.660293 0.342232 0.342393 0.182465
C27   C     C_R   0.673058 0.491347 0.489788 -0.243079
C28   C     C_R   0.713836 0.574814 0.556232 0.203089
C29   C     C_R   0.773281 0.561070 0.536194 0.209028
C30   C     C_R   0.790880 0.471862 0.440962 0.037996
C31   C     C_R   0.563832 0.145354 0.715788 -0.269820
H5    H     H_    0.583993 0.237126 0.696552 0.208052
C32   C     C_R   0.573865 0.096147 0.837834 0.197767
C33   C     C_R   0.549588 0.976450 0.866100 0.423553
C34   C     C_R   0.514420 0.908763 0.769625 0.547575
C35   C     C_R   0.514441 0.950433 0.633938 -0.071371
C36   C     C_R   0.530969 0.077055 0.617670 -0.064137
C37   C     C_R   0.517923 0.132397 0.498496 -0.181840
C38   C     C_R   0.516974 0.061467 0.380887 0.565764
H6    H     H_    0.506470 0.881094 0.294548 0.232766
C39   C     C_R   0.506874 0.934323 0.388039 -0.265253
C40   C     C_R   0.502772 0.876696 0.512359 -0.178563
H7    H     H_    0.563279 0.646613 0.131046 0.150687
C41   C     C_R   0.440969 0.298145 0.131642 0.220841
C42   C     C_R   0.434779 0.184423 0.058153 0.182737
C43   C     C_R   0.431079 0.188493 0.919040 0.288523
C44   C     C_R   0.438578 0.304134 0.858437 0.288261
C45   C     C_R   0.469334 0.404617 0.926189 -0.077782
C46   C     C_R   0.469598 0.403520 0.069660 0.030819
N3    N     N_R   0.499460 0.498800 0.142780 -0.115040
C47   C     C_R   0.534182 0.581930 0.074670 -0.073957
C48   C     C_R   0.537536 0.576399 0.932694 0.433053
N4    N     N_R   0.499440 0.498720 0.857170 -0.145169
O13   O     O_3   0.940263 0.143337 0.452851 -0.526604
C49   C     C_3   0.922528 0.082375 0.331474 -0.072308
H8    H     H_    0.890633 0.134902 0.278337 0.158163
H9    H     H_    0.901123 0.989776 0.354043 0.218038
H10   H     H_    0.959942 0.066850 0.264698 0.141970
N5    N     N_R   0.695460 0.680491 0.630740 0.267551
O14   O     O_R   0.664183 0.757948 0.572237 -0.369064
O15   O     O_R   0.718225 0.711940 0.746449 -0.266270
N6    N     N_R   0.816014 0.642125 0.605377 0.252238
O16   O     O_R   0.858541 0.595739 0.666063 -0.362434
O17   O     O_R   0.816323 0.762238 0.594946 -0.266791
O18   O     O_3   0.540250 0.111892 0.265853 -0.560457
C50   C     C_3   0.600983 0.107351 0.275227 -0.158158
H11   H     H_    0.613149 0.009682 0.266502 0.160013
H12   H     H_    0.618630 0.149371 0.370822 0.115080
H13   H     H_    0.622597 0.160770 0.194613 0.232387
N7    N     N_R   0.604877 0.173656 0.935310 0.203697
O19   O     O_R   0.660638 0.193246 0.922662 -0.410529
O20   O     O_R   0.577027 0.254265 0.003966 -0.420666
O21   O     O_3   0.557631 0.925118 0.989096 -0.559960
C51   C     C_3   0.616605 0.903425 0.004854 -0.141931
H14   H     H_    0.641786 0.987346 0.044816 0.172232
H15   H     H_    0.637623 0.872431 0.910810 0.225299
H16   H     H_    0.619888 0.830308 0.079081 0.177369
O22   O     O_3   0.483179 0.802976 0.813641 -0.561726
C52   C     C_3   0.423259 0.807991 0.792852 -0.155701
H17   H     H_    0.411712 0.864652 0.707350 0.133561
H18   H     H_    0.403193 0.842159 0.885896 0.223917
H19   H     H_    0.403931 0.711927 0.772997 0.180806
N8    N     N_R   0.059154 0.163589 0.469763 0.279192
O23   O     O_R   0.085314 0.171702 0.584630 -0.321152
O24   O     O_R   0.054290 0.057334 0.404315 -0.290673
N9    N     N_R   0.396720 0.316509 0.228213 0.249157
O25   O     O_R   0.391376 0.247962 0.332914 -0.320719
O26   O     O_R   0.352945 0.376566 0.192921 -0.390223
N10   N     N_R   0.418562 0.069620 0.122233 0.234323
O27   O     O_R   0.447164 0.973024 0.094294 -0.354660
O28   O     O_R   0.368175 0.052599 0.179130 -0.376335
O29   O     O_3   0.408496 0.085684 0.844678 -0.608906
C53   C     C_3   0.347922 0.066555 0.864708 -0.128940
H20   H     H_    0.326725 0.151451 0.898851 0.191296
H21   H     H_    0.338175 0.992327 0.937300 0.185934
H22   H     H_    0.327657 0.033673 0.768667 0.186758
N11   N     N_R   0.392228 0.332076 0.776263 0.222972
O30   O     O_R   0.354978 0.403983 0.828588 -0.461801
O31   O     O_R   0.378128 0.262008 0.671432 -0.370134
N12   N     N_R   0.588937 0.631770 0.873929 0.199049
O32   O     O_R   0.638660 0.617971 0.928877 -0.387422
O33   O     O_R   0.586859 0.700598 0.770819 -0.329948
O34   O     O_3   0.057591 0.817534 0.278945 -0.518601
C54   C     C_3   0.066175 0.820603 0.139693 -0.153548
H23   H     H_    0.092935 0.744748 0.103698 0.150091
H24   H     H_    0.089914 0.910508 0.115877 0.218591
H25   H     H_    0.024247 0.815211 0.085473 0.134982
O35   O     O_3   0.233154 0.645986 0.233083 -0.575775
C55   C     C_3   0.234068 0.559142 0.125151 -0.174439
H26   H     H_    0.205900 0.473075 0.144101 0.156646
H27   H     H_    0.278974 0.535762 0.102097 0.232068
H28   H     H_    0.217084 0.601766 0.035467 0.175933
O36   O     O_3   0.348147 0.664783 0.303013 -0.572670
C56   C     C_3   0.357753 0.785399 0.360720 -0.131587
H29   H     H_    0.374315 0.783175 0.464675 0.069825
H30   H     H_    0.317750 0.836136 0.358787 0.210081
H31   H     H_    0.391109 0.837949 0.301073 0.238330
O37   O     O_3   0.766977 0.308263 0.275836 -0.604008
C57   C     C_3   0.760033 0.356105 0.147998 -0.190964
H32   H     H_    0.785965 0.446549 0.137012 0.176080
H33   H     H_    0.713709 0.366499 0.125940 0.207953
H34   H     H_    0.775957 0.289357 0.072504 0.221673

loop_
_geom_bond_atom_site_label_1
_geom_bond_atom_site_label_2
_geom_bond_distance
_ccdc_geom_bond_type
C34   C35   1.444901 A    
O21   C51   1.415855 S    
C7    C10   1.415054 A    
C23   H3    1.083355 S    
C8    C9    1.408423 A    
O35   C55   1.409325 S    
C56   H31   1.107311 S    
N7    O19   1.300879 A    
O34   C54   1.409493 S    
Zn1   N4    2.044894 S    
O18   C50   1.417183 S    
N12   O32   1.301271 A    
Zn1   O7    1.981192 S    
C15   C16   1.394571 A    
C20   C21   1.418836 A    
C28   N5    1.433393 S    
C19   C20   1.401532 A    
N1    C30   1.432602 S    
C55   H26   1.113759 S    
C46   N3    1.385955 A    
N10   O28   1.300857 A    
C21   C22   1.394444 A    
O7    C4    1.314124 A    
C50   H12   1.113045 S    
N9    O25   1.301652 A    
C5    N1    1.366743 A    
C35   C36   1.403176 A    
C5    O9    1.350188 S    
C7    C8    1.410729 A    
O5    C3    1.290661 A    
C33   O21   1.385572 S    
C3    C40   1.459453 S    
C27   C28   1.409422 A    
N1    C6    1.367589 A    
C12   C13   1.410125 A    
C2    C21   1.473726 S    
N3    C47   1.356223 A    
C31   C36   1.402299 A    
C53   H22   1.109314 S    
C45   N4    1.387412 A    
C43   C44   1.401690 A    
O6    C3    1.322471 A    
C10   C11   1.404694 A    
N2    C24   1.437712 S    
C23   C24   1.400905 A    
C19   O35   1.382600 S    
O3    Zn1   1.984554 S    
O29   C53   1.418800 S    
N12   O33   1.293529 A    
C26   C27   1.398576 A    
C5    C9    1.394225 A    
C38   C39   1.376370 A    
O13   C49   1.412173 S    
C18   O12   1.348942 S    
C44   C45   1.408509 A    
C13   C14   1.414165 A    
C22   C23   1.384620 A    
C22   H2    1.064257 S    
N5    O15   1.300893 A    
C50   H11   1.111154 S    
C45   C46   1.438016 A    
C56   H30   1.113050 S    
C51   H16   1.107158 S    
C16   H1    1.083625 S    
C14   C15   1.413276 A    
C32   C33   1.404075 A    
C10   O13   1.384008 S    
N6    O16   1.301135 A    
C11   N8    1.434220 S    
C31   H5    1.083646 S    
H6    C39   1.082934 S    
O1    C1    1.299411 A    
C29   N6    1.436454 S    
C49   H8    1.112587 S    
C38   O18   1.379547 S    
N2    C18   1.367751 A    
C49   H9    1.109374 S    
N7    O20   1.299910 A    
C52   H17   1.112723 S    
Zn2   O8    1.984551 S    
C48   N12   1.425054 S    
C6    C7    1.407633 A    
C51   H14   1.103961 S    
N8    O24   1.299472 A    
C12   C17   1.404751 A    
C51   H15   1.112730 S    
C44   N11   1.413581 S    
C42   N10   1.435304 S    
C4    C27   1.461136 S    
C54   H25   1.113205 S    
O3    C2    1.322020 A    
C28   C29   1.410900 A    
C52   H18   1.105514 S    
H7    C47   1.080817 S    
C17   O11   1.349430 S    
C29   C30   1.414543 A    
N6    O17   1.301347 A    
O36   C56   1.408621 S    
C20   O36   1.382068 S    
C15   O34   1.381038 S    
C32   N7    1.426161 S    
C25   C26   1.386885 A    
C54   H24   1.109263 S    
C53   H20   1.115195 S    
C25   C30   1.399316 A    
C14   C18   1.402946 A    
Zn1   O5    2.023623 S    
C33   C34   1.416129 A    
C17   N2    1.369541 A    
C25   O37   1.382650 S    
O1    Zn1   2.000258 S    
O2    Zn2   2.023621 S    
O8    C4    1.299292 A    
C48   N4    1.381635 A    
C50   H13   1.102689 S    
O4    Zn2   1.981194 S    
C57   H32   1.113769 S    
C41   N9    1.427808 S    
C56   H29   1.113558 S    
C9    C16   1.400346 A    
C41   C46   1.428547 A    
Zn2   N3    2.044684 S    
C43   O29   1.386137 S    
C41   C42   1.408285 A    
C55   H28   1.109221 S    
N11   O31   1.302739 A    
O2    C1    1.305847 A    
C37   C38   1.384017 A    
C47   C48   1.423971 A    
N10   O27   1.299245 A    
C57   H33   1.112875 S    
C36   C37   1.395814 A    
O4    C2    1.296651 A    
N9    O26   1.301263 A    
C34   O22   1.386071 S    
C55   H27   1.111884 S    
C57   H34   1.109211 S    
C8    C13   1.406715 A    
C35   C40   1.448905 A    
C42   C43   1.399188 A    
C39   C40   1.408553 A    
C49   H10   1.112919 S    
O37   C57   1.409978 S    
N5    O14   1.301466 A    
C1    C37   1.447249 S    
C26   H4    1.079123 S    
C52   H19   1.108910 S    
Zn2   O6    2.000259 S    
O22   C52   1.411947 S    
N8    O23   1.301204 A    
C6    O10   1.349219 S    
C11   C12   1.417800 A    
C19   C24   1.407230 A    
C31   C32   1.375692 A    
N11   O30   1.301890 A    
C54   H23   1.113944 S    
C53   H21   1.107615 S    
