data_mof_unit_50405.cif
_audit_creation_date              2012-12-11T14:29:49-0500
_audit_creation_method            fapswitch 2.2
_symmetry_space_group_name_H-M    P1
_symmetry_Int_Tables_number       1
_space_group_crystal_system       triclinic
_cell_length_a                    6.934431
_cell_length_b                    14.740736
_cell_length_c                    16.25121
_cell_angle_alpha                 90.562113
_cell_angle_beta                  89.930095
_cell_angle_gamma                 90.088047
_cell_volume                      1661.09309449

loop_
_atom_site_label
_atom_site_type_symbol
_atom_type_description
_atom_site_fract_x
_atom_site_fract_y
_atom_site_fract_z
_atom_type_partial_charge
O1    O     O_R   0.494400 0.416610 0.413880 -0.546941
O2    O     O_R   0.823920 0.406790 0.585520 -0.555158
O3    O     O_R   0.994250 0.583390 0.586120 -0.539376
C1    C     C_R   0.653802 0.381869 0.610567 0.624866
O4    O     O_R   0.824110 0.405730 0.414490 -0.540116
O5    O     O_R   0.994440 0.582310 0.413870 -0.501432
C2    C     C_R   0.654866 0.383696 0.386304 0.757724
O6    O     O_R   0.494210 0.417690 0.586130 -0.541960
O7    O     O_3   0.660810 0.557940 0.500000 -0.355320
V1    V     V_3+5 0.935650 0.489250 0.500000 1.467375
O8    O     O_R   0.324160 0.593210 0.414480 -0.548078
C3    C     C_R   0.155127 0.614992 0.386152 0.801577
O9    O     O_R   0.323970 0.594270 0.585510 -0.539429
C4    C     C_R   0.155093 0.615976 0.614099 0.674174
V2    V     V_3+5 0.435660 0.510750 0.500000 1.466621
O10   O     O_3   0.160630 0.442060 0.500000 -0.385618
C5    C     C_R   0.018216 0.566629 0.776223 -0.189259
C6    C     C_R   0.948432 0.539552 0.852757 0.303925
C7    C     C_R   0.944905 0.602818 0.918820 0.311927
C8    C     C_R   0.998463 0.692668 0.904727 -0.188495
C9    C     C_R   0.062632 0.721784 0.826696 -0.005476
C10   C     C_R   0.074648 0.657243 0.761265 -0.001060
C11   C     C_R   0.120055 0.813083 0.814017 -0.105372
C12   C     C_R   0.189527 0.839508 0.735524 -0.006800
C13   C     C_R   0.201686 0.774965 0.670105 -0.003304
C14   C     C_R   0.144459 0.683639 0.682794 -0.102223
C15   C     C_R   0.245370 0.930182 0.720535 -0.178386
C16   C     C_R   0.314863 0.957316 0.643994 0.304379
C17   C     C_R   0.318652 0.894049 0.577940 0.304443
C18   C     C_R   0.265621 0.804134 0.592057 -0.184465
H1    H     H_    0.024916 0.515285 0.728298 0.146543
H2    H     H_    0.994020 0.738776 0.956899 0.141306
H3    H     H_    0.238392 0.981548 0.768435 0.167003
H4    H     H_    0.270195 0.758027 0.539887 0.140788
C19   C     C_2   0.986479 0.701995 0.276184 0.289906
C20   C     C_2   0.144958 0.687174 0.322940 -0.337157
H5    H     H_    0.269357 0.731528 0.317179 0.101879
C21   C     C_2   0.971961 0.782845 0.220340 0.289858
C22   C     C_2   0.122143 0.809104 0.172998 -0.323615
H6    H     H_    0.259540 0.774375 0.178336 0.098162
C23   C     C_2   0.772461 0.202763 0.774990 0.369567
C24   C     C_2   0.620586 0.191876 0.827014 0.245065
C25   C     C_2   0.782156 0.281855 0.718109 -0.158715
C26   C     C_2   0.636456 0.303793 0.667310 0.239326
H7    H     H_    0.917093 0.319295 0.715428 0.114128
C27   C     C_2   0.779381 0.209054 0.213906 -0.119140
C28   C     C_2   0.614134 0.181936 0.177348 -0.299231
H8    H     H_    0.915278 0.180335 0.193057 0.136166
H9    H     H_    0.476563 0.210003 0.196014 0.126855
C29   C     C_2   0.791840 0.277594 0.281817 -0.123618
C30   C     C_2   0.638301 0.315409 0.319548 -0.300922
H10   H     H_    0.935899 0.296856 0.301571 0.134769
H11   H     H_    0.493089 0.296794 0.301725 0.127666
O11   O     O_R   0.770210 0.079270 0.910680 -0.516645
O12   O     O_R   0.440150 0.091160 0.082270 -0.551336
O13   O     O_R   0.269970 0.914530 0.082860 -0.547895
C31   C     C_R   0.608830 0.113281 0.110490 0.742425
O14   O     O_R   0.440480 0.090100 0.911240 -0.549935
O15   O     O_R   0.270310 0.913460 0.910610 -0.540991
C32   C     C_R   0.610072 0.114204 0.885123 0.654828
O16   O     O_R   0.769870 0.080340 0.082930 -0.540965
O17   O     O_3   0.603660 0.938980 0.996790 -0.363441
V3    V     V_3+5 0.328750 0.007610 0.996740 1.459823
O18   O     O_R   0.940600 0.902510 0.911180 -0.537952
C33   C     C_R   0.109492 0.880763 0.882683 0.684081
O19   O     O_R   0.940270 0.903570 0.082200 -0.508263
C34   C     C_R   0.109071 0.881610 0.110325 0.791030
V4    V     V_3+5 0.828770 0.986010 0.996670 1.524244
O20   O     O_3   0.103730 0.054750 0.996710 -0.376105
O21   O     O_3   0.368116 0.917206 0.498591 -0.646206
H12   H     H_    0.341806 0.982520 0.490716 0.291436
O22   O     O_3   0.799701 0.829685 0.215102 -0.631142
H13   H     H_    0.713590 0.809163 0.259970 0.293787
O23   O     O_3   0.923453 0.141586 0.776105 -0.653706
H14   H     H_    0.019630 0.160177 0.734278 0.311428
O24   O     O_3   0.478663 0.257997 0.829169 -0.623874
H15   H     H_    0.386858 0.244885 0.874253 0.297053
O25   O     O_3   0.473232 0.249429 0.665733 -0.602698
H16   H     H_    0.387504 0.268955 0.620571 0.297860
O26   O     O_3   0.883951 0.451356 0.859753 -0.648500
H17   H     H_    0.785474 0.448851 0.903818 0.297713
O27   O     O_3   0.895157 0.579732 0.998159 -0.643889
H18   H     H_    0.920752 0.514352 0.006019 0.293771
O28   O     O_3   0.378916 0.045564 0.637007 -0.629897
H19   H     H_    0.477053 0.048221 0.592813 0.300531
O29   O     O_3   0.832220 0.642679 0.281807 -0.629212
H20   H     H_    0.739674 0.656370 0.237203 0.297308

loop_
_geom_bond_atom_site_label_1
_geom_bond_atom_site_label_2
_ccdc_geom_bond_type
O19   V4    S    
C16   O28   S    
C23   C24   D    
C7    C8    A    
C12   C15   A    
C1    O6    A    
C28   H9    S    
O11   C32   A    
C15   H3    S    
O17   V3    S    
O18   V4    S    
C16   C17   A    
O5    C3    A    
C21   C22   D    
C19   O29   S    
O11   V4    S    
O14   C32   A    
V2    O10   S    
C13   C18   A    
C6    C7    A    
C23   O23   S    
O8    V2    S    
O28   H19   S    
V3    O20   S    
V4    O20   S    
O12   V3    S    
C29   H10   S    
C11   C12   A    
O21   H12   S    
O1    V2    S    
C3    C20   S    
C7    O27   S    
O7    V1    S    
O19   C34   A    
O1    C2    A    
O9    C4    A    
C23   C25   S    
C5    C6    A    
C27   H8    S    
C21   O22   S    
O23   H14   S    
C18   H4    S    
C19   C21   S    
C12   C13   A    
C24   C32   S    
C22   H6    S    
O4    C2    A    
O25   H16   S    
O26   H17   S    
C1    C26   S    
C13   C14   A    
C4    C14   S    
C30   H11   S    
C19   C20   D    
O2    C1    A    
C25   C26   D    
C17   C18   A    
C28   C31   S    
C29   C30   D    
O13   V3    S    
O12   C31   A    
O24   H15   S    
C25   H7    S    
O3    C4    A    
O6    V2    S    
O9    V2    S    
C5    H1    S    
O15   V3    S    
O2    V1    S    
C17   O21   S    
C8    H2    S    
O14   V3    S    
C27   C28   D    
C20   H5    S    
O29   H20   S    
C22   C34   S    
O22   H13   S    
O5    V1    S    
O8    C3    A    
C31   O16   A    
O13   C34   A    
C27   C29   S    
C24   O24   S    
C5    C10   A    
O17   V4    S    
O18   C33   A    
C11   C33   S    
C9    C11   A    
O7    V2    S    
C2    C30   S    
O4    V1    S    
O3    V1    S    
V1    O10   S    
O15   C33   A    
O16   V4    S    
C26   O25   S    
C8    C9    A    
C6    O26   S    
O27   H18   S    
C10   C14   A    
C15   C16   A    
C9    C10   A    
