data_mof_unit_17862.cif
_audit_creation_date              2013-03-05T15:41:33-0500
_audit_creation_method            fapswitch 2.2
_symmetry_space_group_name_H-M    P1
_symmetry_Int_Tables_number       1
_space_group_crystal_system       triclinic
_cell_length_a                    24.670949
_cell_length_b                    17.298205
_cell_length_c                    15.679734
_cell_angle_alpha                 89.425641
_cell_angle_beta                  130.381097
_cell_angle_gamma                 90.342896
_cell_volume                      5097.03157179

loop_
_atom_site_label
_atom_site_type_symbol
_atom_site_description
_atom_site_fract_x
_atom_site_fract_y
_atom_site_fract_z
_atom_type_partial_charge
C1    C     C_R   0.348471 0.359403 0.240722 -0.070210
C2    C     C_R   0.333486 0.614947 0.202350 -0.093555
C3    C     C_R   0.848467 0.859407 0.240715 -0.070203
C4    C     C_R   0.833485 0.114948 0.202352 -0.093708
H1    H     H_    0.300322 0.346199 0.226439 0.169531
H2    H     H_    0.279869 0.610288 0.172190 0.153884
H3    H     H_    0.800318 0.846203 0.226431 0.169541
H4    H     H_    0.779870 0.110291 0.172196 0.153911
N1    N     N_R   0.389430 0.421450 0.294590 -0.089845
N2    N     N_R   0.389430 0.578550 0.294590 -0.081024
N3    N     N_R   0.889430 0.921450 0.294590 -0.089836
N4    N     N_R   0.889430 0.078550 0.294590 -0.081011
C5    C     C_R   0.648989 0.357256 0.758113 0.459275
C6    C     C_R   0.671127 0.593171 0.810001 0.473114
C7    C     C_R   0.149011 0.857279 0.758146 0.459068
C8    C     C_R   0.171127 0.093169 0.810001 0.473152
N5    N     N_R   0.612200 0.424040 0.705410 -0.117379
N6    N     N_R   0.612200 0.575960 0.705410 -0.133147
N7    N     N_R   0.112200 0.924040 0.705410 -0.117380
N8    N     N_R   0.112200 0.075960 0.705410 -0.133149
C9    C     C_R   0.615557 0.404403 0.406665 -0.085504
C10   C     C_R   0.580859 0.646919 0.404463 -0.042934
C11   C     C_R   0.115531 0.904357 0.406645 -0.085312
C12   C     C_R   0.080873 0.146913 0.404462 -0.042899
H5    H     H_    0.593423 0.410580 0.321111 0.205285
H6    H     H_    0.551748 0.660503 0.318053 0.159586
H7    H     H_    0.093392 0.910495 0.321086 0.205284
H8    H     H_    0.051752 0.160498 0.318050 0.159529
N9    N     N_R   0.581780 0.422390 0.443390 -0.086959
N10   N     N_R   0.581780 0.577610 0.443390 -0.054565
N11   N     N_R   0.081780 0.922390 0.443390 -0.086990
N12   N     N_R   0.081780 0.077610 0.443390 -0.054558
C13   C     C_R   0.384671 0.397589 0.589041 0.043247
C14   C     C_R   0.412465 0.642798 0.590681 0.044107
C15   C     C_R   0.884683 0.897545 0.589043 0.043339
C16   C     C_R   0.912472 0.142801 0.590695 0.044149
H9    H     H_    0.405783 0.395614 0.674024 0.201745
H10   H     H_    0.444622 0.661558 0.675581 0.178634
H11   H     H_    0.905809 0.895524 0.674030 0.201663
H12   H     H_    0.944588 0.161523 0.675606 0.178685
N13   N     N_R   0.419850 0.423100 0.556610 -0.068796
N14   N     N_R   0.419850 0.576900 0.556610 -0.057917
N15   N     N_R   0.919850 0.923100 0.556610 -0.068810
N16   N     N_R   0.919850 0.076900 0.556610 -0.057904
C17   C     C_R   0.692755 0.410134 0.589572 0.340627
C18   C     C_R   0.654811 0.649424 0.587057 0.350745
C19   C     C_R   0.192744 0.910086 0.589562 0.340661
C20   C     C_R   0.154811 0.149427 0.587055 0.350905
N17   N     N_R   0.627410 0.423100 0.556610 -0.105281
N18   N     N_R   0.627410 0.576900 0.556610 -0.084865
N19   N     N_R   0.127410 0.923100 0.556610 -0.105290
N20   N     N_R   0.127410 0.076900 0.556610 -0.084772
C21   C     C_R   0.310542 0.399096 0.404663 -0.042593
C22   C     C_R   0.334104 0.640433 0.404960 -0.095017
C23   C     C_R   0.810545 0.899081 0.404663 -0.042532
C24   C     C_R   0.834130 0.140465 0.404978 -0.095285
H13   H     H_    0.263130 0.400429 0.317363 0.112336
H14   H     H_    0.290138 0.651850 0.317824 0.131957
H15   H     H_    0.763131 0.900418 0.317364 0.112358
H16   H     H_    0.790169 0.151907 0.317846 0.131971
N21   N     N_R   0.374220 0.422390 0.443390 -0.056445
N22   N     N_R   0.374220 0.577610 0.443390 -0.068327
N23   N     N_R   0.874220 0.922390 0.443390 -0.056463
N24   N     N_R   0.874220 0.077610 0.443390 -0.068283
C25   C     C_R   0.561349 0.359790 0.761753 0.313633
C26   C     C_R   0.580540 0.603682 0.806173 0.295614
C27   C     C_R   0.061354 0.859782 0.761748 0.313651
C28   C     C_R   0.080541 0.103682 0.806174 0.295742
N25   N     N_R   0.555000 0.424040 0.705410 -0.131257
N26   N     N_R   0.555000 0.575960 0.705410 -0.132688
N27   N     N_R   0.055000 0.924040 0.705410 -0.131260
N28   N     N_R   0.055000 0.075960 0.705410 -0.132698
C29   C     C_R   0.435976 0.358971 0.233577 0.333402
C30   C     C_R   0.420011 0.611045 0.194689 0.241606
C31   C     C_R   0.935967 0.858978 0.233559 0.333300
C32   C     C_R   0.920010 0.111045 0.194688 0.241620
N29   N     N_R   0.446630 0.421450 0.294590 -0.105069
N30   N     N_R   0.446630 0.578550 0.294590 -0.100289
N31   N     N_R   0.946630 0.921450 0.294590 -0.105071
N32   N     N_R   0.946630 0.078550 0.294590 -0.100298
C33   C     C_R   0.376740 0.317780 0.202891 0.059628
C34   C     C_R   0.350557 0.638813 0.137840 0.062253
C35   C     C_R   0.876730 0.817788 0.202873 0.059669
C36   C     C_R   0.850555 0.138814 0.137840 0.062219
C37   C     C_R   0.617510 0.314402 0.790823 -0.219600
C38   C     C_R   0.653030 0.616758 0.872125 -0.146885
C39   C     C_R   0.117530 0.814408 0.790836 -0.219428
C40   C     C_R   0.153031 0.116757 0.872125 -0.146906
C41   C     C_R   0.685738 0.394420 0.496288 -0.001369
C42   C     C_R   0.628806 0.694208 0.492798 -0.074001
C43   C     C_R   0.185694 0.894314 0.496263 -0.001799
C44   C     C_R   0.128814 0.194207 0.492798 -0.074026
C45   C     C_R   0.315292 0.382895 0.495043 0.049552
C46   C     C_R   0.356761 0.682922 0.497316 0.079683
C47   C     C_R   0.815302 0.882852 0.495043 0.049506
C48   C     C_R   0.856804 0.182966 0.497342 0.079589
Ni1   Ni    Ni4+2 0.382890 0.500000 0.370170 0.225354
Ni2   Ni    Ni4+2 0.882890 0.000000 0.370170 0.225357
Ni3   Ni    Ni4+2 0.618740 0.500000 0.629830 0.350590
Ni4   Ni    Ni4+2 0.118740 0.000000 0.629830 0.350635
Ni5   Ni    Ni4+2 0.514090 0.500000 0.370170 0.323780
Ni6   Ni    Ni4+2 0.014090 0.000000 0.370170 0.323794
Ni7   Ni    Ni4+2 0.487550 0.500000 0.629830 0.327139
Ni8   Ni    Ni4+2 0.987550 0.000000 0.629830 0.327161
C49   C     C_3   0.293726 0.251501 0.530105 0.486618
C50   C     C_3   0.354067 0.826634 0.536013 0.531524
C51   C     C_3   0.793675 0.751439 0.529959 0.486736
C52   C     C_3   0.854275 0.326663 0.536458 0.531335
C53   C     C_3   0.736436 0.699361 0.514553 0.069000
C54   C     C_3   0.808759 0.380790 0.550005 0.039856
C55   C     C_3   0.236513 0.199416 0.514749 0.068881
C56   C     C_3   0.308552 0.880801 0.549498 0.039851
H17   H     H_    0.263413 0.169760 0.596200 0.168877
H18   H     H_    0.335842 0.883904 0.639395 0.183142
H19   H     H_    0.763333 0.669610 0.595942 0.169005
H20   H     H_    0.835943 0.383598 0.639873 0.183327
H21   H     H_    0.743513 0.790032 0.661984 0.281765
H22   H     H_    0.762114 0.283760 0.644396 0.262164
H23   H     H_    0.243445 0.290148 0.661960 0.281720
H24   H     H_    0.262414 0.783918 0.644790 0.262310
C57   C     C_3   0.243468 0.375568 0.560628 0.147662
C58   C     C_3   0.297529 0.715487 0.573767 0.099797
C59   C     C_3   0.743539 0.875493 0.560726 0.147432
C60   C     C_3   0.797398 0.215479 0.573501 0.099637
C61   C     C_3   0.189312 0.332483 0.370549 -0.424113
C62   C     C_3   0.242262 0.754052 0.377957 -0.393107
C63   C     C_3   0.689285 0.832532 0.370556 -0.424038
C64   C     C_3   0.742437 0.254374 0.377938 -0.392855
C65   C     C_3   0.263249 0.337282 0.492517 -0.109643
C66   C     C_3   0.316116 0.744722 0.499320 -0.121678
C67   C     C_3   0.763251 0.837244 0.492503 -0.109754
C68   C     C_3   0.816191 0.244814 0.499367 -0.121580
H25   H     H_    0.669183 0.891424 0.333835 0.189430
H26   H     H_    0.712203 0.199006 0.350770 0.185604
H27   H     H_    0.169176 0.391351 0.333741 0.189442
H28   H     H_    0.212156 0.698605 0.351032 0.185590
H29   H     H_    0.193512 0.301156 0.313564 0.258669
H30   H     H_    0.247593 0.767995 0.314381 0.255036
H31   H     H_    0.693431 0.801234 0.313495 0.258681
H32   H     H_    0.747918 0.268335 0.314535 0.255089
C69   C     C_3   0.674245 0.749185 0.488480 0.004144
C70   C     C_3   0.733897 0.344085 0.494563 0.024595
C71   C     C_3   0.174256 0.249201 0.488504 0.004300
C72   C     C_3   0.233813 0.843952 0.494513 0.024754
C73   C     C_3   0.705219 0.814271 0.577356 -0.433953
C74   C     C_3   0.744233 0.270048 0.560654 -0.483902
C75   C     C_3   0.205159 0.314342 0.577291 -0.433990
C76   C     C_3   0.244394 0.770051 0.561007 -0.483794
C77   C     C_3   0.634309 0.791125 0.372769 -0.301108
C78   C     C_3   0.697924 0.317382 0.373922 -0.298588
C79   C     C_3   0.134338 0.291061 0.372743 -0.301245
C80   C     C_3   0.197680 0.816965 0.373913 -0.298603
H33   H     H_    0.601738 0.752663 0.299559 0.227452
H34   H     H_    0.690152 0.366343 0.320788 0.254233
H35   H     H_    0.101834 0.252543 0.299588 0.227484
H36   H     H_    0.189603 0.865792 0.320369 0.254160
H37   H     H_    0.596542 0.834240 0.360813 0.197615
H38   H     H_    0.644271 0.292584 0.332007 0.205406
H39   H     H_    0.096517 0.334154 0.360664 0.197620
H40   H     H_    0.144134 0.792006 0.332410 0.205392
H41   H     H_    0.202825 0.421295 0.506301 0.136782
H42   H     H_    0.270129 0.658568 0.539445 0.149343
H43   H     H_    0.702922 0.921261 0.506486 0.136875
H44   H     H_    0.769956 0.158601 0.538973 0.149169
H45   H     H_    0.662009 0.842236 0.570512 0.230537
H46   H     H_    0.692234 0.239849 0.515882 0.202292
H47   H     H_    0.161910 0.342293 0.570357 0.230524
H48   H     H_    0.192460 0.739775 0.516571 0.202195
C81   C     C_2   0.613443 0.228493 0.783363 0.458267
C82   C     C_2   0.699508 0.663364 0.974551 0.337735
C83   C     C_2   0.113466 0.728502 0.783329 0.458069
C84   C     C_2   0.199509 0.163366 0.974546 0.337745
C85   C     C_2   0.667845 0.178329 0.855185 0.282672
C86   C     C_2   0.763057 0.636991 0.068087 0.314272
C87   C     C_2   0.167861 0.678333 0.855154 0.282621
C88   C     C_2   0.263053 0.136992 0.068089 0.314239
H49   H     H_    0.297248 0.620620 0.960931 0.195333
H50   H     H_    0.323099 0.255853 0.044825 0.197693
H51   H     H_    0.797228 0.120606 0.960926 0.195330
H52   H     H_    0.823053 0.755888 0.044778 0.197709
C89   C     C_2   0.294883 0.655326 0.015766 -0.087888
C90   C     C_2   0.340837 0.250649 0.128671 -0.194200
C91   C     C_2   0.794877 0.155327 0.015765 -0.087759
C92   C     C_2   0.840820 0.750664 0.128642 -0.194204
C93   C     C_2   0.235209 0.697553 0.970026 0.345804
C94   C     C_2   0.318760 0.190694 0.155202 0.428228
C95   C     C_2   0.735208 0.197563 0.970035 0.345742
C96   C     C_2   0.818770 0.690693 0.155193 0.428283
Cl1   Cl    Cl    0.314758 0.216782 0.445084 -0.395365
Cl2   Cl    Cl    0.356666 0.862586 0.429545 -0.400802
Cl3   Cl    Cl    0.814656 0.716769 0.444851 -0.395448
Cl4   Cl    Cl    0.857083 0.362793 0.430284 -0.400949
N33   N     N_R   0.709177 0.637117 0.431829 0.296525
O1    O     O_R   0.678109 0.651546 0.327514 -0.270504
O2    O     O_R   0.704235 0.567725 0.458448 -0.331470
N34   N     N_R   0.804843 0.460399 0.513039 0.300163
O3    O     O_R   0.766272 0.478101 0.407381 -0.219090
O4    O     O_R   0.845781 0.513074 0.587398 -0.192670
N35   N     N_R   0.209351 0.137072 0.432204 0.296500
O5    O     O_R   0.178273 0.151371 0.327853 -0.270251
O6    O     O_R   0.204484 0.067717 0.459015 -0.331666
N36   N     N_R   0.304387 0.960285 0.511949 0.300136
O7    O     O_R   0.265310 0.977689 0.406089 -0.219726
O8    O     O_R   0.346161 0.012915 0.585881 -0.191585
N37   N     N_R   0.300995 0.416627 0.663747 0.264383
O9    O     O_R   0.317455 0.485795 0.653823 -0.342591
O10   O     O_R   0.320069 0.397035 0.760266 -0.220624
N38   N     N_R   0.358533 0.703329 0.693498 0.243032
O11   O     O_R   0.367186 0.635877 0.738188 -0.225975
O12   O     O_R   0.394162 0.761345 0.759993 -0.284202
N39   N     N_R   0.801115 0.916474 0.663889 0.264298
O13   O     O_R   0.817574 0.985662 0.654040 -0.342150
O14   O     O_R   0.820251 0.896785 0.760420 -0.220600
N40   N     N_R   0.858295 0.203172 0.693252 0.243060
O15   O     O_R   0.866877 0.135641 0.737702 -0.226089
O16   O     O_R   0.893894 0.261102 0.759959 -0.284292
Cl5   Cl    Cl    0.723693 0.321702 0.782035 -0.572158
Cl6   Cl    Cl    0.753897 0.550973 0.870571 -0.423289
Cl7   Cl    Cl    0.223824 0.821843 0.782303 -0.571885
Cl8   Cl    Cl    0.253896 0.050969 0.870569 -0.423219
Cl9   Cl    Cl    0.231605 0.762377 0.052669 -0.502962
Cl10  Cl    Cl    0.359434 0.171091 0.295758 -0.356048
Cl11  Cl    Cl    0.731628 0.262408 0.052684 -0.503288
Cl12  Cl    Cl    0.859503 0.671061 0.295768 -0.356030
Cl13  Cl    Cl    0.655099 0.079117 0.818529 -0.420928
Cl14  Cl    Cl    0.778277 0.536755 0.096952 -0.350021
Cl15  Cl    Cl    0.155125 0.579130 0.818458 -0.420957
Cl16  Cl    Cl    0.278274 0.036757 0.096956 -0.349814
Cl17  Cl    Cl    0.533806 0.193227 0.656419 -0.369945
Cl18  Cl    Cl    0.673162 0.760579 0.961652 -0.486497
Cl19  Cl    Cl    0.033857 0.693256 0.656327 -0.370157
Cl20  Cl    Cl    0.173169 0.260585 0.961636 -0.486385
N41   N     N_R   0.755663 0.447391 0.685277 0.265133
O17   O     O_R   0.811669 0.406863 0.762172 -0.251253
O18   O     O_R   0.764354 0.520612 0.678933 -0.297078
N42   N     N_R   0.703527 0.677571 0.698864 0.207781
O19   O     O_R   0.771331 0.664931 0.758871 -0.264819
O20   O     O_R   0.683117 0.733401 0.727526 -0.373484
N43   N     N_R   0.255680 0.947334 0.685244 0.265142
O21   O     O_R   0.311726 0.906803 0.762019 -0.251617
O22   O     O_R   0.264334 0.020579 0.678953 -0.297287
N44   N     N_R   0.203490 0.177603 0.698852 0.207737
O23   O     O_R   0.271304 0.164991 0.758918 -0.265059
O24   O     O_R   0.183036 0.233429 0.727449 -0.373426
N45   N     N_R   0.531362 0.350578 0.814557 0.249451
O25   O     O_R   0.532849 0.282952 0.853029 -0.244234
O26   O     O_R   0.524342 0.410824 0.855282 -0.270846
N46   N     N_R   0.545419 0.594747 0.851189 0.265505
O27   O     O_R   0.573470 0.623053 0.948580 -0.227599
O28   O     O_R   0.487820 0.553654 0.799055 -0.302710
N47   N     N_R   0.031373 0.850560 0.814559 0.249439
O29   O     O_R   0.032847 0.782926 0.853002 -0.244200
O30   O     O_R   0.024358 0.910799 0.855301 -0.270771
N48   N     N_R   0.045422 0.094746 0.851195 0.265477
O31   O     O_R   0.073468 0.123067 0.948577 -0.227628
O32   O     O_R   0.987833 0.053639 0.799080 -0.302664
N49   N     N_R   0.472298 0.343612 0.192676 0.217948
O33   O     O_R   0.474263 0.396653 0.135462 -0.281189
O34   O     O_R   0.487177 0.272598 0.187956 -0.345300
N50   N     N_R   0.450259 0.598540 0.142750 0.240023
O35   O     O_R   0.502529 0.550069 0.186788 -0.316284
O36   O     O_R   0.429593 0.639675 0.056337 -0.277022
N51   N     N_R   0.972265 0.843634 0.192615 0.217925
O37   O     O_R   0.974225 0.896692 0.135413 -0.281100
O38   O     O_R   0.987121 0.772623 0.187837 -0.345339
N52   N     N_R   0.950256 0.098541 0.142745 0.240015
O39   O     O_R   0.002533 0.050079 0.186790 -0.316258
O40   O     O_R   0.929578 0.139668 0.056319 -0.277005
N53   N     N_R   0.360527 0.246549 0.648247 0.219798
O41   O     O_R   0.414383 0.207622 0.673937 -0.190800
O42   O     O_R   0.362515 0.266558 0.729814 -0.311170
N54   N     N_R   0.429697 0.823820 0.639936 0.252097
O43   O     O_R   0.476038 0.789675 0.638627 -0.318390
O44   O     O_R   0.454382 0.872570 0.720529 -0.228539
N55   N     N_R   0.860489 0.746421 0.648084 0.219917
O45   O     O_R   0.914402 0.707694 0.673674 -0.190883
O46   O     O_R   0.862485 0.766247 0.729715 -0.310993
N56   N     N_R   0.929864 0.323669 0.640478 0.251983
O47   O     O_R   0.976229 0.289585 0.639170 -0.318322
O48   O     O_R   0.954535 0.372261 0.721232 -0.228737

loop_
_geom_bond_atom_site_label_1
_geom_bond_atom_site_label_2
_geom_bond_distance
_ccdc_geom_bond_type
C86   Cl14  1.767505 S    
N6    N26   1.411178 A    
N5    Ni3   1.836017 S    
N27   Ni8   1.827490 S    
C80   H40   1.113515 S    
C50   N54   1.482890 S    
C40   C84   1.474031 S    
C11   C43   1.359419 A    
C23   H15   1.080509 S    
C6    N6    1.344232 A    
N7    N27   1.411178 A    
N55   O45   1.301035 A    
C14   N14   1.326212 A    
N13   Ni7   1.842996 S    
N13   N21   1.352683 A    
C4    H4    1.081112 S    
C77   H33   1.104434 S    
N14   Ni7   1.840809 S    
C32   C36   1.408413 A    
C56   H18   1.102024 S    
N2    N30   1.411178 A    
N15   N23   1.352683 A    
N47   O29   1.300539 A    
C60   N40   1.472641 S    
N37   O9    1.301146 A    
N16   N24   1.352482 A    
C7    N7    1.364760 A    
C52   N56   1.482866 S    
C34   C89   1.489660 S    
N18   Ni3   1.848648 S    
C46   C66   1.484469 S    
C31   N31   1.357909 A    
C63   H31   1.110425 S    
C30   N30   1.361890 A    
N3    Ni2   1.886629 S    
C1    H1    1.080018 S    
H21   C73   1.094692 S    
C8    N8    1.344228 A    
N55   O46   1.298160 A    
C17   N41   1.437227 S    
N23   Ni2   1.857424 S    
C3    H3    1.080017 S    
C4    C36   1.382921 A    
C89   C93   1.360000 D    
C22   H14   1.076637 S    
C76   H48   1.115322 S    
C29   N49   1.426799 S    
N47   O30   1.297154 A    
C27   N27   1.357721 A    
C87   C93   1.497689 S    
C62   C66   1.572197 S    
C1    C33   1.381034 A    
C41   C70   1.491627 S    
N42   O20   1.302301 A    
C64   C68   1.572140 S    
C25   N25   1.357693 A    
C26   N46   1.435801 S    
C79   H39   1.112982 S    
C87   Cl15  1.775862 S    
N42   O19   1.300839 A    
C60   C68   1.583450 S    
C72   C76   1.553709 S    
C24   C48   1.384755 A    
N49   O33   1.299352 A    
C90   C94   1.350362 D    
C59   N39   1.473260 S    
C54   C70   1.576901 S    
C44   C71   1.500049 S    
C70   C74   1.553708 S    
N15   Ni8   1.842996 S    
N12   N20   1.352482 A    
C16   H12   1.069563 S    
N48   O32   1.298928 A    
C61   C79   1.549966 S    
C86   C96   1.481648 S    
C62   C80   1.523378 S    
C82   Cl18  1.768397 S    
C62   H30   1.110801 S    
N43   O21   1.300194 A    
C81   Cl17  1.771134 S    
N54   O43   1.301974 A    
N33   O2    1.297714 A    
C23   N23   1.326802 A    
C35   C92   1.471899 S    
N44   O24   1.302305 A    
C24   N24   1.323265 A    
N31   Ni6   1.862843 S    
C53   N33   1.477527 S    
N3    N31   1.411178 A    
C58   C76   1.523306 S    
C4    N4    1.341166 A    
C12   H8    1.068415 S    
N41   O17   1.300142 A    
N14   N22   1.352482 A    
N4    Ni2   1.868034 S    
N33   O1    1.301826 A    
C55   C71   1.568387 S    
C48   C68   1.484676 S    
C55   N35   1.477419 S    
C61   H27   1.113371 S    
N24   Ni2   1.875819 S    
C49   C55   1.552686 S    
C39   C83   1.489498 S    
N35   O5    1.301849 A    
C93   Cl9   1.767514 S    
N45   O25   1.300535 A    
N30   Ni5   1.860040 S    
C47   C67   1.481655 S    
C51   C53   1.552790 S    
C2    H2    1.081110 S    
C64   C78   1.523563 S    
C21   N21   1.326791 A    
C33   C90   1.471909 S    
C30   C34   1.408401 A    
C45   C65   1.481629 S    
C12   C44   1.369346 A    
C29   C33   1.399372 A    
C14   H10   1.069561 S    
N46   O28   1.298924 A    
C18   N18   1.357366 A    
H51   C91   1.085742 S    
N37   O10   1.302135 A    
C49   N53   1.482453 S    
C50   C56   1.583593 S    
C83   Cl19  1.771124 S    
C52   C68   1.586875 S    
N36   O7    1.302001 A    
N38   O12   1.299922 A    
C69   C77   1.566758 S    
C42   C69   1.499993 S    
N11   Ni6   1.849572 S    
C80   H36   1.108598 S    
N51   O37   1.299350 A    
H23   C75   1.094796 S    
C1    N1    1.336326 A    
C6    C38   1.374164 A    
C23   C47   1.370323 A    
C8    C40   1.374158 A    
N11   N19   1.352683 A    
C21   H13   1.080511 S    
N40   O15   1.300247 A    
N38   O11   1.300296 A    
C53   C69   1.568458 S    
C19   N19   1.355942 A    
N28   Ni8   1.830249 S    
C58   N38   1.472617 S    
C61   H29   1.110444 S    
C83   C87   1.363237 D    
C9    C41   1.359581 A    
C37   C81   1.489521 S    
C56   N36   1.467902 S    
C92   C96   1.350357 D    
N32   Ni6   1.860040 S    
N49   O34   1.300631 A    
C20   N44   1.426519 S    
C18   N42   1.426498 S    
N2    Ni1   1.868034 S    
C15   H11   1.071437 S    
C12   N12   1.333478 A    
N36   O8    1.302566 A    
N48   O31   1.300856 A    
C75   H47   1.113043 S    
C64   H26   1.114934 S    
N17   Ni3   1.866963 S    
N22   Ni1   1.875819 S    
C59   H43   1.116223 S    
C16   C48   1.377566 A    
N39   O13   1.301108 A    
N16   Ni8   1.840809 S    
H22   C74   1.108789 S    
C6    Cl6   1.759450 S    
C28   N28   1.358257 A    
C57   H41   1.116222 S    
C57   C75   1.544543 S    
N44   O23   1.300842 A    
C10   C42   1.369311 A    
C25   N45   1.431024 S    
N9    Ni5   1.849572 S    
N56   O47   1.301981 A    
C55   H17   1.107858 S    
N1    N29   1.411178 A    
C56   C72   1.576902 S    
N9    N17   1.352683 A    
C88   C94   1.481631 S    
N41   O18   1.296916 A    
N35   O6    1.297711 A    
H50   C90   1.086583 S    
C10   H6    1.068425 S    
N52   O40   1.300780 A    
C19   N43   1.437312 S    
C73   H45   1.113044 S    
N50   O36   1.300779 A    
C59   C73   1.544408 S    
N39   O14   1.302120 A    
C14   C46   1.377563 A    
C71   C75   1.560436 S    
C11   H7    1.075994 S    
N53   O42   1.298187 A    
C78   H34   1.108590 S    
C28   C40   1.386510 A    
N56   O48   1.302658 A    
C16   N16   1.326286 A    
C32   N32   1.361904 A    
N6    Ni3   1.854310 S    
C50   Cl2   1.815269 S    
C7    Cl7   1.740366 S    
C2    N2    1.341168 A    
C31   N51   1.426796 S    
C96   Cl12  1.761416 S    
H52   C92   1.086581 S    
C51   N55   1.482469 S    
N46   O27   1.300856 A    
C7    C39   1.384633 A    
C43   C72   1.491340 S    
C82   C86   1.353837 D    
C54   H20   1.101909 S    
N19   Ni4   1.866963 S    
C50   C66   1.586762 S    
C9    H5    1.076000 S    
N5    N25   1.411178 A    
C85   C95   1.497701 S    
N1    Ni1   1.886629 S    
C17   C41   1.386575 A    
C10   N10   1.333476 A    
H24   C76   1.108732 S    
C59   C67   1.584490 S    
N26   Ni7   1.830249 S    
N25   Ni7   1.827490 S    
C19   C43   1.386547 A    
C36   C91   1.489675 S    
N21   Ni1   1.857424 S    
C63   H25   1.113366 S    
C57   C65   1.584522 S    
N34   O3    1.301738 A    
C13   C45   1.378449 A    
C9    N9    1.323369 A    
C26   C38   1.386507 A    
C60   C74   1.523382 S    
C49   C65   1.592520 S    
N7    Ni4   1.836017 S    
C25   C37   1.389771 A    
C18   C42   1.396602 A    
N12   Ni6   1.851768 S    
C30   N50   1.435217 S    
C3    N3    1.336323 A    
C22   N22   1.323099 A    
C78   H38   1.113417 S    
C27   C39   1.389824 A    
C79   H35   1.104439 S    
C58   H42   1.116823 S    
C5    N5    1.364844 A    
C13   H9    1.071468 S    
C13   N13   1.330180 A    
C70   C78   1.554540 S    
C51   C67   1.592507 S    
N45   O26   1.297150 A    
C64   H32   1.110797 S    
C15   N15   1.330169 A    
N8    Ni4   1.854310 S    
C72   C80   1.554631 S    
C28   N48   1.435811 S    
N51   O38   1.300633 A    
N50   O35   1.300119 A    
C88   Cl16  1.767499 S    
C3    C35   1.381018 A    
N10   N18   1.352482 A    
C81   C85   1.363249 D    
C31   C35   1.399366 A    
C26   N26   1.358251 A    
C95   Cl11  1.767510 S    
C38   C82   1.474039 S    
H49   C89   1.085739 S    
N4    N32   1.411178 A    
N10   Ni5   1.851768 S    
C71   C79   1.566763 S    
C69   C73   1.560397 S    
C49   Cl1   1.822955 S    
C52   C54   1.583784 S    
N29   Ni5   1.862843 S    
C8    Cl8   1.759450 S    
C54   N34   1.467891 S    
N40   O16   1.299885 A    
C94   Cl10  1.761408 S    
C63   C67   1.572554 S    
C22   C46   1.384652 A    
N34   O4    1.301604 A    
C2    C34   1.382924 A    
N52   O39   1.300119 A    
C53   H19   1.107891 S    
C62   H28   1.114958 S    
C61   C65   1.572528 S    
C57   N37   1.473293 S    
C20   N20   1.357426 A    
C24   H16   1.076649 S    
N54   O44   1.302676 A    
C32   N52   1.435219 S    
C20   C44   1.396568 A    
C51   Cl3   1.822959 S    
C5    C37   1.384670 A    
C84   Cl20  1.768396 S    
N20   Ni4   1.848648 S    
C29   N29   1.357891 A    
N43   O22   1.296987 A    
N8    N28   1.411178 A    
C85   Cl13  1.775859 S    
C17   N17   1.356003 A    
C74   H46   1.115285 S    
C5    Cl5   1.740356 S    
N53   O41   1.301091 A    
C77   H37   1.112977 S    
C58   C66   1.583544 S    
C21   C45   1.370327 A    
C63   C77   1.550056 S    
C91   C95   1.360008 D    
C84   C88   1.353832 D    
C11   N11   1.323225 A    
C15   C47   1.378479 A    
C60   H44   1.116809 S    
C52   Cl4   1.815194 S    
C27   N47   1.431019 S    
