data_mof_unit_38792.cif
_audit_creation_date              2012-12-11T15:56:43-0500
_audit_creation_method            fapswitch 2.2
_symmetry_space_group_name_H-M    P1
_symmetry_Int_Tables_number       1
_space_group_crystal_system       triclinic
_cell_length_a                    14.653544
_cell_length_b                    7.19122
_cell_length_c                    13.572117
_cell_angle_alpha                 89.754976
_cell_angle_beta                  99.949775
_cell_angle_gamma                 90.257754
_cell_volume                      1408.65331614

loop_
_atom_site_label
_atom_site_type_symbol
_atom_type_description
_atom_site_fract_x
_atom_site_fract_y
_atom_site_fract_z
_atom_type_partial_charge
O1    O     O_R   0.336930 0.638190 0.166330 -0.539105
O2    O     O_R   0.663070 0.361810 0.833670 -0.542393
O3    O     O_R   0.163070 0.138190 0.333670 -0.531780
O4    O     O_R   0.836930 0.861810 0.666330 -0.541536
O5    O     O_R   0.147900 0.305430 0.139630 -0.530035
O6    O     O_R   0.852100 0.694570 0.860370 -0.528918
O7    O     O_R   0.352100 0.805430 0.360370 -0.540988
O8    O     O_R   0.647900 0.194570 0.639630 -0.536773
C1    C     C_R   0.115150 0.477515 0.113219 0.711030
C2    C     C_R   0.884872 0.522477 0.886753 0.706517
C3    C     C_R   0.384828 0.977573 0.386821 0.702952
C4    C     C_R   0.615132 0.022422 0.613221 0.701532
O9    O     O_R   0.335280 0.308290 0.154310 -0.515684
O10   O     O_R   0.664720 0.691710 0.845690 -0.517163
O11   O     O_R   0.164720 0.808290 0.345690 -0.554904
O12   O     O_R   0.835280 0.191710 0.654310 -0.514721
O13   O     O_R   0.351790 0.140890 0.348460 -0.533127
O14   O     O_R   0.648210 0.859110 0.651540 -0.536717
O15   O     O_R   0.148210 0.640890 0.151540 -0.531691
O16   O     O_R   0.851790 0.359110 0.848460 -0.535578
C5    C     C_R   0.364802 0.477812 0.134241 0.771649
C6    C     C_R   0.635084 0.522219 0.865622 0.764176
C7    C     C_R   0.135746 0.976975 0.366928 0.708000
C8    C     C_R   0.864075 0.023527 0.632939 0.727536
O17   O     O_3   0.255200 0.472570 0.313680 -0.387419
O18   O     O_3   0.744800 0.527430 0.686320 -0.378818
O19   O     O_3   0.244800 0.972570 0.186320 -0.362739
O20   O     O_3   0.755200 0.027430 0.813680 -0.369728
V1    V     V_3+5 0.249040 0.196590 0.238190 1.452147
V2    V     V_3+5 0.750960 0.803410 0.761810 1.457288
V3    V     V_3+5 0.250960 0.696590 0.261810 1.387088
V4    V     V_3+5 0.749040 0.303410 0.738190 1.437923
C9    C     C_R   0.050461 0.840833 0.499818 0.398712
C10   C     C_R   0.969518 0.176500 0.525183 0.428206
C11   C     C_R   0.416778 0.398612 0.972708 0.444435
C12   C     C_R   0.582930 0.601819 0.026967 0.445440
C13   C     C_R   0.963347 0.844423 0.530979 0.081752
C14   C     C_R   0.016063 0.157194 0.443058 0.044030
C15   C     C_R   0.482798 0.403709 0.907682 0.011607
C16   C     C_R   0.516945 0.596635 0.092014 0.011266
C17   C     C_R   0.935080 0.015128 0.565901 -0.221923
C18   C     C_R   0.065304 0.989081 0.434581 -0.221536
C19   C     C_R   0.565541 0.509223 0.933985 -0.236044
C20   C     C_R   0.434254 0.490936 0.065777 -0.238057
C21   C     C_1   0.533899 0.008208 0.533203 -0.175502
C22   C     C_1   0.466018 0.991759 0.466883 -0.180297
C23   C     C_1   0.966086 0.508264 0.966809 -0.186352
C24   C     C_1   0.033953 0.491690 0.033138 -0.183363
O21   O     O_3   0.122500 0.798357 0.577214 -0.564317
C25   C     C_3   0.187432 0.677833 0.546454 -0.202210
H1    H     H_    0.243089 0.759404 0.520225 0.150408
H2    H     H_    0.155751 0.575345 0.489675 0.139547
H3    H     H_    0.221226 0.597360 0.612594 0.130569
O22   O     O_3   0.951657 0.351112 0.558035 -0.554467
C26   C     C_3   0.018392 0.390356 0.643674 -0.173193
H4    H     H_    0.089942 0.383949 0.626844 0.126571
H5    H     H_    0.006891 0.533177 0.669311 0.172558
H6    H     H_    0.011951 0.294050 0.706514 0.110398
O23   O     O_3   0.335527 0.297736 0.946383 -0.542725
C27   C     C_3   0.265706 0.418509 0.898704 -0.243905
H7    H     H_    0.249656 0.528502 0.950415 0.121497
H8    H     H_    0.201419 0.336475 0.874993 0.157852
H9    H     H_    0.284923 0.483143 0.830419 0.134844
O24   O     O_3   0.664022 0.703240 0.053144 -0.543174
C28   C     C_3   0.734130 0.582879 0.100588 -0.252960
H10   H     H_    0.798288 0.665364 0.124141 0.160905
H11   H     H_    0.750266 0.473130 0.048791 0.119874
H12   H     H_    0.715174 0.517946 0.168917 0.135556
C29   C     C_3   0.888085 0.717298 0.480335 -0.722107
H13   H     H_    0.831348 0.799593 0.435724 0.172869
H14   H     H_    0.914924 0.623719 0.427849 0.212158
H15   H     H_    0.858423 0.634103 0.535965 0.270394
C30   C     C_3   0.001083 0.303816 0.362047 -0.680416
H16   H     H_    0.928587 0.353771 0.351979 0.186262
H17   H     H_    0.049317 0.422054 0.380890 0.203348
H18   H     H_    0.007873 0.246121 0.288025 0.190983
C31   C     C_3   0.463684 0.299984 0.809288 -0.686059
H19   H     H_    0.514146 0.185243 0.809994 0.212774
H20   H     H_    0.393756 0.235980 0.793995 0.229445
H21   H     H_    0.469095 0.396675 0.746519 0.173439
C32   C     C_3   0.536013 0.700644 0.190325 -0.683849
H22   H     H_    0.605968 0.764522 0.205650 0.227056
H23   H     H_    0.485589 0.815506 0.189451 0.213453
H24   H     H_    0.530496 0.604198 0.253165 0.176223

loop_
_geom_bond_atom_site_label_1
_geom_bond_atom_site_label_2
_ccdc_geom_bond_type
O17   V3    S    
C26   H4    S    
O1    C5    A    
C13   C29   S    
O19   V1    S    
O13   V1    S    
C30   H16   S    
O3    C7    A    
O15   V3    S    
O21   C25   S    
C32   H22   S    
C21   C22   T    
O7    C3    A    
C7    C18   S    
C27   H9    S    
C9    C18   A    
C15   C31   S    
C11   O23   S    
C14   C18   A    
O4    C8    A    
C9    O21   S    
O1    V3    S    
O2    V4    S    
C29   H14   S    
C1    O15   A    
C23   C24   T    
C2    O16   A    
C28   H11   S    
O2    C6    A    
C25   H2    S    
O14   V2    S    
O11   C7    A    
O23   C27   S    
O12   C8    A    
C8    C17   S    
C30   H17   S    
C10   C17   A    
O10   V2    S    
C32   H23   S    
O5    V1    S    
C31   H20   S    
C25   H3    S    
O7    V3    S    
O8    V4    S    
C12   C16   A    
O18   V4    S    
C15   C19   A    
C31   H19   S    
C9    C13   A    
C27   H7    S    
C29   H15   S    
C11   C15   A    
O5    C1    A    
C5    C20   S    
C6    C19   S    
O8    C4    A    
C28   H12   S    
C25   H1    S    
O9    C5    A    
C11   C20   A    
O6    V2    S    
C10   O22   S    
C26   H5    S    
C30   H18   S    
C32   H24   S    
O16   V4    S    
C31   H21   S    
O9    V1    S    
O22   C26   S    
C3    O13   A    
C10   C14   A    
C16   C32   S    
C4    C21   S    
C12   C19   A    
O6    C2    A    
O11   V3    S    
O12   V4    S    
O24   C28   S    
O10   C6    A    
O20   V2    S    
C27   H8    S    
O3    V1    S    
C13   C17   A    
C29   H13   S    
C16   C20   A    
C1    C24   S    
C28   H10   S    
C26   H6    S    
C4    O14   A    
C2    C23   S    
C3    C22   S    
C12   O24   S    
O4    V2    S    
C14   C30   S    
