data_mof_unit_48970.cif
_audit_creation_date              2013-03-05T16:19:44-0500
_audit_creation_method            fapswitch 2.2
_symmetry_space_group_name_H-M    P1
_symmetry_Int_Tables_number       1
_space_group_crystal_system       triclinic
_cell_length_a                    10.835306
_cell_length_b                    9.791716
_cell_length_c                    27.211217
_cell_angle_alpha                 90.515635
_cell_angle_beta                  88.403523
_cell_angle_gamma                 89.911142
_cell_volume                      2885.76558327

loop_
_atom_site_label
_atom_site_type_symbol
_atom_site_description
_atom_site_fract_x
_atom_site_fract_y
_atom_site_fract_z
_atom_type_partial_charge
O1    O     O_R   0.314910 0.616040 0.499990 -0.587496
O2    O     O_R   0.314910 0.383960 0.499990 -0.612274
C1    C     C_R   0.258040 0.500411 0.502151 0.860155
O3    O     O_R   0.500140 0.616020 0.428740 -0.604788
O4    O     O_R   0.500140 0.383980 0.428740 -0.603126
C2    C     C_R   0.497612 0.499754 0.405904 0.970827
Zn1   Zn    Zn3+2 0.500150 0.654960 0.499980 0.962890
Zn2   Zn    Zn3+2 0.500150 0.345040 0.499980 0.967175
O5    O     O_R   0.685320 0.616040 0.499970 -0.614634
O6    O     O_R   0.685320 0.383960 0.499970 -0.595751
O7    O     O_R   0.500090 0.616050 0.571230 -0.633527
O8    O     O_R   0.500090 0.383950 0.571230 -0.621634
C3    C     C_R   0.740483 0.500186 0.507404 0.915490
C4    C     C_R   0.498653 0.500666 0.594182 0.886519
C5    C     C_R   0.273729 0.444584 0.185133 0.622690
O9    O     O_2   0.218803 0.340864 0.209578 -0.529488
N1    N     N_R   0.340107 0.539778 0.210144 -0.332352
C6    C     C_R   0.392865 0.649426 0.187050 0.562828
C7    C     C_R   0.488444 0.461465 0.268285 -0.159254
C8    C     C_R   0.535239 0.456583 0.315542 -0.031747
C9    C     C_R   0.339732 0.550310 0.347140 -0.271733
C10   C     C_R   0.294100 0.559751 0.299681 0.021883
C11   C     C_R   0.371064 0.515688 0.259981 0.211591
C12   C     C_R   0.330264 0.557270 0.108965 -0.058778
C13   C     C_R   0.265886 0.452845 0.133924 -0.121998
C14   C     C_R   0.196530 0.359365 0.107123 -0.174004
C15   C     C_R   0.389753 0.659825 0.135932 -0.011301
C16   C     C_R   0.459182 0.501369 0.355176 -0.097200
H1    H     H_    0.283200 0.584539 0.378384 0.165648
H2    H     H_    0.137503 0.285799 0.125718 0.212995
C17   C     C_R   0.483421 0.503753 0.647445 -0.076463
C18   C     C_R   0.323067 0.427309 0.980342 -0.022414
C19   C     C_R   0.408431 0.661189 0.980178 0.055556
C20   C     C_R   0.373890 0.540608 0.954616 0.061336
C21   C     C_R   0.314758 0.299536 0.954965 -0.017887
C22   C     C_R   0.327887 0.295721 0.903664 -0.221227
C23   C     C_R   0.365644 0.411242 0.877517 -0.044453
C24   C     C_R   0.393481 0.532212 0.903091 -0.054067
C25   C     C_R   0.442792 0.644233 0.877143 -0.033725
C26   C     C_R   0.464136 0.632736 0.826368 0.577803
N2    N     N_R   0.431221 0.516381 0.801805 -0.337559
C27   C     C_R   0.382892 0.406380 0.826257 0.542477
C28   C     C_R   0.526436 0.413742 0.727353 -0.182507
C29   C     C_R   0.543714 0.409057 0.676503 -0.220160
C30   C     C_R   0.403496 0.600633 0.669147 -0.354962
C31   C     C_R   0.384229 0.605711 0.720336 0.596684
C32   C     C_R   0.446594 0.510967 0.749328 0.214675
O10   O     O_2   0.351005 0.293094 0.801023 -0.562207
C33   C     C_R   0.287983 0.445659 0.030674 -0.062926
C34   C     C_R   0.338964 0.556217 0.057076 0.023574
C35   C     C_R   0.401089 0.663566 0.032158 0.083245
C36   C     C_R   0.201125 0.360570 0.055821 0.528424
H3    H     H_    0.605080 0.333148 0.659924 0.192338
H4    H     H_    0.575240 0.341938 0.749830 0.178275
H5    H     H_    0.317457 0.199196 0.884400 0.216507
O11   O     O_2   0.451883 0.745283 0.213499 -0.523460
C37   C     C_R   0.450488 0.765840 0.111271 -0.117315
H6    H     H_    0.546479 0.431763 0.236875 0.170433
H7    H     H_    0.497135 0.845800 0.131284 0.199779
C38   C     C_R   0.452436 0.773892 0.952845 -0.174768
C39   C     C_R   0.469857 0.765082 0.902249 -0.113935
O12   O     O_2   0.518184 0.736707 0.801675 -0.561826
C40   C     C_R   0.456098 0.767978 0.060261 -0.220631
H8    H     H_    0.472526 0.871348 0.969508 0.156369
H9    H     H_    0.353602 0.668876 0.645887 0.141171
H10   H     H_    0.504902 0.853768 0.882883 0.191337
H11   H     H_    0.509711 0.849231 0.043938 0.147009
C41   C     C_3   0.074015 0.617650 0.543352 0.298420
C42   C     C_3   0.073685 0.362566 0.528309 0.301428
H12   H     H_    0.099891 0.584516 0.580983 0.030563
H13   H     H_    0.114958 0.358570 0.565410 0.075169
C43   C     C_3   0.929057 0.625819 0.541904 -0.283271
C44   C     C_3   0.932884 0.372843 0.538427 -0.246342
H14   H     H_    0.893688 0.614448 0.580502 0.101802
H15   H     H_    0.926538 0.400915 0.578226 0.079500
H16   H     H_    0.089696 0.640440 0.445713 0.263232
H17   H     H_    0.111028 0.471684 0.425182 0.158464
H18   H     H_    0.885873 0.600151 0.438463 0.269308
H19   H     H_    0.901499 0.422669 0.435668 0.199732
C45   C     C_3   0.068690 0.532697 0.455576 -0.400611
C46   C     C_3   0.122061 0.501827 0.506420 -0.083168
C47   C     C_3   0.877973 0.501325 0.510983 -0.148235
C48   C     C_3   0.928734 0.512795 0.457351 -0.347445
C49   C     C_3   0.391834 0.079611 0.473553 -0.260741
C50   C     C_3   0.387541 0.918763 0.476309 -0.224042
H20   H     H_    0.389175 0.113503 0.434863 0.206823
H21   H     H_    0.372133 0.872834 0.439682 0.205717
H22   H     H_    0.307037 0.119186 0.491657 0.213074
H23   H     H_    0.304726 0.888768 0.498242 0.209260
C51   C     C_3   0.613770 0.079082 0.474883 -0.162514
C52   C     C_3   0.609367 0.917279 0.471517 -0.173928
C53   C     C_3   0.491297 0.081815 0.549641 -0.282007
C54   C     C_3   0.500578 0.920589 0.549630 -0.292114
N3    N     N_3   0.499750 0.138610 0.498940 -0.088488
N4    N     N_3   0.499750 0.861390 0.498940 -0.092980
H24   H     H_    0.563895 0.125945 0.572486 0.188321
H25   H     H_    0.585286 0.888479 0.568402 0.194497
H26   H     H_    0.402770 0.114028 0.568058 0.169753
H27   H     H_    0.422418 0.878393 0.571949 0.161759
H28   H     H_    0.689042 0.102138 0.499655 0.162453
H29   H     H_    0.690748 0.880238 0.490237 0.161683
O13   O     O_3   0.298217 0.692740 0.743246 -0.604672
C55   C     C_3   0.303387 0.825721 0.723594 -0.218003
H30   H     H_    0.246658 0.832118 0.690331 0.131080
H31   H     H_    0.399801 0.859959 0.715451 0.174814
H32   H     H_    0.262848 0.897879 0.751274 0.216018
O14   O     O_3   0.128139 0.746501 0.532264 -0.566505
C56   C     C_3   0.142496 0.825272 0.575559 -0.285099
H33   H     H_    0.221968 0.786878 0.596133 0.132889
H34   H     H_    0.058048 0.825593 0.599769 0.179601
H35   H     H_    0.161624 0.932673 0.565237 0.200464
O15   O     O_3   0.116579 0.236438 0.507234 -0.594618
C57   C     C_3   0.100592 0.218047 0.456377 -0.123218
H36   H     H_    0.176546 0.266531 0.434830 0.130180
H37   H     H_    0.008614 0.247722 0.444489 0.208030
H38   H     H_    0.107931 0.107112 0.448155 0.200536
C58   C     C_2   0.168649 0.618611 0.292874 0.964417
O16   O     O_2   0.099914 0.639379 0.328624 -0.639152
O17   O     O_R   0.128256 0.651396 0.246072 -0.783913
H39   H     H_    0.041482 0.690389 0.246739 0.362424
C59   C     C_2   0.885115 0.765710 0.528295 1.068598
O18   O     O_2   0.911615 0.815012 0.488233 -0.549307
O19   O     O_R   0.821379 0.842175 0.564275 -0.861960
H40   H     H_    0.803665 0.937432 0.553071 0.331697
C60   C     C_2   0.865732 0.239447 0.542698 0.995343
O20   O     O_2   0.893988 0.141748 0.516625 -0.590958
O21   O     O_R   0.780014 0.224992 0.581736 -0.854481
H41   H     H_    0.761155 0.126868 0.589915 0.313221
C61   C     C_2   0.653308 0.146512 0.427013 1.008039
O22   O     O_2   0.584791 0.149847 0.392114 -0.588201
O23   O     O_R   0.773750 0.195699 0.421744 -0.803265
H42   H     H_    0.794937 0.224974 0.386949 0.350159
C62   C     C_2   0.627004 0.858701 0.419709 1.003462
O24   O     O_2   0.550644 0.877778 0.388236 -0.587659
O25   O     O_R   0.734534 0.785512 0.407576 -0.759218
H43   H     H_    0.738004 0.754186 0.371959 0.373457
C63   C     C_2   0.315054 0.165919 0.980566 0.986843
O26   O     O_2   0.263654 0.066981 0.962560 -0.615500
O27   O     O_R   0.377405 0.152154 0.024570 -0.809788
H44   H     H_    0.369691 0.057036 0.038687 0.342378
O28   O     O_3   0.119534 0.277859 0.031215 -0.603065
C64   C     C_3   0.023575 0.359947 0.013639 -0.273007
H45   H     H_    0.058549 0.433716 0.985697 0.165453
H46   H     H_    0.973983 0.414942 0.044297 0.166349
H47   H     H_    0.955782 0.292861 0.995512 0.210573
C65   C     C_2   0.666154 0.417179 0.321421 0.932053
O29   O     O_2   0.715510 0.336185 0.292539 -0.585312
O30   O     O_R   0.735242 0.477659 0.358313 -0.835160
H48   H     H_    0.825839 0.452133 0.355424 0.344808

loop_
_geom_bond_atom_site_label_1
_geom_bond_atom_site_label_2
_geom_bond_distance
_ccdc_geom_bond_type
C10   C58   1.492549 S    
C43   C59   1.502332 S    
N2    C27   1.368333 A    
C21   C22   1.399393 A    
C12   C15   1.406225 A    
C4    C17   1.454183 S    
C53   H26   1.113628 S    
O19   H40   1.003787 S    
C30   C31   1.403140 A    
Zn1   O7    1.979226 S    
C31   O13   1.392475 S    
N1    C11   1.427622 S    
C41   C46   1.586073 S    
C22   C23   1.397438 A    
C49   H20   1.107821 S    
C65   O29   1.223380 D    
C58   O17   1.398039 S    
O4    C2    1.298272 A    
O7    C4    1.295751 A    
C5    C13   1.401469 A    
C5    O9    1.349103 S    
C53   H24   1.102446 S    
C26   O12   1.350214 S    
C56   H33   1.107190 S    
Zn1   O5    2.041657 S    
C10   C11   1.410287 A    
C23   C27   1.402505 A    
C42   H13   1.116467 S    
O5    C3    1.301467 A    
C51   C61   1.517052 S    
H18   C48   1.109716 S    
C55   H31   1.114611 S    
C2    C16   1.453079 S    
C7    C8    1.396538 A    
C1    C46   1.474750 S    
O14   C56   1.414674 S    
C42   C44   1.545660 S    
C41   O14   1.423398 S    
C54   H27   1.110715 S    
C6    O11   1.350279 S    
C57   H38   1.109360 S    
C60   O20   1.219434 D    
C54   N4    1.491643 S    
O1    Zn1   2.043564 S    
C9    C10   1.399395 A    
C44   H15   1.115175 S    
C64   H47   1.109160 S    
C52   H29   1.093598 S    
C45   C48   1.528721 S    
C39   H10   1.083564 S    
C51   H28   1.095002 S    
O15   C57   1.409428 S    
N2    C32   1.433511 S    
C51   N3    1.496809 S    
C65   O30   1.396927 S    
C50   H21   1.106765 S    
C7    H6    1.084223 S    
C12   C34   1.412411 A    
C19   C20   1.420924 A    
C25   C39   1.396658 A    
C40   H11   1.077569 S    
C17   C29   1.397087 A    
C18   C21   1.427758 A    
C49   H22   1.098775 S    
O25   H43   1.013611 S    
C35   C40   1.413700 A    
C49   C50   1.578132 S    
C41   C43   1.574188 S    
O3    C2    1.292771 A    
C15   C37   1.396791 A    
C25   C26   1.398012 A    
C50   H23   1.105333 S    
C27   O10   1.349829 S    
C8    C16   1.405497 A    
O3    Zn1   1.972302 S    
C13   C14   1.398246 A    
C9    H1    1.084251 S    
C3    C47   1.495687 S    
C47   C48   1.550279 S    
C38   C39   1.386325 A    
O1    C1    1.290892 A    
C18   C20   1.420710 A    
C7    C11   1.402367 A    
C28   C29   1.391467 A    
C23   C24   1.405802 A    
C14   C36   1.395644 A    
C63   O27   1.398607 S    
C28   H4    1.082897 S    
C52   C62   1.524151 S    
Zn2   O8    1.972497 S    
C33   C36   1.423012 A    
C53   N3    1.492645 S    
N1    C6    1.366900 A    
C29   H3    1.083424 S    
Zn2   N3    2.021261 S    
C34   C35   1.416809 A    
C49   N3    1.489347 S    
C12   C13   1.407721 A    
O17   H39   1.013877 S    
C59   O18   1.223261 D    
C42   C46   1.577457 S    
C43   H14   1.114540 S    
C26   N2    1.368510 A    
C9    C16   1.402985 A    
O8    C4    1.297295 A    
C14   H2    1.083478 S    
C19   C38   1.412460 A    
C30   H9    1.079328 S    
C62   O24   1.222617 D    
C8    C65   1.482789 S    
O21   H41   1.008148 S    
C54   H25   1.109197 S    
C44   C47   1.591778 S    
C62   O25   1.397063 S    
C57   H36   1.107158 S    
H17   C45   1.104765 S    
C5    N1    1.366467 A    
C31   C32   1.407343 A    
C20   C24   1.413820 A    
Zn2   O6    2.042819 S    
O2    Zn2   2.042402 S    
C6    C15   1.396950 A    
H16   C45   1.113225 S    
C37   C40   1.388016 A    
C45   C46   1.546458 S    
O6    C3    1.303089 A    
O4    Zn2   1.979036 S    
O27   H44   1.013351 S    
C19   C35   1.414426 A    
Zn1   N4    2.021757 S    
C63   O26   1.223569 D    
C36   O28   1.382476 S    
C56   H35   1.109296 S    
C38   H8    1.077940 S    
O2    C1    1.295356 A    
C61   O22   1.222234 D    
C22   H5    1.084243 S    
C58   O16   1.223902 D    
C21   C63   1.487801 S    
H19   C48   1.102331 S    
C50   N4    1.489593 S    
C51   C52   1.587020 S    
C24   C25   1.407806 A    
C44   C60   1.499991 S    
C53   C54   1.581726 S    
C42   O15   1.428559 S    
C56   H34   1.112499 S    
C55   H32   1.109282 S    
C64   H46   1.113854 S    
O30   H48   1.013347 S    
O13   C55   1.412690 S    
C18   C33   1.420911 A    
C59   O19   1.394130 S    
C37   H7    1.083477 S    
C52   N4    1.492321 S    
C41   H12   1.119866 S    
C33   C34   1.415329 A    
C17   C30   1.399085 A    
C55   H30   1.110369 S    
C60   O21   1.399725 S    
C64   H45   1.112732 S    
C57   H37   1.095936 S    
O28   C64   1.409934 S    
C28   C32   1.403800 A    
C43   C47   1.584261 S    
O23   H42   1.012076 S    
C61   O23   1.395838 S    
