data_mof_unit_61997.cif
_audit_creation_date              2012-12-10T19:21:01-0500
_audit_creation_method            fapswitch 2.2
_symmetry_space_group_name_H-M    P1
_symmetry_Int_Tables_number       1
_space_group_crystal_system       triclinic
_cell_length_a                    14.762364
_cell_length_b                    15.996952
_cell_length_c                    17.130719
_cell_angle_alpha                 89.593217
_cell_angle_beta                  93.733333
_cell_angle_gamma                 90.012518
_cell_volume                      4036.78102053

loop_
_atom_site_label
_atom_site_type_symbol
_atom_type_description
_atom_site_fract_x
_atom_site_fract_y
_atom_site_fract_z
_atom_type_partial_charge
C1    C     C_R   0.499971 0.340834 0.499978 0.831097
C2    C     C_R   0.500029 0.659166 0.500022 0.831097
C3    C     C_R   0.500021 0.912788 0.500012 0.147823
C4    C     C_R   0.499979 0.087212 0.499988 0.147823
C5    C     C_R   0.418139 0.956440 0.487434 -0.164449
C6    C     C_R   0.581861 0.043560 0.512565 -0.164449
C7    C     C_1   0.500040 0.823335 0.500022 -0.053835
C8    C     C_1   0.499960 0.176665 0.499978 -0.053835
C9    C     C_1   0.499956 0.251713 0.499975 -0.157874
C10   C     C_1   0.500044 0.748287 0.500025 -0.157874
C11   C     C_R   0.946131 0.500243 0.429857 -0.232298
C12   C     C_R   0.053869 0.499757 0.570143 -0.232298
C13   C     C_R   0.902885 0.500008 0.500717 -0.066428
C14   C     C_R   0.097115 0.499992 0.499283 -0.066428
C15   C     C_R   0.958143 0.499764 0.571227 0.298828
C16   C     C_R   0.041857 0.500236 0.428773 0.298828
C17   C     C_1   0.802696 0.500017 0.500228 0.226552
C18   C     C_1   0.197304 0.499983 0.499771 0.226552
C19   C     C_R   0.511043 0.498997 0.651260 0.801414
C20   C     C_R   0.488957 0.501003 0.348740 0.801415
C21   C     C_R   0.517012 0.498730 0.737002 -0.044474
C22   C     C_R   0.482988 0.501270 0.262998 -0.044474
C23   C     C_R   0.437395 0.498683 0.777423 -0.224196
C24   C     C_R   0.562605 0.501317 0.222577 -0.224195
C25   C     C_R   0.442292 0.498854 0.858676 -0.147082
C26   C     C_R   0.557708 0.501146 0.141324 -0.147083
C27   C     C_R   0.527486 0.499085 0.901110 0.376537
C28   C     C_R   0.472514 0.500915 0.098890 0.376537
C29   C     C_R   0.606709 0.498925 0.860638 -0.178629
C30   C     C_R   0.393291 0.501074 0.139362 -0.178629
C31   C     C_R   0.601795 0.498766 0.779152 -0.192199
C32   C     C_R   0.398205 0.501234 0.220848 -0.192199
C33   C     C_R   0.581882 0.956317 0.512578 -0.164418
C34   C     C_R   0.418118 0.043683 0.487422 -0.164418
Cu1   Cu    Cu3+1 0.589220 0.500000 0.499980 1.003447
Cu2   Cu    Cu3+1 0.410780 0.500000 0.500020 1.003446
H1    H     H_    0.628887 0.501386 0.253669 0.169952
H2    H     H_    0.371113 0.498614 0.746331 0.169952
H3    H     H_    0.620598 0.501134 0.112157 0.161532
H4    H     H_    0.379402 0.498866 0.887843 0.161532
H5    H     H_    0.672534 0.499046 0.892510 0.158609
H6    H     H_    0.327466 0.500954 0.107490 0.158609
H7    H     H_    0.664242 0.498777 0.749278 0.195715
H8    H     H_    0.335758 0.501223 0.250721 0.195715
H9    H     H_    0.645442 0.076907 0.522325 0.147388
H10   H     H_    0.354558 0.923093 0.477675 0.147388
H11   H     H_    0.645479 0.922874 0.522346 0.147408
H12   H     H_    0.354521 0.077126 0.477654 0.147408
H13   H     H_    0.905370 0.500432 0.374934 0.175252
H14   H     H_    0.094630 0.499568 0.625066 0.175252
N1    N     N_2   0.536726 0.499520 0.983995 -0.257703
N2    N     N_2   0.463274 0.500479 0.016005 -0.257703
N3    N     N_1   0.276710 0.499980 0.499980 -0.148434
N4    N     N_1   0.723290 0.500020 0.500020 -0.148434
O1    O     O_R   0.575320 0.380310 0.499960 -0.567773
O2    O     O_R   0.424680 0.619690 0.500040 -0.567774
O3    O     O_R   0.424640 0.380310 0.500000 -0.567703
O4    O     O_R   0.575360 0.619690 0.500000 -0.567703
O5    O     O_R   0.583590 0.499240 0.613900 -0.567408
O6    O     O_R   0.416410 0.500760 0.386100 -0.567408
O7    O     O_R   0.432900 0.499240 0.613940 -0.586228
O8    O     O_R   0.567100 0.500760 0.386060 -0.586228
Br1   Br    Br    0.094644 0.500566 0.329408 -0.520423
Br2   Br    Br    0.905356 0.499434 0.670592 -0.520423

loop_
_geom_bond_atom_site_label_1
_geom_bond_atom_site_label_2
_ccdc_geom_bond_type
C7    C10   T    
C12   H14   S    
C15   Br2   S    
C2    O4    A    
C20   O8    A    
C25   H4    S    
C11   H13   S    
C6    H9    S    
C1    O3    A    
C20   O6    A    
C23   H2    S    
C21   C31   A    
C11   C16   A    
C14   C18   S    
C26   C28   A    
Cu1   Cu2   S    
C12   C15   A    
C13   C17   S    
C4    C8    S    
C19   O5    A    
C5    C34   A    
C28   C30   A    
C24   H1    S    
C32   H8    S    
C1    C9    S    
C29   C31   A    
C6    C33   A    
C2    O2    A    
Cu1   N4    S    
C30   C32   A    
C27   N1    S    
C11   C13   A    
C22   C32   A    
C19   O7    A    
Cu1   O4    S    
Cu2   O2    S    
C17   N4    T    
Cu1   O5    S    
C19   C21   S    
C12   C14   A    
Cu1   O8    S    
C3    C7    S    
C13   C15   A    
C4    C34   A    
C1    O1    A    
C33   H11   S    
C22   C24   A    
C26   H3    S    
C25   C27   A    
C3    C33   A    
Cu1   O1    S    
Cu2   O7    S    
C2    C10   S    
C3    C5    A    
C23   C25   A    
C34   H12   S    
C27   C29   A    
C4    C6    A    
Cu2   O3    S    
C5    H10   S    
Cu2   O6    S    
C30   H6    S    
C16   Br1   S    
C28   N2    S    
Cu2   N3    S    
C18   N3    T    
C29   H5    S    
C14   C16   A    
C21   C23   A    
C31   H7    S    
N1    N2    D    
C24   C26   A    
C8    C9    T    
C20   C22   S    
