data_mof_unit_18931.cif
_audit_creation_date              2012-12-10T18:11:40-0500
_audit_creation_method            fapswitch 2.2
_symmetry_space_group_name_H-M    P1
_symmetry_Int_Tables_number       1
_space_group_crystal_system       triclinic
_cell_length_a                    10.531207
_cell_length_b                    12.615495
_cell_length_c                    13.195127
_cell_angle_alpha                 83.023838
_cell_angle_beta                  90.432417
_cell_angle_gamma                 101.914313
_cell_volume                      1702.31561691

loop_
_atom_site_label
_atom_site_type_symbol
_atom_type_description
_atom_site_fract_x
_atom_site_fract_y
_atom_site_fract_z
_atom_type_partial_charge
C1    C     C_R   0.475062 0.439893 0.690456 0.859318
C2    C     C_3   0.066454 0.601904 0.512749 -0.163646
C3    C     C_3   0.966344 0.527156 0.590371 -0.220168
C4    C     C_3   0.876423 0.498909 0.500709 -0.036242
C5    C     C_R   0.512274 0.729126 0.048555 -0.168763
C6    C     C_R   0.496619 0.595135 0.199212 -0.129325
C7    C     C_R   0.461017 0.298494 0.837693 -0.198441
C8    C     C_R   0.473682 0.271291 0.941999 0.159389
C9    C     C_R   0.472462 0.350507 0.007093 -0.225413
C10   C     C_R   0.442504 0.452351 0.970504 0.037877
C11   C     C_R   0.420689 0.477112 0.865579 0.044569
C12   C     C_R   0.741804 0.499758 0.500689 0.890108
C13   C     C_R   0.449693 0.535625 0.033723 0.037248
C14   C     C_R   0.465821 0.644898 0.989565 0.057307
C15   C     C_R   0.426564 0.666284 0.889594 -0.229988
C16   C     C_R   0.387389 0.579821 0.832013 0.121375
C17   C     C_R   0.437547 0.514008 0.139588 0.030638
C18   C     C_R   0.538651 0.704165 0.151749 0.049355
C19   C     C_R   0.444413 0.403201 0.798535 -0.164450
C20   C     C_R   0.304085 0.085118 0.357655 -0.298092
C21   C     C_R   0.659377 0.806807 0.626030 0.246947
C22   C     C_R   0.677994 0.908846 0.659278 -0.220306
C23   C     C_R   0.509408 0.560550 0.308599 0.874051
C24   C     C_R   0.610939 0.984857 0.615130 -0.240892
C25   C     C_R   0.525516 0.960299 0.534841 0.022552
C26   C     C_R   0.500608 0.852311 0.508198 0.171690
C27   C     C_R   0.464277 0.039287 0.480781 -0.039406
C28   C     C_R   0.369132 0.007498 0.407262 0.172280
C29   C     C_R   0.341950 0.899558 0.383816 0.037828
C30   C     C_R   0.410106 0.824600 0.432630 -0.280317
C31   C     C_R   0.496437 0.150316 0.495385 -0.044067
C32   C     C_R   0.336023 0.192081 0.379398 -0.018149
C33   C     C_R   0.258306 0.500336 0.498933 0.865247
C34   C     C_3   0.936684 0.400879 0.487271 0.140911
C35   C     C_3   0.026775 0.426812 0.577150 -0.202512
C36   C     C_3   0.123926 0.501091 0.499184 -0.035545
C37   C     C_3   0.034094 0.473572 0.410950 0.041956
C38   C     C_3   0.975030 0.571488 0.424659 0.061184
H1    H     H_    0.282971 0.251421 0.344860 0.152936
H2    H     H_    0.416733 0.747952 0.859276 0.150512
H3    H     H_    0.532064 0.813451 0.013961 0.155127
N1    N     N_R   0.432930 0.222190 0.444670 -0.103602
N2    N     N_R   0.566370 0.776980 0.554790 -0.142903
O1    O     O_R   0.467970 0.366730 0.627150 -0.616401
O2    O     O_R   0.510820 0.544830 0.662520 -0.637255
O3    O     O_R   0.664630 0.410960 0.482340 -0.616533
O4    O     O_R   0.707470 0.589060 0.517710 -0.624113
O5    O     O_R   0.489180 0.455170 0.337480 -0.592418
O6    O     O_R   0.532030 0.633270 0.372850 -0.646357
O7    O     O_R   0.292530 0.410940 0.482290 -0.602184
O8    O     O_R   0.335370 0.589040 0.517660 -0.666522
Zn1   Zn    Zn3+2 0.471390 0.381080 0.476380 0.945292
Zn2   Zn    Zn3+2 0.528610 0.618920 0.523620 0.898465
H4    H     H_    0.051666 0.366997 0.638991 0.141820
N3    N     N_3   0.338391 0.424498 0.184762 -0.444103
H5    H     H_    0.372471 0.352298 0.194792 0.188284
H6    H     H_    0.257472 0.414267 0.137712 0.186454
H7    H     H_    0.475071 0.240381 0.786858 0.164349
H8    H     H_    0.505167 0.334598 0.083960 0.136456
N4    N     N_3   0.500721 0.166640 0.979220 -0.461729
H9    H     H_    0.419328 0.107493 0.965159 0.181579
H10   H     H_    0.511356 0.159585 0.058471 0.183722
N5    N     N_3   0.301228 0.594849 0.749052 -0.450046
H11   H     H_    0.267042 0.522072 0.718212 0.179589
H12   H     H_    0.350082 0.654614 0.692967 0.234182
N6    N     N_3   0.247975 0.867048 0.307846 -0.466934
H13   H     H_    0.251786 0.789309 0.289758 0.174742
H14   H     H_    0.156113 0.861205 0.340221 0.190934
H15   H     H_    0.228749 0.063964 0.302971 0.165711
H16   H     H_    0.571509 0.182771 0.545679 0.139836
N7    N     N_3   0.746785 0.739241 0.664252 -0.476021
H17   H     H_    0.697474 0.663358 0.697674 0.231746
H18   H     H_    0.809356 0.733105 0.605372 0.214801
N8    N     N_3   0.865270 0.291808 0.473457 -0.447766
H19   H     H_    0.933395 0.242770 0.469461 0.190882
H20   H     H_    0.821592 0.296822 0.402139 0.192150
H21   H     H_    0.628981 0.062115 0.645238 0.149666
H22   H     H_    0.748248 0.930550 0.717637 0.162469
H23   H     H_    0.392138 0.745399 0.408544 0.216320
N9    N     N_3   0.074379 0.444428 0.314522 -0.459652
H24   H     H_    0.993111 0.434138 0.268010 0.173713
H25   H     H_    0.141173 0.511707 0.279478 0.182902
N10   N     N_3   0.942209 0.648688 0.342447 -0.460074
H26   H     H_    0.025180 0.677908 0.296339 0.173462
H27   H     H_    0.872991 0.604824 0.297704 0.168870
H28   H     H_    0.122882 0.684736 0.521983 0.159474
H29   H     H_    0.934602 0.549034 0.663729 0.152441
N11   N     N_3   0.603845 0.791084 0.205528 -0.452663
H30   H     H_    0.539876 0.805533 0.259615 0.215667
H31   H     H_    0.684074 0.767946 0.242063 0.206611

loop_
_geom_bond_atom_site_label_1
_geom_bond_atom_site_label_2
_ccdc_geom_bond_type
N6    H14   S    
N3    H5    S    
N5    H12   S    
C31   N1    A    
C38   N10   S    
C34   C37   S    
C35   C36   S    
C7    C8    A    
C11   C19   A    
C29   C30   A    
N8    H20   S    
C21   N7    S    
C36   C37   S    
C23   O6    A    
C15   C16   A    
O3    Zn1   S    
C33   C36   S    
N4    H10   S    
C34   C35   S    
C32   H1    S    
C21   N2    A    
N2    Zn2   S    
C31   H16   S    
C8    C9    A    
O7    Zn1   S    
C16   N5    S    
C4    C12   S    
C9    C10   A    
C17   N3    S    
C7    H7    S    
O4    Zn2   S    
O1    Zn1   S    
N6    H13   S    
O2    Zn2   S    
C21   C22   A    
C35   H4    S    
C12   O4    A    
C26   N2    A    
C6    C18   A    
C37   N9    S    
C4    C34   S    
C1    C19   S    
N8    H19   S    
C27   C31   A    
C24   C25   A    
C22   H22   S    
N9    H25   S    
N7    H18   S    
C5    C18   A    
C20   C28   A    
C33   O7    A    
C3    H29   S    
C18   N11   S    
C29   N6    S    
N4    H9    S    
C9    H8    S    
C37   C38   S    
C11   C16   A    
C2    C38   S    
C1    O1    A    
N10   H26   S    
C3    C35   S    
C5    C14   A    
C34   N8    S    
C30   H23   S    
C12   O3    A    
N10   H27   S    
N11   H31   S    
C26   C30   A    
C7    C19   A    
N3    H6    S    
C22   C24   A    
C20   H15   S    
C25   C27   A    
C3    C4    S    
C20   C32   A    
C2    C36   S    
C6    C17   A    
C5    H3    S    
C28   C29   A    
C23   O5    A    
C4    C38   S    
N9    H24   S    
C10   C13   A    
C33   O8    A    
C13   C17   A    
C2    C3    S    
C25   C26   A    
N7    H17   S    
C8    N4    S    
C1    O2    A    
O6    Zn2   S    
C6    C23   S    
C2    H28   S    
C15   H2    S    
C10   C11   A    
N5    H11   S    
C24   H21   S    
O5    Zn1   S    
N11   H30   S    
C27   C28   A    
C32   N1    A    
C14   C15   A    
O8    Zn2   S    
C13   C14   A    
N1    Zn1   S    
