data_mof_unit_39076.cif
_audit_creation_date              2013-03-05T17:02:16-0500
_audit_creation_method            fapswitch 2.2
_symmetry_space_group_name_H-M    P1
_symmetry_Int_Tables_number       1
_space_group_crystal_system       triclinic
_cell_length_a                    16.254188
_cell_length_b                    15.713693
_cell_length_c                    16.549967
_cell_angle_alpha                 91.15484
_cell_angle_beta                  85.814252
_cell_angle_gamma                 90.895451
_cell_volume                      4214.52582625

loop_
_atom_site_label
_atom_site_type_symbol
_atom_site_description
_atom_site_fract_x
_atom_site_fract_y
_atom_site_fract_z
_atom_type_partial_charge
O1    O     O_R   0.577460 0.503680 0.387340 -0.653785
O2    O     O_R   0.422540 0.496320 0.612660 -0.636092
O3    O     O_R   0.438150 0.497080 0.381100 -0.547868
O4    O     O_R   0.561850 0.502920 0.618900 -0.593654
C1    C     C_R   0.512424 0.500969 0.346704 0.839211
C2    C     C_R   0.487493 0.498421 0.653170 0.830668
O5    O     O_R   0.569640 0.380080 0.503110 -0.615256
O6    O     O_R   0.430360 0.619920 0.496890 -0.644061
O7    O     O_R   0.430330 0.373470 0.496870 -0.593406
O8    O     O_R   0.569670 0.626530 0.503130 -0.540795
C3    C     C_R   0.501067 0.338202 0.500345 0.860536
C4    C     C_R   0.498986 0.661790 0.499836 0.868447
Zn1   Zn    Zn3+2 0.593020 0.504410 0.504170 0.980464
Zn2   Zn    Zn3+2 0.406980 0.495590 0.495830 0.976745
C5    C     C_3   0.557520 0.972106 0.442463 -0.183471
C6    C     C_3   0.444887 0.027838 0.558759 -0.198749
C7    C     C_3   0.483853 0.029817 0.429329 0.403012
C8    C     C_3   0.518581 0.970112 0.571858 0.405670
C9    C     C_1   0.503499 0.249658 0.502372 -0.137970
C10   C     C_1   0.496998 0.750344 0.498327 -0.129900
C11   C     C_3   0.577479 0.026137 0.517558 -0.179184
C12   C     C_3   0.424914 0.973890 0.483631 -0.164844
C13   C     C_3   0.503750 0.083755 0.504108 0.031931
C14   C     C_3   0.498590 0.916248 0.497080 0.035548
C15   C     C_1   0.504571 0.174557 0.503791 0.171120
C16   C     C_1   0.496869 0.825467 0.497217 0.168762
C17   C     C_R   0.523907 0.495187 0.258994 -0.191063
C18   C     C_R   0.475176 0.496417 0.740715 -0.164905
C19   C     C_R   0.484494 0.427458 0.221224 -0.169140
C20   C     C_R   0.504493 0.565847 0.784247 -0.194689
C21   C     C_R   0.495137 0.415031 0.137870 0.015046
C22   C     C_R   0.492106 0.569781 0.868164 0.023349
C23   C     C_R   0.540994 0.475778 0.091325 0.088864
C24   C     C_R   0.453641 0.500228 0.908776 0.095870
C25   C     C_R   0.585473 0.541663 0.128613 -0.037087
C26   C     C_R   0.418443 0.432265 0.865633 -0.026651
C27   C     C_R   0.578401 0.550504 0.214097 -0.090003
C28   C     C_R   0.427970 0.430947 0.779992 -0.083472
N1    N     N_2   0.532913 0.479063 0.007360 -0.218343
N2    N     N_2   0.460245 0.492954 0.992558 -0.219809
H1    H     H_    0.535237 0.618040 0.752118 0.174182
H2    H     H_    0.447076 0.382828 0.257577 0.208066
N3    N     N_R   0.283080 0.489710 0.490280 -0.200777
N4    N     N_R   0.716920 0.510290 0.509720 -0.199862
C29   C     C_R   0.233235 0.533432 0.546821 -0.154533
C30   C     C_R   0.764627 0.446161 0.474477 -0.155512
C31   C     C_R   0.146529 0.535512 0.540992 0.344232
C32   C     C_R   0.852182 0.450870 0.471965 0.336743
C33   C     C_R   0.110904 0.490374 0.476874 0.040581
C34   C     C_R   0.891057 0.523374 0.505335 0.037552
C35   C     C_R   0.163986 0.447401 0.419430 0.200956
C36   C     C_R   0.840777 0.590038 0.536242 0.207334
C37   C     C_R   0.249452 0.442581 0.430551 0.450828
C38   C     C_R   0.753713 0.580594 0.542347 0.453740
N5    N     N_2   0.023450 0.482347 0.468998 -0.061526
N6    N     N_2   0.978702 0.532720 0.511135 -0.061950
O9    O     O_3   0.464009 0.069297 0.357503 -0.629429
C39   C     C_3   0.458910 0.008419 0.294194 0.091530
H3    H     H_    0.430030 0.947117 0.314904 0.161705
H4    H     H_    0.521595 0.995973 0.265548 0.166564
C40   C     C_3   0.407030 0.043944 0.230220 -0.761730
H5    H     H_    0.434525 0.104806 0.207343 0.283329
H6    H     H_    0.404423 0.997739 0.178781 0.220236
H7    H     H_    0.343314 0.055537 0.256646 0.246299
O10   O     O_3   0.538642 0.930287 0.643447 -0.623754
C41   C     C_3   0.544107 0.990927 0.706893 0.098318
H8    H     H_    0.481502 0.003894 0.735485 0.168023
H9    H     H_    0.573551 0.052012 0.686331 0.161387
C42   C     C_3   0.595586 0.954697 0.770830 -0.757861
H10   H     H_    0.658983 0.941787 0.744203 0.246524
H11   H     H_    0.599183 0.001045 0.822037 0.222000
H12   H     H_    0.567096 0.894437 0.794088 0.281366
O11   O     O_3   0.131700 0.407493 0.353270 -0.594918
C43   C     C_3   0.149892 0.458564 0.284722 0.117950
H13   H     H_    0.217319 0.472080 0.274498 0.178287
H14   H     H_    0.116454 0.519915 0.291917 0.127421
C44   C     C_3   0.122643 0.412164 0.209508 -0.788153
H15   H     H_    0.054589 0.404503 0.213450 0.238669
H16   H     H_    0.141756 0.449535 0.154887 0.216510
H17   H     H_    0.151502 0.348524 0.203409 0.273092
O12   O     O_3   0.876824 0.665741 0.560448 -0.599743
C45   C     C_3   0.878453 0.722894 0.495451 0.136327
H18   H     H_    0.817164 0.727203 0.469662 0.183263
H19   H     H_    0.925183 0.702673 0.446576 0.131356
C46   C     C_3   0.901521 0.811551 0.525488 -0.804626
H20   H     H_    0.964599 0.811855 0.546830 0.244579
H21   H     H_    0.899985 0.857352 0.475408 0.218300
H22   H     H_    0.857048 0.832042 0.576033 0.261507
O13   O     O_3   0.300000 0.392071 0.379479 -0.576538
C47   C     C_3   0.284847 0.305831 0.399485 0.113631
H23   H     H_    0.221000 0.285488 0.387330 0.178023
H24   H     H_    0.294183 0.294868 0.464490 0.164851
C48   C     C_3   0.343921 0.249430 0.347970 -0.745442
H25   H     H_    0.408778 0.268044 0.357030 0.254668
H26   H     H_    0.333857 0.182048 0.365537 0.229709
H27   H     H_    0.332672 0.255321 0.283007 0.283605
O14   O     O_3   0.705664 0.648086 0.570484 -0.565537
C49   C     C_3   0.706453 0.655762 0.655504 0.111903
H28   H     H_    0.770119 0.660643 0.675854 0.177430
H29   H     H_    0.674512 0.600201 0.684982 0.151788
C50   C     C_3   0.661634 0.736629 0.683425 -0.740886
H30   H     H_    0.596888 0.733701 0.666109 0.260219
H31   H     H_    0.661754 0.744194 0.750206 0.245185
H32   H     H_    0.693163 0.792811 0.654773 0.258461
C51   C     C_2   0.621207 0.942045 0.378611 0.385904
H33   H     H_    0.659593 0.988259 0.345098 0.089205
O15   O     O_2   0.630295 0.866220 0.364042 -0.554362
C52   C     C_2   0.381329 0.057808 0.622779 0.391063
H34   H     H_    0.342896 0.011549 0.656182 0.088458
O16   O     O_2   0.372438 0.133601 0.637650 -0.544190
C53   C     C_2   0.339756 0.946584 0.464085 0.393017
H35   H     H_    0.294147 0.994362 0.454740 0.082603
O17   O     O_2   0.321366 0.871242 0.458468 -0.583869
C54   C     C_2   0.662598 0.053619 0.537043 0.423818
H36   H     H_    0.708476 0.005959 0.545877 0.077883
O18   O     O_2   0.680645 0.128995 0.543204 -0.514477
C55   C     C_2   0.519505 0.646131 0.913794 0.414807
H37   H     H_    0.503600 0.652556 0.978395 0.103234
O19   O     O_2   0.559207 0.703346 0.879794 -0.589351
C56   C     C_2   0.458685 0.338792 0.099119 0.403857
H38   H     H_    0.476574 0.322608 0.036381 0.101073
O20   O     O_2   0.409299 0.292510 0.136893 -0.591113
C57   C     C_2   0.633443 0.603175 0.075859 0.474227
H39   H     H_    0.660922 0.582098 0.017256 0.069043
O21   O     O_2   0.639174 0.678372 0.094938 -0.516137
C58   C     C_2   0.376906 0.361868 0.912257 0.477915
H40   H     H_    0.343999 0.375562 0.970385 0.073355
O22   O     O_2   0.382294 0.287934 0.888605 -0.524316
C59   C     C_2   0.625777 0.616837 0.257243 0.539698
H41   H     H_    0.597468 0.649582 0.310322 0.063633
O23   O     O_2   0.697878 0.632629 0.236250 -0.533728
C60   C     C_2   0.390027 0.362583 0.730742 0.585203
H42   H     H_    0.422715 0.338567 0.675666 0.038241
O24   O     O_2   0.320535 0.335396 0.749077 -0.487363
C61   C     C_2   0.725232 0.373038 0.434738 0.558267
H43   H     H_    0.677645 0.383379 0.393713 0.064798
O25   O     O_2   0.746588 0.300402 0.446316 -0.501616
C62   C     C_2   0.269600 0.577462 0.615745 0.539466
H44   H     H_    0.326117 0.613976 0.606779 0.087612
O26   O     O_2   0.236006 0.573812 0.684055 -0.527898
O27   O     O_3   0.898419 0.382978 0.440504 -0.528965
C63   C     C_3   0.908449 0.388446 0.355056 0.152733
H45   H     H_    0.954221 0.439149 0.337135 0.155344
H46   H     H_    0.849874 0.402492 0.327334 0.093511
C64   C     C_3   0.939370 0.303579 0.320037 -0.704164
H47   H     H_    0.895394 0.251755 0.339160 0.270524
H48   H     H_    0.944587 0.305373 0.252849 0.184798
H49   H     H_    0.000772 0.289935 0.341737 0.281038
O28   O     O_3   0.097231 0.577195 0.600575 -0.527564
C65   C     C_3   0.097883 0.665332 0.584571 0.147257
H50   H     H_    0.061451 0.677922 0.531874 0.147928
H51   H     H_    0.161403 0.691632 0.571575 0.111895
C66   C     C_3   0.059446 0.712709 0.658647 -0.695460
H52   H     H_    0.094361 0.699808 0.712217 0.268724
H53   H     H_    0.061406 0.782262 0.648058 0.185829
H54   H     H_    0.994314 0.691704 0.671233 0.282115

loop_
_geom_bond_atom_site_label_1
_geom_bond_atom_site_label_2
_geom_bond_distance
_ccdc_geom_bond_type
C41   H9    1.114101 S    
N5    N6    1.250428 D    
C58   H40   1.085352 S    
C19   H2    1.083489 S    
C17   C19   1.394331 A    
C8    C11   1.542420 S    
O11   C43   1.413788 S    
C53   H35   1.084424 S    
C22   C55   1.484541 S    
C54   H36   1.084490 S    
C47   H23   1.112271 S    
C61   H43   1.081998 S    
C31   C33   1.418077 A    
C44   H15   1.108144 S    
C8    O10   1.412217 S    
O5    C3    1.288705 A    
C51   O15   1.219958 D    
C3    C9    1.393678 S    
C7    C13   1.536944 S    
C43   H14   1.114134 S    
O1    C1    1.293366 A    
C12   C14   1.544332 S    
C25   C27   1.415235 A    
C14   C16   1.426383 S    
C42   H10   1.110778 S    
C55   O19   1.220918 D    
C64   H47   1.110610 S    
C46   H22   1.110910 S    
C41   C42   1.520657 S    
C39   H4    1.110471 S    
O14   C49   1.410791 S    
C52   H34   1.084352 S    
C40   H6    1.110435 S    
C29   C31   1.420572 A    
O4    Zn1   1.929658 S    
C42   H11   1.110438 S    
C30   C61   1.473382 S    
C1    C17   1.451167 S    
N3    C37   1.364218 A    
C2    C18   1.449000 S    
C31   O28   1.385092 S    
N4    C30   1.375382 A    
C60   H42   1.085019 S    
C33   C35   1.405999 A    
C43   C44   1.520224 S    
C34   C36   1.403935 A    
C21   C23   1.408448 A    
C20   H1    1.082167 S    
C8    C14   1.536701 S    
C66   H53   1.109978 S    
C39   C40   1.520730 S    
C46   H21   1.110473 S    
C41   H8    1.110506 S    
C48   H26   1.110152 S    
C63   C64   1.521246 S    
O2    C2    1.290950 A    
C9    C15   1.181245 T    
C64   H48   1.109899 S    
C36   C38   1.417059 A    
O12   C45   1.413647 S    
C44   H16   1.110502 S    
C30   C32   1.421518 A    
C43   H13   1.114451 S    
C55   H37   1.084526 S    
C50   H30   1.110734 S    
C57   H39   1.085498 S    
O4    C2    1.298572 A    
N1    N2    1.247092 D    
O6    Zn2   1.984437 S    
C39   H3    1.114200 S    
C33   N5    1.440260 S    
C65   C66   1.521011 S    
C34   N6    1.439836 S    
C35   C37   1.417946 A    
C28   C60   1.488677 S    
C42   H12   1.110949 S    
O7    Zn2   1.962596 S    
O7    C3    1.289680 A    
C47   H24   1.114556 S    
C36   O12   1.382814 S    
C18   C28   1.413900 A    
O6    C4    1.289652 A    
C4    C10   1.393153 S    
C53   O17   1.219896 D    
C48   H25   1.109518 S    
C23   N1    1.407364 S    
C66   H54   1.110296 S    
C58   O22   1.220850 D    
N3    C29   1.372909 A    
C46   H20   1.108445 S    
O3    Zn2   1.929660 S    
O8    C4    1.288502 A    
C6    C8    1.544147 S    
C5    C14   1.544106 S    
C49   H28   1.112460 S    
C48   H27   1.109575 S    
C49   H29   1.111685 S    
C11   C13   1.544812 S    
C37   O13   1.382542 S    
C65   H51   1.113930 S    
O1    Zn1   1.968006 S    
O10   C41   1.410346 S    
C45   C46   1.520342 S    
C64   H49   1.110458 S    
C56   H38   1.083929 S    
C56   O20   1.221038 D    
C47   C48   1.520193 S    
C59   H41   1.085517 S    
C50   H31   1.109365 S    
C44   H17   1.110828 S    
C61   O25   1.221021 D    
C6    C12   1.542015 S    
C63   H45   1.111326 S    
C26   C58   1.486571 S    
C35   O11   1.383283 S    
C11   C54   1.498505 S    
O3    C1    1.297706 A    
O8    Zn1   1.962595 S    
C54   O18   1.219827 D    
C25   C57   1.488480 S    
C5    C7    1.543785 S    
C62   O26   1.221081 D    
C6    C13   1.544336 S    
C49   C50   1.521539 S    
C51   H33   1.084360 S    
C45   H19   1.113417 S    
C7    C12   1.541952 S    
C5    C51   1.498977 S    
C26   C28   1.414270 A    
O13   C47   1.415093 S    
C18   C20   1.392347 A    
C19   C21   1.387981 A    
O27   C63   1.415847 S    
C40   H7    1.110670 S    
C20   C22   1.388980 A    
O9    C39   1.410524 S    
C5    C11   1.542204 S    
C10   C16   1.181016 T    
C17   C27   1.413557 A    
C32   C34   1.416105 A    
C29   C62   1.477523 S    
C23   C25   1.411145 A    
C52   O16   1.219956 D    
C32   O27   1.385508 S    
C24   C26   1.409771 A    
C13   C15   1.426799 S    
C40   H5    1.110972 S    
O2    Zn2   1.968004 S    
C21   C56   1.483188 S    
C57   O21   1.220829 D    
C62   H44   1.078043 S    
C6    C52   1.498983 S    
C38   O14   1.380018 S    
N4    C38   1.368248 A    
O5    Zn1   1.984439 S    
C60   O24   1.220876 D    
C12   C53   1.498635 S    
C7    O9    1.412044 S    
C65   H50   1.111961 S    
C24   N2    1.405610 S    
C50   H32   1.110923 S    
C45   H18   1.115590 S    
C66   H52   1.110631 S    
O28   C65   1.415035 S    
C27   C59   1.488123 S    
Zn1   N4    2.023262 S    
C63   H46   1.113595 S    
C22   C24   1.408578 A    
Zn2   N3    2.023264 S    
C59   O23   1.220937 D    
