data_mof_unit_31338.cif
_audit_creation_date              2012-10-26T17:12:53-0400
_audit_creation_method            fapswitch 2.2
_symmetry_space_group_name_H-M    P1
_symmetry_Int_Tables_number       1
_space_group_crystal_system       triclinic
_cell_length_a                    28.005086
_cell_length_b                    18.749981
_cell_length_c                    16.804543
_cell_angle_alpha                 90.260121
_cell_angle_beta                  62.640864
_cell_angle_gamma                 90.325336
_cell_volume                      7836.8133688

loop_
_atom_site_label
_atom_site_type_symbol
_atom_type_description
_atom_site_fract_x
_atom_site_fract_y
_atom_site_fract_z
_atom_type_partial_charge
C1    C     C_R   0.296858 0.732589 0.328363 0.538187
C2    C     C_R   0.597944 0.000015 0.511435 0.028792
C3    C     C_R   0.700133 0.701158 0.897088 0.023414
C4    C     C_R   0.162424 0.896546 0.991107 -0.102051
C5    C     C_R   0.844184 0.108557 0.993806 -0.108956
C6    C     C_R   0.888127 0.819304 0.950493 -0.108762
C7    C     C_R   0.116792 0.175719 0.045726 -0.110783
C8    C     C_R   0.659878 0.390593 0.995211 -0.106787
C9    C     C_R   0.338481 0.606596 0.007688 -0.105565
C10   C     C_R   0.345893 0.384707 0.992682 -0.107978
C11   C     C_R   0.660354 0.601033 0.994810 -0.113295
C12   C     C_R   0.193900 0.881089 0.032899 -0.074920
C13   C     C_R   0.899771 0.500700 0.497336 0.024495
C14   C     C_R   0.816514 0.127379 0.946805 -0.088109
C15   C     C_R   0.858851 0.803772 0.904552 -0.088415
C16   C     C_R   0.146543 0.187653 0.091964 -0.088136
C17   C     C_R   0.690453 0.373172 0.037444 -0.086938
C18   C     C_R   0.307090 0.622348 0.966038 -0.083034
C19   C     C_R   0.321113 0.360653 0.942867 -0.079024
C20   C     C_R   0.691702 0.614124 0.037112 -0.089175
C21   C     C_R   0.236114 0.693214 0.798405 -0.069397
C22   C     C_R   0.758845 0.299918 0.204400 -0.072216
C23   C     C_R   0.760465 0.691022 0.206217 -0.079404
C24   C     C_R   0.087441 0.499522 0.544632 0.024141
C25   C     C_R   0.272001 0.241934 0.770568 -0.075855
C26   C     C_R   0.724443 0.183216 0.807140 -0.068891
C27   C     C_R   0.264949 0.809096 0.201423 -0.065192
C28   C     C_R   0.259333 0.195471 0.206031 -0.068174
C29   C     C_R   0.744275 0.797993 0.795244 -0.066597
C30   C     C_R   0.266325 0.675468 0.841867 0.209114
C31   C     C_R   0.727450 0.315907 0.162868 0.207393
C32   C     C_R   0.731067 0.672834 0.161394 0.205445
C33   C     C_R   0.296449 0.270062 0.819337 0.215865
C34   C     C_R   0.744188 0.155274 0.863355 0.212005
C35   C     C_R   0.616656 0.880560 0.448027 -0.105938
C36   C     C_R   0.235247 0.827908 0.157280 0.216340
C37   C     C_R   0.227957 0.178463 0.163677 0.212942
C38   C     C_R   0.775882 0.812498 0.837966 0.220144
C39   C     C_R   0.928166 0.900153 0.064616 0.546844
C40   C     C_R   0.072097 0.099341 0.935200 0.544348
C41   C     C_R   0.076700 0.907715 0.930613 0.545344
C42   C     C_R   0.922922 0.091559 0.069342 0.547844
C43   C     C_R   0.423409 0.407345 0.068995 0.543502
C44   C     C_R   0.576733 0.592287 0.930780 0.540689
C45   C     C_R   0.576642 0.407744 0.930570 0.541374
C46   C     C_R   0.386287 0.119507 0.544398 -0.106644
C47   C     C_R   0.423526 0.592841 0.069189 0.540152
C48   C     C_R   0.027215 0.625555 0.574827 0.014454
C49   C     C_R   0.959802 0.374987 0.470135 0.011828
C50   C     C_R   0.930399 0.623923 0.560919 0.009583
C51   C     C_R   0.044162 0.371630 0.515723 0.006082
C52   C     C_R   0.530800 0.120589 0.564157 0.011339
C53   C     C_R   0.471679 0.879368 0.427966 0.015219
C54   C     C_R   0.434383 0.119947 0.550374 0.007209
C55   C     C_R   0.569086 0.880481 0.439755 0.010358
C56   C     C_R   0.994638 0.686497 0.596777 -0.118941
C57   C     C_R   0.422447 0.878400 0.424685 -0.104518
C58   C     C_R   0.986304 0.310715 0.465393 -0.121233
C59   C     C_R   0.946207 0.685323 0.591276 -0.121028
C60   C     C_R   0.026748 0.308503 0.491756 -0.121112
C61   C     C_R   0.497070 0.180281 0.591012 -0.092254
C62   C     C_R   0.506707 0.820932 0.397215 -0.106588
C63   C     C_R   0.449535 0.180069 0.583366 -0.089593
C64   C     C_R   0.555102 0.821635 0.402612 -0.105574
C65   C     C_R   0.962468 0.562748 0.539314 0.025859
C66   C     C_R   0.019938 0.436531 0.516012 0.024621
C67   C     C_R   0.010049 0.562988 0.549045 0.026136
C68   C     C_R   0.579001 0.120971 0.570224 -0.102905
C69   C     C_R   0.975364 0.437521 0.498627 0.024748
C70   C     C_R   0.467944 0.060026 0.522606 0.027165
C71   C     C_R   0.534789 0.939780 0.469380 0.028386
C72   C     C_R   0.516318 0.060267 0.529662 0.027329
C73   C     C_R   0.486180 0.939444 0.462790 0.028167
C74   C     C_R   0.452627 0.999594 0.489550 0.001010
C75   C     C_R   0.549675 0.999973 0.503592 0.001494
C76   C     C_R   0.946196 0.500606 0.510660 -0.004267
C77   C     C_R   0.039097 0.499789 0.536822 -0.004307
C78   C     C_R   0.386691 0.936840 0.456166 0.002430
C79   C     C_R   0.085293 0.370458 0.539911 -0.113303
C80   C     C_R   0.614603 0.062558 0.539623 0.003235
C81   C     C_R   0.629829 0.937841 0.489936 -0.000930
C82   C     C_R   0.372099 0.061867 0.504694 0.000496
C83   C     C_R   0.883384 0.437250 0.470168 -0.000267
C84   C     C_R   0.109622 0.564680 0.555659 -0.000112
C85   C     C_R   0.112889 0.433859 0.541877 -0.001054
C86   C     C_R   0.869235 0.563656 0.513358 -0.001412
C87   C     C_R   0.334179 0.935272 0.462066 -0.025322
C88   C     C_R   0.666530 0.064318 0.535665 -0.023592
C89   C     C_R   0.674061 0.936054 0.510244 -0.022431
C90   C     C_R   0.882918 0.622731 0.552496 -0.112789
C91   C     C_R   0.326971 0.063695 0.486799 -0.023397
C92   C     C_R   0.833117 0.435845 0.467715 -0.027706
C93   C     C_R   0.163392 0.565217 0.545109 -0.027388
C94   C     C_R   0.164661 0.434367 0.539678 -0.023600
C95   C     C_R   0.825861 0.564503 0.490741 -0.022456
C96   C     C_R   0.307442 0.999680 0.470061 -0.156264
C97   C     C_R   0.693178 0.000002 0.528132 -0.153179
C98   C     C_R   0.807376 0.500314 0.471986 -0.161884
C99   C     C_R   0.188894 0.499951 0.540014 -0.160671
C100  C     C_R   0.917029 0.376896 0.449428 -0.111950
C101  C     C_R   0.703144 0.267592 0.671444 0.540009
C102  C     C_R   0.076545 0.626192 0.578027 -0.111020
C103  C     C_R   0.222688 0.770426 0.950584 -0.004581
C104  C     C_R   0.772552 0.222996 0.051926 -0.002129
C105  C     C_R   0.790963 0.746326 0.035891 -0.004681
C106  C     C_R   0.220766 0.229126 0.955400 -0.007277
C107  C     C_R   0.717347 0.262946 0.954010 -0.001874
C108  C     C_R   0.278663 0.732993 0.048439 -0.004241
C109  C     C_R   0.275874 0.268840 0.052227 -0.006110
C110  C     C_R   0.731491 0.715874 0.942236 -0.005957
C111  C     C_R   0.257190 0.710202 0.923366 0.018496
C112  C     C_R   0.703951 0.731164 0.671581 0.544158
C113  C     C_R   0.737193 0.282098 0.080962 0.019299
C114  C     C_R   0.747288 0.697886 0.073057 0.018651
C115  C     C_R   0.269194 0.267931 0.913455 0.023120
C116  C     C_R   0.747164 0.198803 0.931070 0.018971
C117  C     C_R   0.244278 0.793407 0.075622 0.014997
C118  C     C_R   0.233367 0.218781 0.089115 0.015256
C119  C     C_R   0.772636 0.768004 0.908489 0.015225
C120  C     C_R   0.282473 0.689338 0.976366 0.033582
C121  C     C_R   0.713881 0.305530 0.026455 0.031460
C122  C     C_R   0.722517 0.676391 0.019616 0.031087
C123  C     C_R   0.296261 0.268525 0.328633 0.553054
C124  C     C_R   0.289902 0.298626 0.967659 0.037766
C125  C     C_R   0.778221 0.182041 0.976399 0.026164
C126  C     C_R   0.218853 0.814248 0.022603 0.026433
C127  C     C_R   0.200282 0.209745 0.046304 0.032745
C128  C     C_R   0.806995 0.774827 0.949399 0.035222
C129  C     C_R   0.158542 0.848441 0.930248 0.012452
C130  C     C_R   0.840819 0.149248 0.066878 0.012653
C131  C     C_R   0.865114 0.810863 0.044347 0.017551
C132  C     C_R   0.141160 0.178987 0.951090 0.014515
C133  C     C_R   0.656840 0.345354 0.931447 0.016901
C134  C     C_R   0.795997 0.230734 0.328410 0.541717
C135  C     C_R   0.342426 0.654144 0.068815 0.018129
C136  C     C_R   0.342993 0.345159 0.066060 0.017046
C137  C     C_R   0.660657 0.646995 0.928943 0.016074
C138  C     C_R   0.124209 0.860422 0.890175 -0.022453
C139  C     C_R   0.874286 0.136919 0.109217 -0.021135
C140  C     C_R   0.887103 0.842247 0.098053 -0.022777
C141  C     C_R   0.116100 0.152683 0.899618 -0.025705
C142  C     C_R   0.623884 0.360287 0.889873 -0.022613
C143  C     C_R   0.376399 0.641053 0.109302 -0.022526
C144  C     C_R   0.375515 0.360297 0.108972 -0.022297
C145  C     C_R   0.203277 0.767767 0.671642 0.537518
C146  C     C_R   0.625366 0.637864 0.889963 -0.021702
C147  C     C_R   0.136548 0.827664 0.808359 -0.160071
C148  C     C_R   0.860802 0.168367 0.192160 -0.160690
C149  C     C_R   0.864997 0.824268 0.188902 -0.156926
C150  C     C_R   0.138299 0.169603 0.808688 -0.161183
C151  C     C_R   0.637294 0.329877 0.806465 -0.153133
C152  C     C_R   0.363864 0.673306 0.191456 -0.155199
C153  C     C_R   0.361704 0.329992 0.192521 -0.153882
C154  C     C_R   0.638001 0.671021 0.808503 -0.153182
C155  C     C_R   0.179068 0.779603 0.770006 -0.029217
C156  C     C_R   0.207327 0.223907 0.669413 0.540609
C157  C     C_R   0.818368 0.216300 0.230600 -0.027743
C158  C     C_R   0.821904 0.776445 0.228654 -0.025134
C159  C     C_R   0.187854 0.204383 0.764660 -0.023721
C160  C     C_R   0.678485 0.279766 0.769321 -0.026838
C161  C     C_R   0.321425 0.721558 0.229862 -0.028417
C162  C     C_R   0.319045 0.281684 0.231427 -0.024989
C163  C     C_R   0.682091 0.716896 0.768834 -0.025433
C164  C     C_R   0.202288 0.752714 0.823694 -0.029452
C165  C     C_R   0.793735 0.241395 0.178090 -0.028901
C166  C     C_R   0.800427 0.744356 0.174400 -0.032612
C167  C     C_R   0.796469 0.768238 0.328116 0.542261
C168  C     C_R   0.217644 0.219581 0.812587 -0.030582
C169  C     C_R   0.699111 0.249650 0.824747 -0.029875
C170  C     C_R   0.298615 0.749390 0.175969 -0.030863
C171  C     C_R   0.294088 0.255216 0.180098 -0.032138
C172  C     C_R   0.709121 0.739073 0.819201 -0.035083
C173  C     C_R   0.196269 0.631822 0.528574 0.538663
C174  C     C_R   0.803028 0.368523 0.474073 0.541775
C175  C     C_R   0.799342 0.631108 0.486179 0.548175
C176  C     C_R   0.197054 0.368442 0.525724 0.555164
C177  C     C_R   0.696773 0.131668 0.527133 0.543114
C178  C     C_R   0.403939 0.999542 0.482905 0.028383
C179  C     C_R   0.303422 0.868174 0.472173 0.539990
C180  C     C_R   0.299683 0.130868 0.485185 0.541879
C181  C     C_R   0.700724 0.869022 0.513620 0.551890
C182  C     C_R   0.193939 0.789720 0.902266 0.023932
C183  C     C_R   0.802499 0.204690 0.098793 0.024833
C184  C     C_R   0.818752 0.767344 0.085191 0.023460
C185  C     C_R   0.192911 0.209700 0.906330 0.020560
C186  C     C_R   0.690836 0.285539 0.903712 0.025518
C187  C     C_R   0.307212 0.713096 0.096921 0.024254
C188  C     C_R   0.304547 0.289480 0.099410 0.023717
Cl1   Cl    Cl    0.322668 0.621636 0.776297 -0.615097
Cl2   Cl    Cl    0.669636 0.366910 0.229826 -0.587797
Cl3   Cl    Cl    0.668697 0.631010 0.229672 -0.615749
Cl4   Cl    Cl    0.364738 0.294804 0.758652 -0.665303
Cl5   Cl    Cl    0.751247 0.061666 0.858005 -0.545055
Cl6   Cl    Cl    0.179646 0.883061 0.222184 -0.569010
Cl7   Cl    Cl    0.190418 0.098459 0.197148 -0.585627
Cl8   Cl    Cl    0.811720 0.893945 0.808749 -0.564274
Cu1   Cu    Cu3+1 0.209920 0.785290 0.495070 0.983182
Cu2   Cu    Cu3+1 0.504760 0.500000 0.075850 0.991396
Cu3   Cu    Cu3+1 0.995240 1.000000 0.924150 0.938883
Cu4   Cu    Cu3+1 0.004760 1.000000 0.075850 0.970126
Cu5   Cu    Cu3+1 0.790080 0.214710 0.504930 0.950688
Cu6   Cu    Cu3+1 0.790080 0.785290 0.504930 0.961290
Cu7   Cu    Cu3+1 0.209920 0.214710 0.495070 0.955363
Cu8   Cu    Cu3+1 0.709920 0.285290 0.495070 0.998491
Cu9   Cu    Cu3+1 0.290080 0.714710 0.504930 0.994201
Cu10  Cu    Cu3+1 0.290080 0.285290 0.504930 0.978190
Cu11  Cu    Cu3+1 0.709920 0.714710 0.495070 0.985173
Cu12  Cu    Cu3+1 0.495240 0.500000 0.924150 0.987496
H1    H     H_    0.581233 0.775624 0.378932 0.155824
H2    H     H_    0.730195 0.000006 0.533762 0.168178
H3    H     H_    0.771414 0.500249 0.463145 0.166061
H4    H     H_    0.229406 0.500245 0.532641 0.166520
H5    H     H_    0.643783 0.836527 0.418021 0.155719
H6    H     H_    0.359491 0.163517 0.575290 0.141569
H7    H     H_    0.413495 0.832730 0.394272 0.138590
H8    H     H_    0.587222 0.166340 0.601982 0.140955
H9    H     H_    0.092679 0.318876 0.559065 0.155886
H10   H     H_    0.856504 0.667666 0.580300 0.151439
H11   H     H_    0.911268 0.330751 0.416193 0.142536
H12   H     H_    0.425115 0.227527 0.601228 0.182980
H13   H     H_    0.087274 0.674338 0.601572 0.140275
H14   H     H_    0.114779 0.842690 0.771881 0.157151
H15   H     H_    0.882632 0.153656 0.228652 0.157902
H16   H     H_    0.880374 0.850037 0.230317 0.164214
H17   H     H_    0.117553 0.153191 0.770799 0.161080
H18   H     H_    0.616975 0.347478 0.768627 0.164542
H19   H     H_    0.385270 0.657537 0.228259 0.161932
H20   H     H_    0.383185 0.346186 0.229292 0.165874
H21   H     H_    0.614635 0.658641 0.773663 0.164774
H22   H     H_    0.144585 0.948960 0.002148 0.159932
H23   H     H_    0.496520 0.774421 0.369516 0.131071
H24   H     H_    0.866767 0.059927 0.971814 0.173246
H25   H     H_    0.929149 0.836124 0.910183 0.149570
H26   H     H_    0.074398 0.165555 0.085948 0.148579
H27   H     H_    0.641607 0.441848 0.009293 0.129690
H28   H     H_    0.356095 0.554334 0.996497 0.127868
H29   H     H_    0.365765 0.435398 0.973027 0.140032
H30   H     H_    0.637804 0.552730 0.012702 0.138021
H31   H     H_    0.200550 0.924154 0.069235 0.208429
H32   H     H_    0.827781 0.099401 0.884836 0.197891
H33   H     H_    0.878228 0.811559 0.832817 0.160938
H34   H     H_    0.507818 0.227535 0.616674 0.145350
H35   H     H_    0.126204 0.183629 0.164237 0.167973
H36   H     H_    0.696672 0.414652 0.076331 0.176795
H37   H     H_    0.300291 0.579438 0.929633 0.175965
H38   H     H_    0.324775 0.392536 0.886783 0.181624
H39   H     H_    0.693013 0.573092 0.080816 0.181876
H40   H     H_    0.240689 0.659834 0.742867 0.179601
H41   H     H_    0.754725 0.334801 0.258313 0.181823
H42   H     H_    0.750512 0.661680 0.266648 0.190880
H43   H     H_    0.297862 0.235130 0.700124 0.168056
H44   H     H_    0.723970 0.149399 0.755085 0.171921
H45   H     H_    0.045623 0.257930 0.490536 0.120361
H46   H     H_    0.260167 0.841823 0.257607 0.182649
H47   H     H_    0.257551 0.159312 0.257188 0.184318
H48   H     H_    0.745630 0.836023 0.746132 0.191659
H49   H     H_    0.921720 0.732980 0.608850 0.123923
H50   H     H_    0.974337 0.261780 0.444782 0.115053
H51   H     H_    0.006582 0.735054 0.618158 0.114668
H52   H     H_    0.269918 0.999683 0.466062 0.168265
O1    O     O_R   0.255040 0.869590 0.478480 -0.504504
O2    O     O_R   0.817950 0.203450 0.375560 -0.512993
O3    O     O_R   0.817950 0.796550 0.375560 -0.504665
O4    O     O_R   0.182050 0.203450 0.624440 -0.514327
O5    O     O_R   0.682050 0.296550 0.624440 -0.510770
O6    O     O_R   0.317950 0.703450 0.375560 -0.511588
O7    O     O_R   0.317950 0.296550 0.375560 -0.499927
O8    O     O_R   0.682050 0.703450 0.624440 -0.500697
O9    O     O_R   0.250530 0.763330 0.367210 -0.501880
O10   O     O_R   0.749470 0.236670 0.632790 -0.507442
O11   O     O_R   0.749470 0.763330 0.632790 -0.526734
O12   O     O_R   0.744960 0.130410 0.521520 -0.505705
O13   O     O_R   0.250530 0.236670 0.367210 -0.511607
O14   O     O_R   0.750530 0.263330 0.367210 -0.501033
O15   O     O_R   0.249470 0.736670 0.632790 -0.500178
O16   O     O_R   0.249470 0.263330 0.632790 -0.521144
O17   O     O_R   0.750530 0.736670 0.367210 -0.520998
O18   O     O_R   0.177260 0.690030 0.513710 -0.511808
O19   O     O_R   0.822740 0.309970 0.486290 -0.519183
O20   O     O_R   0.822740 0.690030 0.486290 -0.519262
O21   O     O_R   0.177260 0.309970 0.513710 -0.523944
O22   O     O_R   0.677260 0.190030 0.513710 -0.508018
O23   O     O_R   0.744960 0.869590 0.521520 -0.503630
O24   O     O_R   0.322740 0.809970 0.486290 -0.508717
O25   O     O_R   0.322740 0.190030 0.486290 -0.522007
O26   O     O_R   0.677260 0.809970 0.513710 -0.513632
O27   O     O_R   0.051640 0.926880 0.885090 -0.515539
O28   O     O_R   0.948360 0.073120 0.114910 -0.512375
O29   O     O_R   0.948360 0.926880 0.114910 -0.502900
O30   O     O_R   0.051640 0.073120 0.885090 -0.506538
O31   O     O_R   0.551640 0.426880 0.885090 -0.505777
O32   O     O_R   0.448360 0.573120 0.114910 -0.506560
O33   O     O_R   0.448360 0.426880 0.114910 -0.503679
O34   O     O_R   0.255040 0.130410 0.478480 -0.506358
O35   O     O_R   0.551640 0.573120 0.885090 -0.505290
O36   O     O_R   0.940620 0.926560 0.986760 -0.520839
O37   O     O_R   0.059380 0.073440 0.013240 -0.519562
O38   O     O_R   0.059380 0.926560 0.013240 -0.503098
O39   O     O_R   0.940620 0.073440 0.986760 -0.520812
O40   O     O_R   0.440620 0.426560 0.986760 -0.514426
O41   O     O_R   0.559380 0.573440 0.013240 -0.513106
O42   O     O_R   0.559380 0.426560 0.013240 -0.509672
O43   O     O_R   0.440620 0.573440 0.986760 -0.509572
O44   O     O_R   0.755040 0.369590 0.478480 -0.501961
O45   O     O_R   0.244960 0.630410 0.521520 -0.504352
O46   O     O_R   0.244960 0.369590 0.521520 -0.496367
O47   O     O_R   0.755040 0.630410 0.478480 -0.505652
O48   O     O_R   0.182050 0.796550 0.624440 -0.515112

loop_
_geom_bond_atom_site_label_1
_geom_bond_atom_site_label_2
_ccdc_geom_bond_type
C50   C65   A    
C108  C120  A    
C43   O40   A    
C88   C177  S    
Cu7   O13   S    
Cu2   O42   S    
C7    C132  A    
C50   C59   A    
C145  O15   A    
C181  O23   A    
C52   C61   A    
C12   C126  A    
C54   C63   A    
C58   C60   A    
C47   C143  S    
C44   O41   A    
C30   Cl1   S    
C61   C63   A    
C103  C126  A    
C95   C175  S    
C62   C64   A    
C131  C140  A    
C91   C96   A    
C50   C90   A    
C162  C171  A    
C100  H11   S    
C170  C187  A    
C70   C74   A    
Cu4   O29   S    
C4    C12   A    
C147  C155  A    
C24   C85   A    
C112  O8    A    
C88   C97   A    
Cu11  O17   S    
C119  C128  A    
Cu3   Cu4   S    
C150  H17   S    
C49   C69   A    
C43   C144  S    
C109  C118  A    
C11   C20   A    
C150  C159  A    
C165  C183  A    
C137  C146  A    
C166  C184  A    
C175  O20   A    
C97   H2    S    
C71   C73   A    
Cu2   Cu12  S    
C106  C127  A    
C82   C91   A    
C32   Cl3   S    
Cu5   O12   S    
C89   C181  S    
C142  C151  A    
Cu6   O11   S    
Cu12  O31   S    
C52   C72   A    
C41   O38   A    
C105  C114  A    
C146  C154  A    
C82   C178  A    
C176  O46   A    
C36   C117  A    
C181  O26   A    
C38   C119  A    
C145  O48   A    
C5    C130  A    
C83   C100  A    
C43   O33   A    
C45   C142  S    
Cu11  O47   S    
Cu12  O40   S    
Cu1   O9    S    
C177  O12   A    
C79   C85   A    
C173  O18   A    
C66   C77   A    
C13   C83   A    
C39   C140  S    
C57   C78   A    
C98   H3    S    
C8    C17   A    
C56   C59   A    
C106  C115  A    
C179  O1    A    
C80   C88   A    
C25   H43   S    
C93   C173  S    
C84   C93   A    
C105  C184  A    
C36   Cl6   S    
C156  O16   A    
C86   C95   A    
C8    H27   S    
C24   C77   A    
C104  C183  A    
C42   O39   A    
C2    C81   A    
C41   O27   A    
C55   C71   A    
C2    C75   A    
Cu4   O38   S    
C78   C87   A    
Cu5   O19   S    
C39   O29   A    
C84   C102  A    
C67   C77   A    
Cu11  O26   S    
C31   Cl2   S    
C133  C142  A    
C58   H50   S    
C37   Cl7   S    
C23   H42   S    
C130  C183  A    
C79   H9    S    
C1    O9    A    
C3    C110  A    
C69   C76   A    
C85   C94   A    
C180  O25   A    
C46   C82   A    
C101  C160  S    
C29   C38   A    
C149  C158  A    
C167  O17   A    
C20   C122  A    
C152  C161  A    
C135  C143  A    
C174  O19   A    
C7    H26   S    
Cu8   O14   S    
C48   C67   A    
C40   C141  S    
C136  C188  A    
C72   C75   A    
C112  O11   A    
C135  C187  A    
C141  C150  A    
C25   C168  A    
C139  C148  A    
C104  C125  A    
Cu5   O2    S    
C157  C165  A    
Cu7   O4    S    
C92   C174  S    
Cu10  O7    S    
C152  H19   S    
C91   C180  S    
C45   O31   A    
C167  O3    A    
C147  H14   S    
C26   H44   S    
C9    C135  A    
C116  C125  A    
C154  H21   S    
Cu3   O39   S    
C118  C127  A    
Cu1   O18   S    
C117  C126  A    
C132  C141  A    
C180  O34   A    
C108  C117  A    
Cu12  O43   S    
C110  C119  A    
C173  O45   A    
Cu6   Cu11  S    
Cu4   O37   S    
C14   H32   S    
C18   H37   S    
C28   C37   A    
C38   Cl8   S    
C148  C157  A    
C16   C127  A    
C51   C79   A    
C107  C116  A    
C90   H10   S    
C104  C113  A    
C177  O22   A    
C113  C121  A    
C10   H29   S    
C51   C60   A    
C140  C149  A    
C31   C113  A    
C123  O13   A    
C19   H38   S    
C25   C33   A    
C129  C182  A    
C15   H33   S    
C73   C74   A    
Cu10  O25   S    
Cu1   Cu9   S    
C28   H47   S    
Cu6   O3    S    
Cu8   O5    S    
C11   H30   S    
C107  C186  A    
C65   C76   A    
C171  C188  A    
C40   O37   A    
C148  H15   S    
C169  C186  A    
C3    C172  A    
C130  C139  A    
C103  C111  A    
Cu1   O1    S    
C108  C187  A    
C20   H39   S    
C1    O6    A    
C57   H7    S    
C65   C67   A    
Cu2   O32   S    
C158  C167  S    
C160  C169  A    
C40   O30   A    
C3    C137  A    
C149  H16   S    
C93   C99   A    
C81   C89   A    
Cu11  O8    S    
C8    C133  A    
C1    C161  S    
C21   C164  A    
C47   O32   A    
Cu7   Cu10  S    
Cu6   O23   S    
C21   H40   S    
C179  O24   A    
Cu2   O41   S    
C47   O43   A    
C33   C115  A    
C53   C57   A    
C63   H12   S    
C132  C185  A    
Cu7   O21   S    
C10   C19   A    
C96   H52   S    
C48   C102  A    
C46   C54   A    
C5    H24   S    
C35   H5    S    
C27   C170  A    
C5    C14   A    
C34   Cl5   S    
C17   C121  A    
C143  C152  A    
C15   C128  A    
Cu9   O24   S    
C86   C90   A    
C64   H1    S    
C56   H51   S    
C107  C121  A    
C158  C166  A    
C61   H34   S    
C112  C163  S    
C101  O5    A    
C175  O47   A    
C115  C124  A    
C78   C178  A    
C106  C185  A    
C6    C131  A    
C4    C129  A    
C27   C36   A    
C21   C30   A    
Cu9   O15   S    
Cu10  O16   S    
C153  C162  A    
C23   C32   A    
C11   C137  A    
C136  C144  A    
C110  C122  A    
Cu6   O20   S    
C114  C122  A    
Cu8   O22   S    
C60   H45   S    
C68   H8    S    
C164  C182  A    
C123  O7    A    
C151  H18   S    
Cu9   O6    S    
C62   H23   S    
C59   H49   S    
C51   C66   A    
C102  H13   S    
C94   C176  S    
C68   C80   A    
C74   C178  A    
Cu3   O30   S    
C103  C182  A    
C153  H20   S    
C35   C81   A    
C95   C98   A    
C92   C98   A    
C83   C92   A    
C14   C125  A    
C33   Cl4   S    
C10   C136  A    
C66   C69   A    
C34   C116  A    
C159  C168  A    
C131  C184  A    
C29   H48   S    
C144  C153  A    
C6    C15   A    
C22   C165  A    
C26   C34   A    
C12   H31   S    
C37   C118  A    
C17   H36   S    
C46   H6    S    
C44   O35   A    
C54   C70   A    
C13   C86   A    
C44   C146  S    
Cu12  O35   S    
C52   C68   A    
Cu10  O46   S    
C134  O2    A    
C156  O4    A    
C9    H28   S    
C27   H46   S    
C99   H4    S    
C109  C188  A    
C19   C124  A    
C22   C31   A    
C129  C138  A    
C35   C55   A    
C154  C163  A    
Cu8   O44   S    
C26   C169  A    
C22   H41   S    
C123  C162  S    
C49   C58   A    
C89   C97   A    
C111  C120  A    
C4    H22   S    
C176  O21   A    
C163  C172  A    
C23   C166  A    
C53   C62   A    
C9    C18   A    
C28   C171  A    
C13   C76   A    
C138  C147  A    
C87   C96   A    
C41   C138  S    
C45   O42   A    
C133  C186  A    
C161  C170  A    
C6    H25   S    
Cu3   O36   S    
Cu1   O48   S    
C134  O14   A    
Cu5   Cu8   S    
C174  O44   A    
C18   C120  A    
C48   C56   A    
C7    C16   A    
C168  C185  A    
C105  C128  A    
C42   C139  S    
C156  C159  S    
C53   C73   A    
C109  C124  A    
C55   C64   A    
C155  C164  A    
Cu3   O27   S    
C101  O10   A    
Cu4   O28   S    
C30   C111  A    
C151  C160  A    
C24   C84   A    
C49   C100  A    
C71   C75   A    
C94   C99   A    
Cu7   O34   S    
Cu5   O10   S    
C29   C172  A    
Cu9   O45   S    
C2    C80   A    
C87   C179  S    
C145  C155  S    
C16   H35   S    
C134  C157  S    
Cu2   O33   S    
C39   O36   A    
C70   C72   A    
C32   C114  A    
C42   O28   A    
