data_mof_unit_5548.cif
_audit_creation_date              2012-12-11T20:30:27-0500
_audit_creation_method            fapswitch 2.2
_symmetry_space_group_name_H-M    P1
_symmetry_Int_Tables_number       1
_space_group_crystal_system       triclinic
_cell_length_a                    8.459211
_cell_length_b                    17.298043
_cell_length_c                    18.772676
_cell_angle_alpha                 102.999516
_cell_angle_beta                  91.077501
_cell_angle_gamma                 98.816739
_cell_volume                      2640.88483465

loop_
_atom_site_label
_atom_site_type_symbol
_atom_type_description
_atom_site_fract_x
_atom_site_fract_y
_atom_site_fract_z
_atom_type_partial_charge
Ba1   Ba    Ba6+2 0.853800 0.535410 0.467450 1.761409
Ba2   Ba    Ba6+2 0.336030 0.464660 0.532560 1.793757
C1    C     C_3   0.679506 0.820888 0.306412 -0.277073
C2    C     C_R   0.889132 0.433286 0.095615 0.014154
C3    C     C_R   0.728507 0.399206 0.071557 -0.040770
C4    C     C_3   0.099451 0.706875 0.285780 0.361238
C5    C     C_R   0.668214 0.403066 0.001730 -0.074382
C6    C     C_R   0.769911 0.438736 0.954521 0.007644
C7    C     C_R   0.928618 0.474645 0.979446 0.064981
C8    C     C_R   0.715898 0.439577 0.882980 -0.050121
C9    C     C_R   0.818242 0.469677 0.833827 -0.020853
C10   C     C_R   0.976093 0.507670 0.859414 0.031277
C11   C     C_R   0.029290 0.511678 0.933010 0.051766
C12   C     C_3   0.630046 0.737301 0.319785 0.269408
C13   C     C_R   0.767007 0.463088 0.759773 0.045348
C14   C     C_R   0.873784 0.493623 0.713137 -0.242756
C15   C     C_R   0.030195 0.531038 0.736321 0.027805
C16   C     C_3   0.106082 0.741868 0.217299 0.202275
C17   C     C_R   0.081473 0.540828 0.811478 -0.028850
C18   C     C_R   0.146433 0.508672 0.075608 0.068282
C19   C     C_R   0.206088 0.507042 0.146817 0.055196
C20   C     C_R   0.105858 0.468818 0.192823 0.017396
C21   C     C_R   0.953672 0.427831 0.163942 0.041717
C22   C     C_R   0.234083 0.582517 0.840588 0.000515
C23   C     C_3   0.393078 0.297609 0.295220 0.257980
C24   C     C_R   0.288723 0.584245 0.912319 0.060533
C25   C     C_R   0.186932 0.548398 0.958707 0.048622
C26   C     C_R   0.245606 0.546448 0.029625 0.055387
C27   C     C_R   0.446918 0.618586 0.937388 -0.064601
C28   C     C_3   0.272396 0.726645 0.662118 0.667197
C29   C     C_R   0.504989 0.616128 0.006955 -0.064463
C30   C     C_R   0.405654 0.580132 0.053501 0.067446
C31   C     C_R   0.366738 0.542006 0.171144 -0.009997
C32   C     C_R   0.465206 0.576879 0.123051 -0.039810
C33   C     C_R   0.423268 0.541087 0.242870 -0.018607
C34   C     C_3   0.284920 0.223842 0.245571 -0.234397
C35   C     C_R   0.318782 0.508146 0.289225 -0.279906
C36   C     C_R   0.161361 0.471847 0.265961 0.073697
C37   C     C_2   0.447828 0.724429 0.486762 -0.365631
C38   C     C_3   0.321371 0.778204 0.493201 0.120204
C39   C     C_2   0.394509 0.862241 0.490567 -0.114329
C40   C     C_3   0.396629 0.785552 0.715460 -0.213517
C41   C     C_2   0.550314 0.888527 0.512048 -0.061741
C42   C     C_2   0.648447 0.831694 0.534490 0.304080
C43   C     C_1   0.585575 0.754032 0.524916 0.020890
C44   C     C_R   0.801823 0.135318 0.519769 -0.075464
C45   C     C_3   0.125951 0.308308 0.717482 0.279905
C46   C     C_R   0.853649 0.218050 0.536560 0.085914
C47   C     C_R   0.617273 0.236253 0.470709 0.056254
C48   C     C_R   0.566318 0.153025 0.453149 -0.097326
C49   C     C_R   0.653289 0.102596 0.481374 0.032717
C50   C     C_2   0.621373 0.973597 0.518833 -0.018024
C51   C     C_2   0.586200 0.016482 0.470874 -0.068498
C52   C     C_3   0.903010 0.275839 0.334569 0.176191
C53   C     C_R   0.755863 0.268652 0.516444 0.131867
C54   C     C_3   0.818157 0.201308 0.278027 -0.201889
C55   C     C_3   0.791985 0.691897 0.703567 0.761904
C56   C     C_3   0.146806 0.289745 0.792910 0.144584
C57   C     C_3   0.708293 0.647019 0.756713 -0.401219
C58   C     C_2   0.991228 0.252309 0.393699 0.392799
C59   C     C_2   0.757609 0.224783 0.211823 0.562647
C60   C     C_2   0.198180 0.243572 0.182649 0.482234
C61   C     C_2   0.376103 0.157063 0.214084 0.502374
C62   C     C_2   0.993454 0.250640 0.817923 0.672623
C63   C     C_2   0.622644 0.359373 0.119528 0.599683
C64   C     C_2   0.498410 0.369054 0.978366 0.622820
C65   C     C_2   0.000023 0.691040 0.153377 0.427997
C66   C     C_3   0.542461 0.256775 0.704742 0.839533
C67   C     C_3   0.497620 0.183172 0.737711 0.275046
C68   C     C_R   0.987521 0.472757 0.050408 0.073531
Cl1   Cl    Cl    0.911451 0.780301 0.757616 -0.538129
Cl2   Cl    Cl    0.306323 0.755407 0.188921 -0.722611
Cl3   Cl    Cl    0.230072 0.379221 0.856854 -0.706091
Cl4   Cl    Cl    0.750348 0.270605 0.698305 -0.797092
Cl5   Cl    Cl    0.451819 0.230129 0.615921 -0.694140
Cl6   Cl    Cl    0.561953 0.202389 0.831807 -0.604635
Cl7   Cl    Cl    0.833929 0.872416 0.584005 -0.543153
Cl8   Cl    Cl    0.808323 0.372147 0.549894 -0.674946
Cl9   Cl    Cl    0.150864 0.786107 0.627472 -0.592503
H1    H     H_    0.680978 0.737976 0.374921 0.042554
H2    H     H_    0.632561 0.684657 0.792240 0.127312
H3    H     H_    0.797503 0.631677 0.793028 0.063753
H4    H     H_    0.630831 0.592070 0.725397 0.081096
H5    H     H_    0.496951 0.723764 0.318254 0.052369
H6    H     H_    0.626251 0.865346 0.347079 0.087533
H7    H     H_    0.319084 0.335234 0.331893 0.032957
H8    H     H_    0.454427 0.336583 0.261315 0.035496
H9    H     H_    0.193727 0.200454 0.280367 0.118009
H10   H     H_    0.637529 0.822598 0.250507 0.190480
H11   H     H_    0.237101 0.342986 0.704261 0.133327
H12   H     H_    0.461314 0.752829 0.747591 0.086340
H13   H     H_    0.035084 0.348403 0.719426 0.067251
H14   H     H_    0.233230 0.248138 0.791226 0.079691
H15   H     H_    0.554649 0.132517 0.707601 0.087876
H16   H     H_    0.366978 0.161171 0.731297 0.056437
H17   H     H_    0.973066 0.694946 0.300053 0.070470
H18   H     H_    0.829383 0.494863 0.659407 0.113599
H19   H     H_    0.593293 0.415889 0.865103 0.127626
H20   H     H_    0.884209 0.390898 0.194727 0.051964
H21   H     H_    0.314272 0.612455 0.807599 0.086550
H22   H     H_    0.527278 0.645932 0.902524 0.070366
H23   H     H_    0.482069 0.820207 0.685454 0.106948
H24   H     H_    0.628444 0.642022 0.024196 0.085834
H25   H     H_    0.589007 0.602007 0.138969 0.139610
H26   H     H_    0.149039 0.649700 0.274384 0.007185
H27   H     H_    0.362562 0.508865 0.343955 0.054833
H28   H     H_    0.499963 0.989011 0.425181 0.098703
H29   H     H_    0.878871 0.097050 0.535945 0.102086
H30   H     H_    0.704075 0.001546 0.565500 0.143989
H31   H     H_    0.317551 0.903092 0.478629 0.121036
H32   H     H_    0.456829 0.128087 0.419588 0.120507
H33   H     H_    0.426467 0.664037 0.452123 0.066346
H34   H     H_    0.337636 0.828536 0.755160 0.172452
H35   H     H_    0.067348 0.801754 0.231444 0.065497
H36   H     H_    0.330743 0.689488 0.617334 -0.087645
H37   H     H_    0.043698 0.299485 0.439647 0.063293
H38   H     H_    0.685468 0.272009 0.218471 -0.013652
H39   H     H_    0.106441 0.198178 0.149844 0.088810
H40   H     H_    0.449831 0.161043 0.168033 0.070357
H41   H     H_    0.936462 0.191812 0.787050 0.053976
H42   H     H_    0.616653 0.388750 0.176565 -0.054348
H43   H     H_    0.468547 0.329428 0.925118 0.129543
H44   H     H_    0.993815 0.711903 0.103194 0.046490
H45   H     H_    0.812477 0.312123 0.359293 0.011527
H46   H     H_    0.715964 0.170592 0.302882 0.071471
H47   H     H_    0.901596 0.157652 0.260401 0.137808
H48   H     H_    0.867100 0.653413 0.668582 -0.032510
H49   H     H_    0.812070 0.837377 0.312059 0.105540
O1    O     O_2   0.871520 0.445720 0.321500 -0.482155
O2    O     O_2   0.176473 0.218630 0.528343 -0.385667
O3    O     O_3   0.087602 0.236317 0.663428 -0.599120
O4    O     O_3   0.121030 0.451930 0.411150 -0.484627
O5    O     O_3   0.581210 0.598010 0.542960 -0.495813
O6    O     O_2   0.335820 0.303580 0.452320 -0.448362
O7    O     O_3   0.513314 0.271547 0.332280 -0.694994
O8    O     O_2   0.445403 0.472671 0.756913 -0.487018
O9    O     O_3   0.489212 0.325585 0.747156 -0.598118
O10   O     O_3   0.662190 0.593100 0.375060 -0.493264
O11   O     O_2   0.754361 0.535331 0.243292 -0.467237
O12   O     O_3   0.674424 0.716184 0.664167 -0.646127
O13   O     O_3   0.016478 0.318547 0.298997 -0.675888
O14   O     O_3   0.691056 0.681085 0.265665 -0.586908
O15   O     O_2   0.853880 0.696450 0.547730 -0.389570
O16   O     O_3   0.085100 0.636210 0.413950 -0.497862
O17   O     O_2   0.998277 0.779421 0.451033 -0.422930
O18   O     O_2   0.007512 0.182666 0.390697 -0.598523
O19   O     O_2   0.789758 0.191601 0.150543 -0.537369
O20   O     O_2   0.230075 0.308659 0.166826 -0.556073
O21   O     O_2   0.365536 0.097262 0.239117 -0.537483
O22   O     O_2   0.932788 0.283081 0.872903 -0.471659
O23   O     O_3   0.191060 0.762942 0.343207 -0.628192
O24   O     O_2   0.543905 0.292801 0.095812 -0.517636
O25   O     O_2   0.390601 0.384976 0.018696 -0.532997
O26   O     O_2   0.920686 0.626938 0.156418 -0.606638
O27   O     O_2   0.318180 0.554310 0.678550 -0.494706
O28   O     O_3   0.068680 0.548140 0.588860 -0.450807
O29   O     O_3   0.527520 0.406960 0.624950 -0.378916
O30   O     O_3   0.174875 0.681739 0.702325 -0.626400
O31   O     O_3   0.608500 0.402060 0.457050 -0.407986
O32   O     O_3   0.104610 0.363860 0.586060 -0.446619
P1    P     P_3+3 0.038810 0.422920 0.331160 0.978664
P2    P     P_3+3 0.678260 0.686080 0.568600 1.078654
P3    P     P_3+3 0.146195 0.739036 0.427277 1.010680
P4    P     P_3+3 0.150900 0.577150 0.668860 1.006294
P5    P     P_3+3 0.056268 0.259672 0.578589 1.114328
P6    P     P_3+3 0.630421 0.585242 0.281294 0.957995
P7    P     P_3+3 0.513445 0.301576 0.427901 1.029299
P8    P     P_3+3 0.560678 0.416371 0.720220 1.059708

loop_
_geom_bond_atom_site_label_1
_geom_bond_atom_site_label_2
_ccdc_geom_bond_type
C46   C53   A    
C21   H20   S    
C12   O14   S    
O13   P1    S    
Ba2   O27   S    
C1    H6    S    
C45   H13   S    
C57   H3    S    
C12   H5    S    
C43   P2    S    
Ba1   O4    S    
O5    P2    S    
C16   H35   S    
C2    C68   A    
O17   P3    D    
C5    C6    A    
C52   C58   S    
C34   H9    S    
C66   Cl5   S    
C48   H32   S    
C10   C11   A    
C24   C25   A    
Ba2   O6    S    
O6    P7    D    
C65   O26   D    
C42   Cl7   S    
C33   C35   A    
C56   H14   S    
C57   H4    S    
C47   P7    S    
Ba1   O1    S    
C34   C60   S    
C41   C50   S    
C55   C57   S    
C19   C31   A    
O12   P2    S    
C13   C14   A    
C20   C36   A    
C23   H8    S    
C33   P6    S    
C67   Cl6   S    
Ba1   Ba2   S    
C8    H19   S    
C7    C11   A    
O4    P1    S    
C61   O21   D    
C31   C33   A    
C9    C13   A    
C36   P1    S    
C46   P5    S    
C6    C7    A    
C44   H29   S    
Ba2   O4    S    
C64   H43   S    
C63   H42   S    
C34   C61   S    
O15   P2    D    
O30   P4    S    
C37   C43   D    
C4    H17   S    
C29   H24   S    
Ba1   P1    S    
C60   O20   D    
C19   C20   A    
C56   C62   S    
C39   C41   D    
C18   C68   A    
C66   O9    S    
C58   O18   D    
Ba1   O5    S    
C40   H23   S    
O29   P8    S    
C48   C49   A    
C44   C46   A    
C28   H36   S    
C16   Cl2   S    
C4    C16   S    
C52   C54   S    
Ba2   O5    S    
C59   H38   S    
C26   C30   A    
C7    C68   A    
C38   P3    S    
C3    C63   S    
C67   H15   S    
C8    C9    A    
Ba2   P4    S    
C37   C38   S    
C3    C5    A    
C2    C21   A    
C1    H49   S    
C66   C67   S    
O8    P8    D    
C16   C65   S    
C47   C53   A    
C44   C49   A    
C32   H25   S    
C55   O12   S    
C45   O3    S    
C49   C51   S    
C30   C32   A    
Ba1   O28   S    
C41   C42   S    
C35   C36   A    
Ba1   O15   S    
C15   P4    S    
O14   P6    S    
C61   H40   S    
C51   H28   S    
C40   H34   S    
C29   C30   A    
Ba1   O31   S    
C31   C32   A    
C27   H22   S    
C54   C59   S    
O32   P5    S    
C55   Cl1   S    
O3    P5    S    
C1    C12   S    
C4    O23   S    
C6    C8    A    
C38   C39   S    
Ba1   P2    S    
C54   H47   S    
C12   H1    S    
O16   P3    S    
C45   H11   S    
C13   P8    S    
C58   H37   S    
Ba2   O31   S    
C42   C43   D    
C28   O30   S    
C52   H45   S    
C37   H33   S    
Ba2   O28   S    
C22   H21   S    
C28   C40   S    
C57   H2    S    
C22   C24   A    
C2    C3    A    
C67   H16   S    
C65   H44   S    
C55   H48   S    
C64   O25   D    
C9    C10   A    
O27   P4    D    
C18   C26   A    
O23   P3    S    
C62   H41   S    
C1    H10   S    
C39   H31   S    
C63   O24   D    
C17   C22   A    
C59   O19   D    
C35   H27   S    
C27   C29   A    
Ba1   O16   S    
C45   C56   S    
O2    P5    D    
C28   Cl9   S    
C14   C15   A    
C50   H30   S    
Ba2   O29   S    
O1    P1    D    
C10   C17   A    
C23   H7    S    
C15   C17   A    
C4    H26   S    
O31   P7    S    
C23   O7    S    
C14   H18   S    
C60   H39   S    
O10   P6    S    
C53   Cl8   S    
C23   C34   S    
C52   O13   S    
C18   C19   A    
O28   P4    S    
C24   C27   A    
Ba2   O32   S    
C47   C48   A    
C62   O22   D    
C25   C26   A    
O11   P6    D    
O7    P7    S    
C20   C21   A    
C11   C25   A    
C66   Cl4   S    
C54   H46   S    
O9    P8    S    
Ba1   O10   S    
C40   H12   S    
C56   Cl3   S    
C50   C51   D    
C5    C64   S    
