data_mof_unit_68206.cif
_audit_creation_date              2012-12-11T16:32:32-0500
_audit_creation_method            fapswitch 2.2
_symmetry_space_group_name_H-M    P1
_symmetry_Int_Tables_number       1
_space_group_crystal_system       triclinic
_cell_length_a                    7.001431
_cell_length_b                    14.282261
_cell_length_c                    16.220088
_cell_angle_alpha                 89.944884
_cell_angle_beta                  89.112611
_cell_angle_gamma                 90.04282
_cell_volume                      1621.75246744

loop_
_atom_site_label
_atom_site_type_symbol
_atom_type_description
_atom_site_fract_x
_atom_site_fract_y
_atom_site_fract_z
_atom_type_partial_charge
O1    O     O_R   0.361630 0.167340 0.164570 -0.512349
O2    O     O_R   0.638370 0.832660 0.835430 -0.514674
O3    O     O_R   0.690860 0.157560 0.338690 -0.519546
O4    O     O_R   0.309140 0.842440 0.661310 -0.520473
O5    O     O_R   0.861260 0.336420 0.339380 -0.529985
O6    O     O_R   0.138740 0.663580 0.660620 -0.529866
C1    C     C_R   0.521120 0.135564 0.368449 0.779196
C2    C     C_R   0.478856 0.864662 0.631741 0.774963
O7    O     O_R   0.691330 0.156310 0.165190 -0.495768
O8    O     O_R   0.308670 0.843690 0.834810 -0.494466
O9    O     O_R   0.861730 0.335160 0.164640 -0.517649
O10   O     O_R   0.138270 0.664840 0.835360 -0.517286
C3    C     C_R   0.523718 0.129209 0.140096 0.821163
C4    C     C_R   0.476207 0.870805 0.859900 0.812228
O11   O     O_R   0.361150 0.168600 0.339320 -0.544549
O12   O     O_R   0.638850 0.831400 0.660680 -0.544571
O13   O     O_3   0.527950 0.310560 0.252000 -0.354692
O14   O     O_3   0.472050 0.689440 0.748000 -0.354099
V1    V     V_3+5 0.802770 0.240990 0.251980 1.670008
V2    V     V_3+5 0.197230 0.759010 0.748020 1.669903
O15   O     O_R   0.191450 0.346190 0.165260 -0.498047
O16   O     O_R   0.808550 0.653810 0.834740 -0.498506
C5    C     C_R   0.025090 0.370236 0.137941 0.834261
C6    C     C_R   0.975043 0.629420 0.861785 0.833370
O17   O     O_R   0.190980 0.347440 0.338770 -0.542317
O18   O     O_R   0.809020 0.652560 0.661230 -0.541762
C7    C     C_R   0.021220 0.367601 0.368586 0.791670
C8    C     C_R   0.978818 0.632489 0.631341 0.791786
V3    V     V_3+5 0.302780 0.262760 0.251980 1.629223
V4    V     V_3+5 0.697220 0.737240 0.748020 1.625692
O19   O     O_3   0.027730 0.193200 0.251960 -0.352241
O20   O     O_3   0.972270 0.806800 0.748040 -0.353170
C9    C     C_3   0.884497 0.427024 0.519247 0.271558
C10   C     C_3   0.115850 0.573186 0.480588 0.273003
C11   C     C_3   0.056688 0.460907 0.570285 0.199863
C12   C     C_3   0.943751 0.539308 0.429513 0.201578
C13   C     C_3   0.992744 0.564020 0.560589 -0.256256
C14   C     C_3   0.007541 0.436181 0.439240 -0.255084
C15   C     C_3   0.823786 0.530476 0.509347 0.083910
C16   C     C_3   0.176538 0.469751 0.490432 0.084011
H1    H     H_    0.828917 0.311799 0.768263 0.211963
H2    H     H_    0.175023 0.688193 0.230300 0.219953
C17   C     C_R   0.011455 0.697338 0.035472 0.275384
C18   C     C_R   0.988835 0.301553 0.963979 0.250211
C19   C     C_R   0.053413 0.726304 0.115611 0.183798
C20   C     C_R   0.948207 0.272191 0.883501 0.202048
C21   C     C_R   0.124552 0.663057 0.171512 -0.181902
C22   C     C_R   0.879811 0.336135 0.827236 -0.164227
C23   C     C_R   0.138328 0.568605 0.152629 0.160633
C24   C     C_R   0.865392 0.430567 0.846341 0.152768
C25   C     C_R   0.059533 0.532957 0.078031 0.039931
C26   C     C_R   0.942458 0.466111 0.921203 0.041760
C27   C     C_R   0.014982 0.598918 0.014382 -0.060207
C28   C     C_R   0.985968 0.400103 0.984960 -0.049014
C29   C     C_R   0.027460 0.434801 0.065521 -0.078514
C30   C     C_R   0.973274 0.564381 0.933901 -0.079732
C31   C     C_3   0.449784 0.959495 0.428750 -0.120653
C32   C     C_3   0.549993 0.040705 0.571478 -0.124696
C33   C     C_3   0.618570 0.929710 0.483661 0.360189
C34   C     C_3   0.381225 0.070502 0.516549 0.358729
H3    H     H_    0.403121 0.927006 0.370512 0.213015
H4    H     H_    0.596635 0.072986 0.629801 0.208433
C35   C     C_3   0.490798 0.936979 0.561551 -0.156618
C36   C     C_3   0.509034 0.063231 0.438659 -0.155658
C37   C     C_3   0.320931 0.966892 0.507373 -0.172312
C38   C     C_3   0.678877 0.033314 0.492851 -0.171267
H5    H     H_    0.172271 0.940492 0.513341 0.198078
H6    H     H_    0.827542 0.059706 0.486887 0.198042
C39   C     C_R   0.502915 0.198901 0.969585 0.206885
C40   C     C_R   0.498708 0.800714 0.030317 0.219835
C41   C     C_R   0.487204 0.231152 0.889717 -0.224151
C42   C     C_R   0.516975 0.768117 0.109937 -0.220776
C43   C     C_R   0.452036 0.171340 0.825997 0.300801
C44   C     C_R   0.549936 0.827877 0.173917 0.263335
C45   C     C_R   0.419361 0.076524 0.840989 0.166286
C46   C     C_R   0.579109 0.923087 0.159412 0.152486
C47   C     C_R   0.463472 0.036313 0.919621 -0.064567
C48   C     C_R   0.535696 0.963375 0.080684 -0.047782
C49   C     C_R   0.496903 0.099697 0.987206 0.027374
C50   C     C_R   0.503064 0.899991 0.012966 0.045191
C51   C     C_R   0.477213 0.936753 0.931847 -0.070121
C52   C     C_R   0.522332 0.063003 0.068357 -0.068058
H7    H     H_    0.498031 0.305391 0.876610 0.189333
H8    H     H_    0.507778 0.693770 0.122802 0.190329
Br1   Br    Br    0.156991 0.410676 0.671108 -0.474121
Br2   Br    Br    0.845497 0.589567 0.328304 -0.480763
Br3   Br    Br    0.556706 0.773102 0.281080 -0.424800
Br4   Br    Br    0.441979 0.225944 0.718926 -0.411237
Br5   Br    Br    0.535125 0.303925 0.042692 -0.515644
Br6   Br    Br    0.465456 0.695902 0.957076 -0.514958
Br7   Br    Br    0.256979 0.020098 0.760568 -0.489389
Br8   Br    Br    0.733385 0.980868 0.241917 -0.507330
Br9   Br    Br    0.741492 0.315671 0.549105 -0.450289
Br10  Br    Br    0.258756 0.684641 0.450986 -0.446155
N1    N     N_3   0.634600 0.571225 0.517043 -0.585202
H9    H     H_    0.572402 0.563771 0.459500 0.319271
H10   H     H_    0.650891 0.643395 0.524139 0.291098
N2    N     N_3   0.365765 0.429062 0.482593 -0.585321
H11   H     H_    0.428310 0.436657 0.540041 0.319106
H12   H     H_    0.349544 0.356866 0.475653 0.290771
Br11  Br    Br    0.955963 0.801140 0.963071 -0.466248
Br12  Br    Br    0.045599 0.198547 0.037133 -0.479420
N3    N     N_3   0.032253 0.822288 0.139582 -0.573712
H13   H     H_    0.953221 0.823214 0.194630 0.304741
H14   H     H_    0.166629 0.849531 0.152607 0.241106
N4    N     N_3   0.966177 0.175315 0.860286 -0.567685
H15   H     H_    0.946218 0.167085 0.796937 0.283935
H16   H     H_    0.856598 0.137787 0.889656 0.245530
N5    N     N_3   0.252196 0.512571 0.206017 -0.613668
H17   H     H_    0.200274 0.518991 0.266403 0.257050
H18   H     H_    0.391657 0.538908 0.204579 0.267653
N6    N     N_3   0.751625 0.486726 0.792979 -0.615580
H19   H     H_    0.803613 0.480517 0.732600 0.257037
H20   H     H_    0.612209 0.460328 0.794285 0.267509
Br13  Br    Br    0.802581 0.831358 0.462314 -0.435260
Br14  Br    Br    0.197026 0.168830 0.537666 -0.434589

loop_
_geom_bond_atom_site_label_1
_geom_bond_atom_site_label_2
_ccdc_geom_bond_type
C32   H4    S    
C38   H6    S    
C35   C37   S    
C10   C13   S    
O13   V3    S    
N1    H9    S    
C6    C30   S    
O4    C2    A    
V1    O19   S    
N6    H20   S    
C21   C23   A    
O9    V1    S    
C9    C15   S    
C44   C46   A    
C10   C16   S    
C11   C13   S    
C46   C48   A    
O3    C1    A    
N5    H18   S    
C33   C38   S    
C16   N2    S    
C48   C50   A    
C31   C33   S    
N4    H15   S    
C7    C14   S    
O12   V4    S    
O7    V1    S    
C19   C21   A    
C39   C41   A    
O7    C3    A    
C19   N3    S    
C9    C11   S    
O5    C7    A    
C32   C38   S    
O6    C8    A    
C18   C20   A    
C23   C25   A    
C24   C26   A    
O3    V1    S    
O14   V4    S    
C44   Br3   S    
V4    O20   S    
C25   C29   A    
C45   Br7   S    
C22   C24   A    
C2    O12   A    
C43   C45   A    
C40   Br6   S    
C39   Br5   S    
O1    V3    S    
N6    H19   S    
C26   C28   A    
O11   V3    S    
C41   H7    S    
C47   C49   A    
O17   V3    S    
C20   C22   A    
C40   C50   A    
C42   C44   A    
O8    C4    A    
O8    V2    S    
C41   C43   A    
C18   Br12  S    
C1    O11   A    
C37   H5    S    
O15   V3    S    
C3    C52   S    
C25   C27   A    
C36   C38   S    
C17   Br11  S    
C43   Br4   S    
C17   C19   A    
C48   C52   A    
C47   C51   A    
O10   V2    S    
C24   N6    S    
N3    H14   S    
C5    C29   S    
C45   C47   A    
C15   N1    S    
C42   H8    S    
C46   Br8   S    
C33   Br13  S    
C34   C37   S    
O18   V4    S    
N2    H12   S    
O15   C5    A    
H1    C22   S    
O16   C6    A    
C39   C49   A    
O1    C3    A    
C31   C36   S    
C23   N5    S    
V2    O20   S    
C27   C30   A    
C32   C35   S    
C28   C29   A    
O16   V4    S    
O18   C8    A    
C12   C15   S    
C10   Br10  S    
C31   C37   S    
C50   C51   A    
C9    Br9   S    
C49   C52   A    
N1    H10   S    
C31   H3    S    
O5    V1    S    
O17   C7    A    
O6    V2    S    
O10   C6    A    
C33   C35   S    
C9    C14   S    
O2    V4    S    
C34   C36   S    
C12   Br2   S    
C12   C14   S    
C11   C16   S    
V3    O19   S    
N5    H17   S    
C14   C16   S    
C11   Br1   S    
N4    H16   S    
C8    C13   S    
C20   N4    S    
O9    C5    A    
O13   V1    S    
C17   C27   A    
O14   V2    S    
H2    C21   S    
O2    C4    A    
C1    C36   S    
C34   Br14  S    
C2    C35   S    
O4    V2    S    
C18   C28   A    
C10   C12   S    
C13   C15   S    
N2    H11   S    
N3    H13   S    
C40   C42   A    
C4    C51   S    
C32   C34   S    
C26   C30   A    
