data_mof_unit_27683.cif
_audit_creation_date              2012-12-10T18:11:45-0500
_audit_creation_method            fapswitch 2.2
_symmetry_space_group_name_H-M    P1
_symmetry_Int_Tables_number       1
_space_group_crystal_system       triclinic
_cell_length_a                    10.489479
_cell_length_b                    12.618544
_cell_length_c                    12.987586
_cell_angle_alpha                 82.611251
_cell_angle_beta                  91.01128
_cell_angle_gamma                 102.52903
_cell_volume                      1664.09718572

loop_
_atom_site_label
_atom_site_type_symbol
_atom_type_description
_atom_site_fract_x
_atom_site_fract_y
_atom_site_fract_z
_atom_type_partial_charge
C1    C     C_R   0.473096 0.439647 0.691227 0.854803
C2    C     C_R   0.407682 0.452216 0.973023 0.118618
C3    C     C_R   0.405959 0.478504 0.864676 0.082545
C4    C     C_R   0.742471 0.500902 0.500278 0.878506
C5    C     C_R   0.426395 0.539731 0.034076 0.052746
C6    C     C_R   0.455519 0.650166 0.986615 0.105733
C7    C     C_R   0.409511 0.667320 0.884883 -0.219116
C8    C     C_R   0.382059 0.581516 0.825199 -0.215010
C9    C     C_R   0.426102 0.520498 0.140610 -0.361208
C10   C     C_R   0.571258 0.697733 0.146370 0.470981
C11   C     C_R   0.432290 0.403205 0.800161 -0.122091
C12   C     C_3   0.061945 0.578843 0.426663 -0.174105
C13   C     C_R   0.309513 0.085576 0.351744 -0.316249
C14   C     C_R   0.662539 0.801998 0.624566 0.008463
C15   C     C_R   0.699428 0.907733 0.650175 -0.268390
C16   C     C_R   0.513957 0.560819 0.307710 0.931632
C17   C     C_R   0.635964 0.987749 0.604710 -0.197788
C18   C     C_R   0.535427 0.962271 0.532166 0.022296
C19   C     C_R   0.502052 0.853222 0.508240 0.219130
C20   C     C_R   0.469771 0.040902 0.480255 -0.016341
C21   C     C_R   0.373260 0.009067 0.405349 0.202104
C22   C     C_R   0.342694 0.901657 0.383270 -0.296546
C23   C     C_3   0.987241 0.599090 0.521033 -0.132039
C24   C     C_R   0.407018 0.825310 0.433338 -0.217546
C25   C     C_R   0.496550 0.150845 0.498474 -0.055410
C26   C     C_R   0.341413 0.192942 0.372726 0.005973
C27   C     C_R   0.257586 0.499223 0.499532 0.833268
C28   C     C_3   0.938382 0.421703 0.572976 -0.180708
C29   C     C_3   0.050028 0.518315 0.593592 -0.175814
C30   C     C_3   0.121997 0.498093 0.499235 0.036540
C31   C     C_3   0.013020 0.401447 0.478590 -0.144188
C32   C     C_3   0.950274 0.482238 0.406033 -0.168952
C33   C     C_3   0.740755 0.839944 0.202019 0.094055
C34   C     C_3   0.878238 0.502381 0.500399 0.022281
C35   C     C_3   0.648418 0.879168 0.270207 -0.888714
C36   C     C_3   0.593911 0.850695 0.995456 -0.411733
C37   C     C_3   0.535375 0.907298 0.900378 -0.377952
C38   C     C_3   0.598802 0.029303 0.880850 -0.908400
C39   C     C_R   0.532289 0.733173 0.042752 -0.022635
C40   C     C_R   0.501081 0.596821 0.197083 -0.158904
C41   C     C_R   0.430915 0.295147 0.843170 -0.195084
C42   C     C_R   0.414175 0.264528 0.949653 -0.156460
C43   C     C_R   0.407177 0.342667 0.014818 -0.188504
H1    H     H_    0.095475 0.532644 0.669864 0.128913
H2    H     H_    0.566341 0.182343 0.554797 0.123739
H3    H     H_    0.711302 0.739373 0.659825 0.142882
H4    H     H_    0.883348 0.358019 0.632597 0.131468
H5    H     H_    0.668622 0.068486 0.627056 0.137644
H6    H     H_    0.776553 0.927558 0.705543 0.153918
H7    H     H_    0.386029 0.746620 0.407145 0.212163
H8    H     H_    0.027533 0.320941 0.461263 0.143510
H9    H     H_    0.904932 0.467941 0.329730 0.143659
H10   H     H_    0.117109 0.642546 0.367109 0.126107
H11   H     H_    0.972756 0.679624 0.538308 0.142682
H12   H     H_    0.374738 0.442531 0.179734 0.174668
H13   H     H_    0.388567 0.742839 0.849889 0.143617
H14   H     H_    0.833466 0.844343 0.245561 0.171256
H15   H     H_    0.771136 0.897340 0.130956 0.122904
H16   H     H_    0.685387 0.967430 0.276549 0.220065
H17   H     H_    0.548342 0.867911 0.238286 0.241817
H18   H     H_    0.647105 0.833273 0.348658 0.284052
H19   H     H_    0.582451 0.070883 0.948225 0.259696
H20   H     H_    0.705462 0.041129 0.866982 0.261534
H21   H     H_    0.555067 0.067679 0.811189 0.249740
H22   H     H_    0.555555 0.871999 0.830193 0.247991
H23   H     H_    0.447055 0.235213 0.795019 0.155662
H24   H     H_    0.429013 0.899533 0.912912 0.224513
H25   H     H_    0.586867 0.903013 0.056425 0.214925
H26   H     H_    0.698003 0.854352 0.977225 0.211486
H27   H     H_    0.407599 0.316339 0.097214 0.135061
H28   H     H_    0.414703 0.181337 0.982550 0.142041
H29   H     H_    0.346904 0.597793 0.747193 0.176790
H30   H     H_    0.292882 0.253329 0.332371 0.123033
H31   H     H_    0.270944 0.877021 0.324940 0.147373
H32   H     H_    0.236110 0.062599 0.294159 0.138276
N1    N     N_R   0.432930 0.222190 0.444670 -0.097502
N2    N     N_R   0.566370 0.776980 0.554790 -0.136148
O1    O     O_R   0.467970 0.366730 0.627150 -0.615172
O2    O     O_R   0.510820 0.544830 0.662520 -0.615120
O3    O     O_R   0.664630 0.410960 0.482340 -0.617084
O4    O     O_R   0.707470 0.589060 0.517710 -0.623523
O5    O     O_R   0.489180 0.455170 0.337480 -0.620958
O6    O     O_R   0.532030 0.633270 0.372850 -0.620944
O7    O     O_R   0.292530 0.410940 0.482290 -0.624927
O8    O     O_R   0.335370 0.589040 0.517660 -0.648363
O9    O     O_3   0.698691 0.729864 0.182439 -0.629338
Zn1   Zn    Zn3+2 0.471390 0.381080 0.476380 0.931161
Zn2   Zn    Zn3+2 0.528610 0.618920 0.523620 0.914946

loop_
_geom_bond_atom_site_label_1
_geom_bond_atom_site_label_2
_ccdc_geom_bond_type
O1    Zn1   S    
C28   H4    S    
C33   H15   S    
C41   C42   A    
C1    C11   S    
C17   H5    S    
C7    C8    A    
C14   H3    S    
C12   C23   S    
C37   C38   S    
C23   C29   S    
C10   C40   A    
C28   C29   S    
C4    O3    A    
O3    Zn1   S    
C5    C6    A    
C20   C25   A    
O5    Zn1   S    
C26   H30   S    
C35   H16   S    
C18   C19   A    
C14   N2    A    
C27   O8    A    
C32   H9    S    
C10   O9    S    
C4    O4    A    
C13   H32   S    
N2    Zn2   S    
C37   H22   S    
C26   N1    A    
O7    Zn1   S    
C11   C41   A    
C9    H12   S    
C12   H10   S    
O6    Zn2   S    
C28   C34   S    
C21   C22   A    
C12   C32   S    
C27   C30   S    
C1    O1    A    
C7    H13   S    
O2    Zn2   S    
C38   H21   S    
C36   C39   S    
C24   H7    S    
C4    C34   S    
C8    H29   S    
C3    C8    A    
C9    C40   A    
C10   C39   A    
C32   C34   S    
C33   O9    S    
C5    C9    A    
C29   C30   S    
C19   N2    A    
C31   C32   S    
C2    C43   A    
C23   C34   S    
C16   O5    A    
C17   C18   A    
C13   C21   A    
C35   H18   S    
N1    Zn1   S    
C6    C7    A    
C16   C40   S    
C43   H27   S    
C29   H1    S    
C1    O2    A    
C22   C24   A    
C13   C26   A    
C2    C5    A    
C42   C43   A    
C22   H31   S    
C25   H2    S    
C36   H26   S    
C23   H11   S    
C38   H20   S    
O8    Zn2   S    
C15   C17   A    
C27   O7    A    
C33   H14   S    
C12   C30   S    
C14   C15   A    
C28   C31   S    
C31   H8    S    
C16   O6    A    
C36   H25   S    
C41   H23   S    
C25   N1    A    
C19   C24   A    
C30   C31   S    
C37   H24   S    
C42   H28   S    
C33   C35   S    
C2    C3    A    
C18   C20   A    
C15   H6    S    
O4    Zn2   S    
C3    C11   A    
C20   C21   A    
C36   C37   S    
C6    C39   A    
C35   H17   S    
C38   H19   S    
