data_mof_unit_51729.cif
_audit_creation_date              2012-12-10T17:45:28-0500
_audit_creation_method            fapswitch 2.2
_symmetry_space_group_name_H-M    P1
_symmetry_Int_Tables_number       1
_space_group_crystal_system       triclinic
_cell_length_a                    11.534032
_cell_length_b                    10.720522
_cell_length_c                    9.925487
_cell_angle_alpha                 89.14406
_cell_angle_beta                  90.084957
_cell_angle_gamma                 93.50204
_cell_volume                      1224.86613086

loop_
_atom_site_label
_atom_site_type_symbol
_atom_type_description
_atom_site_fract_x
_atom_site_fract_y
_atom_site_fract_z
_atom_type_partial_charge
C1    C     C_R   0.503147 0.260646 0.501287 0.813067
C2    C     C_R   0.524990 0.873841 0.495850 -0.052908
C3    C     C_R   0.346043 0.333187 0.142238 -0.120790
C4    C     C_R   0.281969 0.498862 0.499932 0.878776
C5    C     C_R   0.271081 0.250038 0.073041 -0.177323
C6    C     C_R   0.271796 0.249463 0.933462 -0.163796
C7    C     C_R   0.347345 0.332190 0.862135 -0.117806
C8    C     C_R   0.424739 0.417285 0.928867 0.142579
C9    C     C_R   0.424436 0.417560 0.073407 0.095899
C10   C     C_R   0.572340 0.579392 0.069570 0.415391
C11   C     C_R   0.572058 0.579129 0.926714 -0.144137
C12   C     C_R   0.744457 0.084115 0.763915 -0.253240
C13   C     C_R   0.510048 0.739999 0.499121 0.958180
C14   C     C_R   0.717155 0.491800 0.499994 0.965419
C15   C     C_1   0.161177 0.494018 0.499814 -0.161832
C16   C     C_1   0.058723 0.489709 0.499770 0.032918
C17   C     C_1   0.939788 0.486623 0.499771 0.060159
C18   C     C_1   0.837538 0.487144 0.499826 -0.090603
C19   C     C_R   0.667529 0.142418 0.680019 -0.261750
C20   C     C_R   0.760605 0.958144 0.749713 0.432812
C21   C     C_R   0.697427 0.889626 0.651842 0.286972
C22   C     C_R   0.604465 0.942696 0.581052 -0.038360
C23   C     C_R   0.593970 0.072586 0.590174 0.062773
C24   C     C_R   0.513900 0.129146 0.503938 -0.043028
C25   C     C_R   0.444753 0.060358 0.413401 -0.194551
C26   C     C_R   0.449033 0.933437 0.410783 -0.175174
Cl1   Cl    Cl    0.868983 0.891400 0.847689 -0.512206
Cl2   Cl    Cl    0.761732 0.758243 0.592604 -0.569913
Cl3   Cl    Cl    0.668962 0.686032 0.151179 -0.501970
H1    H     H_    0.383966 0.104815 0.347532 0.148728
H2    H     H_    0.213142 0.184828 0.879965 0.168973
H3    H     H_    0.342607 0.327200 0.755072 0.196935
H4    H     H_    0.630706 0.643716 0.871363 0.214415
H5    H     H_    0.669485 0.242578 0.686914 0.199277
H6    H     H_    0.797089 0.139059 0.834472 0.195804
H7    H     H_    0.389578 0.880964 0.344903 0.166385
H8    H     H_    0.339844 0.328982 0.249310 0.191168
H9    H     H_    0.211851 0.185867 0.128226 0.161261
N1    N     N_R   0.498930 0.498800 0.142780 -0.158964
N2    N     N_R   0.498900 0.498720 0.857170 -0.148997
O1    O     O_R   0.500000 0.316780 0.614690 -0.658335
O2    O     O_R   0.499990 0.316750 0.385360 -0.638513
O3    O     O_R   0.334450 0.500030 0.614670 -0.622909
O4    O     O_R   0.334440 0.500000 0.385330 -0.633484
O5    O     O_R   0.500010 0.683250 0.614640 -0.602927
O6    O     O_R   0.500000 0.683220 0.385310 -0.568503
O7    O     O_R   0.665560 0.500000 0.614670 -0.592831
O8    O     O_R   0.665550 0.499970 0.385330 -0.559953
Zn1   Zn    Zn3+2 0.500010 0.500020 0.653130 0.968071
Zn2   Zn    Zn3+2 0.499990 0.499980 0.346870 1.008840

loop_
_geom_bond_atom_site_label_1
_geom_bond_atom_site_label_2
_ccdc_geom_bond_type
C2    C22   A    
C19   C23   A    
C23   C24   A    
C6    C7    A    
C3    C9    A    
C20   Cl1   S    
C4    O4    A    
C14   C18   S    
O5    Zn1   S    
C12   C20   A    
C4    C15   S    
O8    Zn2   S    
C17   C18   T    
C7    C8    A    
O7    Zn1   S    
C5    H9    S    
C24   C25   A    
C12   H6    S    
C13   O5    A    
C10   Cl3   S    
C13   O6    A    
O2    Zn2   S    
C5    C6    A    
C12   C19   A    
C1    O1    A    
C4    O3    A    
C21   Cl2   S    
C6    H2    S    
C11   N2    A    
C16   C17   S    
C10   C11   A    
O4    Zn2   S    
C15   C16   T    
C1    O2    A    
C11   H4    S    
N1    Zn2   S    
C20   C21   A    
C3    H8    S    
C1    C24   S    
C2    C26   A    
C26   H7    S    
O1    Zn1   S    
C25   H1    S    
C2    C13   S    
O6    Zn2   S    
C22   C23   A    
O3    Zn1   S    
C14   O8    A    
C7    H3    S    
C8    N2    A    
C25   C26   A    
C21   C22   A    
C14   O7    A    
C10   N1    A    
C9    N1    A    
N2    Zn1   S    
C8    C9    A    
C3    C5    A    
C19   H5    S    
