data_mof_unit_36667.cif
_audit_creation_date              2012-12-11T15:59:47-0500
_audit_creation_method            fapswitch 2.2
_symmetry_space_group_name_H-M    P1
_symmetry_Int_Tables_number       1
_space_group_crystal_system       triclinic
_cell_length_a                    10.683705
_cell_length_b                    10.790378
_cell_length_c                    17.079217
_cell_angle_alpha                 99.829074
_cell_angle_beta                  99.805976
_cell_angle_gamma                 60.306945
_cell_volume                      1676.79349772

loop_
_atom_site_label
_atom_site_type_symbol
_atom_type_description
_atom_site_fract_x
_atom_site_fract_y
_atom_site_fract_z
_atom_type_partial_charge
C1    C     C_R   0.384838 0.704304 0.387174 0.541130
C2    C     C_R   0.856168 0.316560 0.332721 0.002131
C3    C     C_R   0.356076 0.787803 0.145847 -0.034618
C4    C     C_R   0.395314 0.364759 0.353411 0.541448
C5    C     C_R   0.485572 0.757694 0.192726 0.021779
C6    C     C_R   0.498189 0.735977 0.274156 0.020606
C7    C     C_R   0.274877 0.712347 0.244069 -0.016116
C8    C     C_R   0.263924 0.746046 0.167686 -0.091326
C9    C     C_R   0.602656 0.746707 0.159121 -0.089601
C10   C     C_R   0.728329 0.727096 0.206267 -0.133089
C11   C     C_R   0.736174 0.726216 0.287951 -0.146217
C12   C     C_R   0.816790 0.233198 0.193633 0.017550
C13   C     C_R   0.623732 0.731020 0.321769 -0.077983
C14   C     C_R   0.384766 0.721779 0.302243 -0.042837
C15   C     C_R   0.298607 0.275680 0.799110 -0.005784
C16   C     C_R   0.781123 0.372443 0.405209 0.537064
C17   C     C_R   0.426726 0.175588 0.762769 0.035699
C18   C     C_R   0.478722 0.224538 0.712131 0.035219
C19   C     C_R   0.245806 0.444347 0.705988 -0.146902
C20   C     C_R   0.207745 0.408518 0.769053 -0.146074
C21   C     C_R   0.508793 0.030134 0.778725 -0.086095
C22   C     C_R   0.648755 0.944062 0.756727 -0.110421
C23   C     C_R   0.829644 0.218103 0.275409 0.023922
C24   C     C_R   0.709831 0.001658 0.718696 -0.112679
C25   C     C_R   0.625956 0.140505 0.696666 -0.086765
C26   C     C_R   0.380172 0.352644 0.676317 -0.006122
C27   C     C_1   0.818529 0.342283 0.708991 -0.062040
C28   C     C_R   0.357650 0.769683 0.627441 0.562785
C29   C     C_1   0.845617 0.313733 0.776608 -0.052270
C30   C     C_1   0.339063 0.809428 0.709495 -0.056911
C31   C     C_1   0.313786 0.836709 0.777644 -0.062419
C32   C     C_R   0.898464 0.307860 0.090202 0.527043
C33   C     C_R   0.294741 0.266170 0.123863 0.573213
C34   C     C_R   0.915344 0.392708 0.310206 -0.144107
C35   C     C_R   0.299509 0.881081 0.080884 0.537249
C36   C     C_R   0.886648 0.297294 0.858955 0.545851
C37   C     C_R   0.278370 0.252371 0.876922 0.546587
C38   C     C_R   0.279926 0.883662 0.857442 0.541165
C39   C     C_R   0.407422 0.375028 0.600224 0.551591
C40   C     C_R   0.773342 0.380857 0.629760 0.543532
C41   C     C_1   0.350110 0.336124 0.273435 -0.025509
C42   C     C_1   0.320131 0.306660 0.205125 -0.001431
C43   C     C_R   0.866027 0.320437 0.171288 0.007480
C44   C     C_2   0.163546 0.673821 0.257882 0.193246
C45   C     C_R   0.923714 0.391517 0.230402 -0.140955
C46   C     C_R   0.758392 0.158123 0.137216 -0.076324
C47   C     C_R   0.729583 0.058400 0.161049 -0.088913
C48   C     C_R   0.757616 0.033083 0.240786 -0.113284
C49   C     C_R   0.811143 0.108337 0.297097 -0.076215
Cr1   Cr    Cr6+3 0.608100 0.610860 0.522250 1.007701
Cr2   Cr    Cr6+3 0.288890 0.599990 0.488420 0.997140
Cr3   Cr    Cr6+3 0.603040 0.289190 0.489390 0.998365
Cr4   Cr    Cr6+3 0.053960 0.052250 0.967380 1.017635
Cr5   Cr    Cr6+3 0.059890 0.373160 0.992710 1.040332
Cr6   Cr    Cr6+3 0.373370 0.061690 0.991710 0.985923
H1    H     H_    0.946817 0.460255 0.353946 0.140249
H2    H     H_    0.677283 0.180237 0.666903 0.152691
H3    H     H_    0.733136 0.176526 0.074822 0.138022
H4    H     H_    0.974169 0.448749 0.215097 0.171366
H5    H     H_    0.687419 0.999259 0.117553 0.136265
H6    H     H_    0.735238 0.957729 0.260348 0.131819
H7    H     H_    0.839252 0.078076 0.357374 0.139404
H8    H     H_    0.599824 0.748003 0.095638 0.131899
H9    H     H_    0.173836 0.750532 0.125657 0.201166
H10   H     H_    0.141191 0.667933 0.315502 0.169393
H11   H     H_    0.817734 0.718084 0.179707 0.172596
H12   H     H_    0.831708 0.719113 0.325389 0.108217
H13   H     H_    0.643355 0.730977 0.385010 0.180130
H14   H     H_    0.170369 0.543947 0.680663 0.144634
H15   H     H_    0.466595 0.982498 0.809263 0.151451
H16   H     H_    0.107947 0.485110 0.794658 0.144937
H17   H     H_    0.711001 0.834264 0.771353 0.121205
H18   H     H_    0.820840 0.937832 0.704427 0.119994
O1    O     O_R   0.749810 0.499790 0.438040 -0.538185
O2    O     O_R   0.411730 0.181020 0.091530 -0.521522
O3    O     O_R   0.365010 0.944360 0.063320 -0.520551
O4    O     O_R   0.477660 0.726260 0.439290 -0.501377
O5    O     O_R   0.159380 0.906670 0.876210 -0.499720
O6    O     O_R   0.930820 0.177420 0.886730 -0.491573
O7    O     O_R   0.910360 0.395420 0.895720 -0.522583
O8    O     O_R   0.186010 0.361730 0.919870 -0.487315
O9    O     O_R   0.400000 0.173010 0.914630 -0.513822
O10   O     O_R   0.354140 0.936940 0.899340 -0.538933
O11   O     O_3   0.162410 0.162370 0.983930 -0.286015
O12   O     O_R   0.298970 0.468800 0.557390 -0.488958
O13   O     O_R   0.260150 0.743000 0.412270 -0.539388
O14   O     O_R   0.297740 0.466550 0.394720 -0.526273
O15   O     O_R   0.488080 0.253500 0.386430 -0.492953
O16   O     O_R   0.722670 0.303800 0.421940 -0.522601
O17   O     O_R   0.751130 0.502220 0.613520 -0.500399
O18   O     O_R   0.478890 0.728510 0.601960 -0.483429
O19   O     O_R   0.261470 0.745430 0.587750 -0.517026
O20   O     O_2   0.091293 0.645640 0.201596 -0.561975
O21   O     O_R   0.489400 0.255930 0.561910 -0.504211
O22   O     O_R   0.723890 0.306050 0.584610 -0.534464
O23   O     O_3   0.500010 0.500010 0.500020 -0.293794
O24   O     O_R   0.171100 0.914680 0.053100 -0.516551
O25   O     O_R   0.941680 0.184840 0.050710 -0.501932
O26   O     O_R   0.922080 0.403420 0.072610 -0.521064
O27   O     O_R   0.196880 0.369150 0.083850 -0.449203

loop_
_geom_bond_atom_site_label_1
_geom_bond_atom_site_label_2
_ccdc_geom_bond_type
C34   H1    S    
C38   O10   A    
C27   C29   T    
C1    O4    A    
C41   C42   T    
C19   C20   A    
C18   C26   A    
Cr5   O27   S    
Cr2   O12   S    
Cr5   O11   S    
C44   H10   S    
C7    C8    A    
C4    O14   A    
C29   C36   S    
Cr4   O11   S    
C16   O1    A    
C33   C42   S    
Cr4   O6    S    
C12   C43   A    
Cr1   O1    S    
C30   C31   T    
C26   C39   S    
C23   C49   A    
C4    C41   S    
Cr3   O22   S    
C19   C26   A    
C15   C37   S    
C44   O20   D    
C47   H5    S    
C33   O2    A    
C7    C14   A    
Cr1   O17   S    
C20   H16   S    
Cr3   O21   S    
C2    C16   S    
C9    C10   A    
Cr2   O23   S    
Cr6   O2    S    
C2    C34   A    
C16   O16   A    
C21   C22   A    
C46   H3    S    
C37   O8    A    
Cr3   O16   S    
C18   C25   A    
C25   H2    S    
Cr2   O13   S    
C22   H17   S    
C11   H12   S    
Cr5   O7    S    
C10   H11   S    
C15   C20   A    
C35   O3    A    
Cr3   O15   S    
C24   C25   A    
C12   C46   A    
C3    C8    A    
C36   O7    A    
Cr2   O14   S    
C38   O5    A    
Cr4   O24   S    
C17   C21   A    
C39   O21   A    
C5    C9    A    
Cr2   O19   S    
C6    C14   A    
C47   C48   A    
C12   C23   A    
C3    C35   S    
C27   C40   S    
C17   C18   A    
C28   O19   A    
C34   C45   A    
C7    C44   S    
Cr6   O9    S    
C43   C45   A    
C8    H9    S    
Cr6   O3    S    
C48   C49   A    
C22   C24   A    
Cr5   O26   S    
C19   H14   S    
C39   O12   A    
C40   O22   A    
Cr6   O10   S    
Cr1   O4    S    
C1    O13   A    
C15   C17   A    
C46   C47   A    
C45   H4    S    
C49   H7    S    
C9    H8    S    
C3    C5    A    
C36   O6    A    
C32   O26   A    
C4    O15   A    
Cr4   O25   S    
C31   C38   S    
C21   H15   S    
C33   O27   A    
C28   C30   S    
Cr4   O5    S    
C6    C13   A    
C11   C13   A    
Cr1   O23   S    
C48   H6    S    
C5    C6    A    
C32   C43   S    
C32   O25   A    
Cr3   O23   S    
C28   O18   A    
C24   H18   S    
C10   C11   A    
Cr1   O18   S    
C37   O9    A    
C2    C23   A    
C1    C14   S    
C40   O17   A    
Cr6   O11   S    
C35   O24   A    
Cr5   O8    S    
C13   H13   S    
