data_mof_unit_63640.cif
_audit_creation_date              2012-12-10T17:20:06-0500
_audit_creation_method            fapswitch 2.2
_symmetry_space_group_name_H-M    P1
_symmetry_Int_Tables_number       1
_space_group_crystal_system       triclinic
_cell_length_a                    10.248632
_cell_length_b                    10.448307
_cell_length_c                    14.142026
_cell_angle_alpha                 90.74322
_cell_angle_beta                  82.35287
_cell_angle_gamma                 94.166902
_cell_volume                      1496.89656911

loop_
_atom_site_label
_atom_site_type_symbol
_atom_type_description
_atom_site_fract_x
_atom_site_fract_y
_atom_site_fract_z
_atom_type_partial_charge
C1    C     C_R   0.553636 0.734350 0.489187 0.931041
C2    C     C_1   0.499747 0.499927 0.042686 0.071183
C3    C     C_2   0.578059 0.870019 0.467221 -0.413205
C4    C     C_2   0.421113 0.129115 0.483323 -0.380368
C5    C     C_2   0.495279 0.929229 0.418637 0.365156
C6    C     C_2   0.502174 0.067719 0.417860 0.355805
C7    C     C_2   0.925389 0.478493 0.525384 0.422589
C8    C     C_2   0.071079 0.471972 0.500825 0.442917
C9    C     C_R   0.446206 0.265497 0.500078 0.934457
C10   C     C_R   0.500409 0.500087 0.670585 0.859320
C11   C     C_R   0.499567 0.499823 0.329407 0.901396
C12   C     C_1   0.501153 0.499945 0.772037 -0.102354
C13   C     C_1   0.498872 0.499929 0.227980 -0.060593
C14   C     C_1   0.501101 0.499901 0.857336 0.049600
C15   C     C_1   0.499031 0.499947 0.142678 0.070110
C16   C     C_1   0.500468 0.499904 0.957325 0.065299
Cl1   Cl    Cl    0.111008 0.698613 0.580526 -0.404712
Cl2   Cl    Cl    0.902683 0.457791 0.343776 -0.373526
Cl3   Cl    Cl    0.621807 0.145861 0.331884 -0.473845
Cl4   Cl    Cl    0.373319 0.848359 0.357755 -0.478748
Cl5   Cl    Cl    0.123021 0.336865 0.433929 -0.478608
Cl6   Cl    Cl    0.868395 0.497648 0.647365 -0.522621
H1    H     H_    0.341749 0.076446 0.528724 0.176126
H2    H     H_    0.658478 0.924154 0.496091 0.172106
N1    N     N_2   0.842710 0.448890 0.464580 0.041286
N2    N     N_2   0.157290 0.551110 0.535420 0.038173
O1    O     O_R   0.431050 0.692470 0.507130 -0.536113
O2    O     O_R   0.568950 0.307530 0.492870 -0.561749
O3    O     O_R   0.651120 0.659650 0.484400 -0.575666
O4    O     O_R   0.348880 0.340350 0.515600 -0.563643
O5    O     O_R   0.389940 0.516410 0.637650 -0.583677
O6    O     O_R   0.610060 0.483590 0.362350 -0.538785
O7    O     O_R   0.610010 0.483590 0.614920 -0.554435
O8    O     O_R   0.389990 0.516410 0.385080 -0.554144
Zn1   Zn    Zn3+2 0.353060 0.521920 0.515180 1.127199
Zn2   Zn    Zn3+2 0.646940 0.478080 0.484820 1.133029

loop_
_geom_bond_atom_site_label_1
_geom_bond_atom_site_label_2
_ccdc_geom_bond_type
C2    C15   S    
C7    Cl6   S    
C2    C16   T    
C7    N1    D    
C3    C5    D    
C1    O3    A    
C8    Cl5   S    
C7    C8    S    
C5    Cl4   S    
C6    Cl3   S    
C11   C13   S    
O3    Zn2   S    
C3    H2    S    
Cl2   N1    S    
C10   C12   S    
C9    O4    A    
Cl1   N2    S    
O6    Zn2   S    
C12   C14   T    
C11   O6    A    
C10   O7    A    
C14   C16   S    
C13   C15   T    
C5    C6    S    
O5    Zn1   S    
N1    Zn2   S    
O4    Zn1   S    
N2    Zn1   S    
O7    Zn2   S    
C8    N2    D    
O2    Zn2   S    
C4    C6    D    
O8    Zn1   S    
C1    O1    A    
C4    H1    S    
O1    Zn1   S    
C4    C9    S    
C10   O5    A    
C11   O8    A    
C9    O2    A    
C1    C3    S    
