data_mof_unit_6821.cif
_audit_creation_date              2012-10-26T19:00:24-0400
_audit_creation_method            fapswitch 2.2
_symmetry_space_group_name_H-M    P1
_symmetry_Int_Tables_number       1
_space_group_crystal_system       triclinic
_cell_length_a                    23.547933
_cell_length_b                    9.107366
_cell_length_c                    7.802491
_cell_angle_alpha                 89.987226
_cell_angle_beta                  90.001373
_cell_angle_gamma                 90.001032
_cell_volume                      1673.31940276

loop_
_atom_site_label
_atom_site_type_symbol
_atom_type_description
_atom_site_fract_x
_atom_site_fract_y
_atom_site_fract_z
_atom_type_partial_charge
C1    C     C_R   0.500000 0.220064 0.500012 0.554972
C2    C     C_R   0.791106 0.499993 0.500000 0.273808
C3    C     C_R   0.390705 0.500000 0.499999 0.542905
C4    C     C_R   0.609295 0.499998 0.500001 0.542914
C5    C     C_R   0.298324 0.542555 0.647044 -0.124644
C6    C     C_R   0.701676 0.457507 0.647098 -0.124678
C7    C     C_R   0.298326 0.457410 0.352947 -0.124650
C8    C     C_R   0.701674 0.542474 0.352910 -0.124679
C9    C     C_R   0.328249 0.499991 0.499996 -0.016257
C10   C     C_R   0.671751 0.499992 0.500005 -0.016296
C11   C     C_R   0.880696 0.630822 0.511220 0.386239
C12   C     C_R   0.500000 0.779936 0.499988 0.554973
C13   C     C_R   0.119338 0.369214 0.512672 0.386239
C14   C     C_R   0.880691 0.369148 0.488752 0.386209
C15   C     C_R   0.119343 0.630713 0.487269 0.386234
C16   C     C_R   0.940192 0.366196 0.495414 0.028604
C17   C     C_R   0.059838 0.633711 0.493569 0.028581
C18   C     C_R   0.940198 0.633762 0.504543 0.028608
C19   C     C_R   0.059833 0.366225 0.506362 0.028586
C20   C     C_R   0.970064 0.499976 0.499973 -0.028766
C21   C     C_R   0.029968 0.499971 0.499966 -0.028801
C22   C     C_R   0.970408 0.233330 0.497716 -0.126703
C23   C     C_1   0.500000 0.065358 0.500016 -0.039953
C24   C     C_R   0.029614 0.766585 0.493712 -0.126690
C25   C     C_R   0.970419 0.766622 0.502236 -0.126704
C26   C     C_R   0.029603 0.233356 0.506226 -0.126689
C27   C     C_3   0.207770 0.593576 0.806028 -0.372704
C28   C     C_3   0.792202 0.406630 0.806257 -0.372713
C29   C     C_3   0.207775 0.406316 0.193963 -0.372704
C30   C     C_3   0.792195 0.593382 0.193753 -0.372712
C31   C     C_1   0.500000 0.934642 0.499984 -0.039952
C32   C     C_R   0.238888 0.544633 0.647700 0.036151
C33   C     C_R   0.761113 0.455420 0.647776 0.036220
C34   C     C_R   0.238890 0.455298 0.352286 0.036142
C35   C     C_R   0.761111 0.544562 0.352227 0.036212
C36   C     C_R   0.208908 0.499961 0.499989 0.273941
Cu1   Cu    Cu3+1 0.500000 0.500000 0.669080 1.027742
Cu2   Cu    Cu3+1 0.500000 0.500000 0.330920 1.027741
H1    H     H_    0.948342 0.129258 0.495407 0.159651
H2    H     H_    0.177188 0.507249 0.845459 0.140316
H3    H     H_    0.237387 0.615151 0.913864 0.120697
H4    H     H_    0.815645 0.303375 0.780876 0.188021
H5    H     H_    0.822822 0.492921 0.845485 0.140153
H6    H     H_    0.762563 0.385282 0.914103 0.120450
H7    H     H_    0.184296 0.303160 0.219731 0.187618
H8    H     H_    0.177176 0.492600 0.154538 0.140322
H9    H     H_    0.237394 0.384785 0.086124 0.120683
H10   H     H_    0.815581 0.696735 0.219103 0.188035
H11   H     H_    0.822864 0.507182 0.154620 0.140182
H12   H     H_    0.051666 0.870645 0.489569 0.159710
H13   H     H_    0.762557 0.614555 0.085854 0.120409
H14   H     H_    0.948357 0.870698 0.504557 0.159640
H15   H     H_    0.051652 0.129292 0.510373 0.159698
H16   H     H_    0.321335 0.576370 0.760674 0.135765
H17   H     H_    0.678663 0.423764 0.760765 0.135774
H18   H     H_    0.321338 0.423601 0.239321 0.135765
H19   H     H_    0.678659 0.576227 0.239247 0.135782
H20   H     H_    0.184268 0.696697 0.780266 0.187599
N1    N     N_R   0.852208 0.499986 0.499995 -0.400608
N2    N     N_R   0.147815 0.499962 0.499976 -0.400713
N3    N     N_1   0.500000 0.500000 0.076820 -0.082250
N4    N     N_1   0.500000 0.500000 0.923180 -0.082250
O1    O     O_R   0.500000 0.288390 0.642760 -0.493901
O2    O     O_2   0.148571 0.242735 0.531058 -0.488552
O3    O     O_2   0.851471 0.242542 0.471421 -0.488589
O4    O     O_2   0.148581 0.757188 0.468887 -0.488538
O5    O     O_R   0.500000 0.711610 0.357240 -0.493901
O6    O     O_R   0.500000 0.711610 0.642760 -0.493908
O7    O     O_R   0.500000 0.288390 0.357240 -0.493909
O8    O     O_R   0.417880 0.500000 0.642820 -0.504314
O9    O     O_R   0.582120 0.500000 0.357180 -0.504325
O10   O     O_R   0.582120 0.500000 0.642820 -0.504323
O11   O     O_R   0.417880 0.500000 0.357180 -0.504315
O12   O     O_2   0.851483 0.757433 0.528548 -0.488603

loop_
_geom_bond_atom_site_label_1
_geom_bond_atom_site_label_2
_ccdc_geom_bond_type
C2    C35   A    
C30   H13   S    
C11   C18   A    
C15   N2    A    
C6    H17   S    
Cu1   N4    S    
C13   N2    A    
C14   N1    A    
C12   O6    A    
C30   C35   S    
C29   H9    S    
C32   C36   A    
C30   H10   S    
C19   C21   A    
Cu1   O6    S    
C15   C17   A    
C19   C26   A    
C18   C20   A    
C5    C32   A    
Cu2   O7    S    
Cu1   O8    S    
C18   C25   A    
C7    H18   S    
C11   N1    A    
C1    O1    A    
Cu1   O1    S    
C24   H12   S    
C12   O5    A    
C17   C24   A    
C13   C19   A    
C5    H16   S    
C3    O8    A    
C24   C25   A    
C2    N1    S    
C15   O4    S    
C29   C34   S    
C11   O12   S    
C17   C21   A    
C29   H7    S    
C8    C35   A    
C23   C31   T    
C5    C9    A    
Cu1   Cu2   S    
C3    C9    S    
C8    H19   S    
C27   H3    S    
C27   H2    S    
C16   C20   A    
C20   C21   A    
C2    C33   A    
C30   H11   S    
C28   C33   S    
C1    C23   S    
C12   C31   S    
C7    C34   A    
C14   C16   A    
C4    C10   S    
C26   H15   S    
C4    O10   A    
C7    C9    A    
Cu2   O9    S    
C16   C22   A    
C27   C32   S    
C36   N2    S    
C27   H20   S    
C6    C10   A    
C28   H5    S    
C6    C33   A    
C29   H8    S    
Cu2   N3    S    
C25   H14   S    
C13   O2    S    
C22   H1    S    
C28   H4    S    
C14   O3    S    
C28   H6    S    
C34   C36   A    
N3    N4    T    
C3    O11   A    
C1    O7    A    
Cu2   O5    S    
C8    C10   A    
C22   C26   A    
Cu1   O10   S    
C4    O9    A    
Cu2   O11   S    
