data_mof_unit_38986.cif
_audit_creation_date              2012-12-10T20:40:58-0500
_audit_creation_method            fapswitch 2.2
_symmetry_space_group_name_H-M    P1
_symmetry_Int_Tables_number       1
_space_group_crystal_system       triclinic
_cell_length_a                    27.737964
_cell_length_b                    10.684534
_cell_length_c                    9.842617
_cell_angle_alpha                 90.21028
_cell_angle_beta                  89.979855
_cell_angle_gamma                 90.17342
_cell_volume                      2916.99585623

loop_
_atom_site_label
_atom_site_type_symbol
_atom_type_description
_atom_site_fract_x
_atom_site_fract_y
_atom_site_fract_z
_atom_type_partial_charge
C1    C     C_R   0.499027 0.260084 0.499861 0.885501
C2    C     C_R   0.277971 0.503327 0.624348 -0.098586
C3    C     C_R   0.252870 0.496323 0.501511 0.319410
C4    C     C_R   0.101635 0.493739 0.502944 -0.051524
C5    C     C_R   0.127334 0.383239 0.474404 -0.021878
C6    C     C_R   0.102356 0.272733 0.445981 -0.135586
C7    C     C_R   0.127133 0.605014 0.531200 -0.021867
C8    C     C_R   0.353303 0.499298 0.500419 -0.041943
C9    C     C_R   0.646568 0.496918 0.500368 -0.050950
C10   C     C_R   0.974403 0.377309 0.486489 0.046689
C11   C     C_R   0.974266 0.606784 0.519570 0.046856
C12   C     C_R   0.405991 0.499981 0.500052 0.876837
C13   C     C_R   0.949111 0.491758 0.502913 0.070416
C14   C     C_R   0.947581 0.264623 0.478653 -0.215637
C15   C     C_R   0.897603 0.265068 0.480424 -0.137989
C16   C     C_R   0.872476 0.377560 0.490823 -0.019630
C17   C     C_R   0.898040 0.491211 0.502601 -0.052376
C18   C     C_R   0.872406 0.604351 0.514008 -0.021342
C19   C     C_R   0.822017 0.601739 0.513260 0.504046
C20   C     C_R   0.822046 0.379240 0.490901 0.501899
C21   C     C_R   0.721989 0.475367 0.379307 -0.109567
C22   C     C_R   0.671935 0.478912 0.378408 -0.222798
C23   C     C_R   0.498783 0.739997 0.500262 0.888383
C24   C     C_R   0.671866 0.510900 0.623090 -0.241344
C25   C     C_R   0.721899 0.507730 0.623523 -0.108407
C26   C     C_R   0.746872 0.490198 0.501712 0.328116
C27   C     C_R   0.025423 0.378988 0.479417 0.045942
C28   C     C_R   0.050562 0.493003 0.503143 0.071056
C29   C     C_R   0.025255 0.606334 0.526980 0.046070
C30   C     C_R   0.052388 0.270421 0.448096 -0.216324
C31   C     C_R   0.101978 0.714706 0.560234 -0.135750
C32   C     C_R   0.947354 0.718900 0.526984 -0.215527
C33   C     C_R   0.897408 0.717383 0.524650 -0.137712
C34   C     C_R   0.593968 0.499460 0.500039 0.870931
C35   C     C_R   0.052024 0.715560 0.558597 -0.216521
C36   C     C_R   0.497315 0.063877 0.622003 0.113558
C37   C     C_R   0.493064 0.128680 0.500479 -0.116604
C38   C     C_R   0.481053 0.064248 0.380763 -0.224994
C39   C     C_R   0.480862 0.934728 0.381056 -0.217927
C40   C     C_R   0.492083 0.871294 0.501562 -0.098908
C41   C     C_R   0.495161 0.936821 0.623620 0.108413
C42   C     C_3   0.529133 0.926569 0.741249 -0.509069
C43   C     C_3   0.532446 0.069182 0.738164 -0.107874
C44   C     C_R   0.483149 0.398533 0.070836 0.212863
C45   C     C_R   0.177752 0.386203 0.474275 0.505007
C46   C     C_R   0.521074 0.594469 0.072404 -0.134112
C47   C     C_R   0.521169 0.594310 0.928278 -0.135130
C48   C     C_R   0.483199 0.398534 0.928163 0.200738
C49   C     C_3   0.433587 0.345177 0.921610 -0.497598
C50   C     C_3   0.433387 0.345605 0.075911 -0.503772
C51   C     C_R   0.177538 0.603688 0.530389 0.505029
C52   C     C_R   0.277706 0.491071 0.378114 -0.098517
C53   C     C_R   0.327780 0.492773 0.377387 -0.211815
C54   C     C_R   0.328037 0.504754 0.623992 -0.212256
H1    H     H_    0.346837 0.510398 0.720179 0.155144
H2    H     H_    0.258126 0.486111 0.283065 0.139354
H3    H     H_    0.120826 0.800894 0.584559 0.191988
H4    H     H_    0.963722 0.810306 0.531660 0.138531
H5    H     H_    0.653086 0.524718 0.718440 0.164009
H6    H     H_    0.878446 0.805736 0.531047 0.189774
H7    H     H_    0.741355 0.519266 0.718135 0.137941
H8    H     H_    0.035536 0.803274 0.585635 0.141370
H9    H     H_    0.474803 0.112824 0.286087 0.164793
H10   H     H_    0.474725 0.885250 0.286321 0.170112
H11   H     H_    0.510476 0.891424 0.833574 0.182281
H12   H     H_    0.258600 0.507492 0.719800 0.139420
H13   H     H_    0.562757 0.875330 0.716230 0.198807
H14   H     H_    0.515832 0.112454 0.829843 0.145951
H15   H     H_    0.537319 0.671781 0.127085 0.148810
H16   H     H_    0.537689 0.671082 0.874144 0.145484
H17   H     H_    0.407129 0.411088 0.876824 0.216352
H18   H     H_    0.433233 0.249475 0.876919 0.198932
H19   H     H_    0.406913 0.412056 0.120152 0.214927
H20   H     H_    0.432589 0.250113 0.120108 0.195522
H21   H     H_    0.121356 0.187054 0.421682 0.192085
H22   H     H_    0.653189 0.467210 0.282677 0.163580
H23   H     H_    0.741520 0.462054 0.285098 0.137435
H24   H     H_    0.964044 0.173591 0.473925 0.138538
H25   H     H_    0.036046 0.182143 0.421575 0.141357
H26   H     H_    0.346374 0.488917 0.280825 0.153525
N1    N     N_R   0.201545 0.495352 0.502065 -0.358478
N2    N     N_R   0.798161 0.490286 0.501958 -0.357852
N3    N     N_R   0.499670 0.499140 0.142800 -0.106622
N4    N     N_R   0.499670 0.499180 0.857150 -0.106264
O1    O     O_R   0.500010 0.316790 0.614690 -0.625448
O2    O     O_2   0.796983 0.271109 0.480581 -0.561601
O3    O     O_2   0.202474 0.709750 0.556695 -0.550600
O4    O     O_2   0.796933 0.709490 0.523191 -0.555792
O5    O     O_R   0.500000 0.316760 0.385350 -0.623117
O6    O     O_R   0.428760 0.500040 0.614660 -0.620951
O7    O     O_R   0.428750 0.500000 0.385310 -0.621644
O8    O     O_R   0.500000 0.683240 0.614650 -0.617609
O9    O     O_R   0.499990 0.683210 0.385310 -0.628625
O10   O     O_R   0.571250 0.500000 0.614690 -0.629601
O11   O     O_R   0.571240 0.499960 0.385340 -0.618072
O12   O     O_2   0.202902 0.280969 0.447522 -0.550925
Zn1   Zn    Zn3+2 0.500000 0.500020 0.653130 0.941139
Zn2   Zn    Zn3+2 0.500000 0.499980 0.346870 0.946577
C55   C     C_3   0.583493 0.122620 0.709520 -0.364860
C56   C     C_3   0.607472 0.081483 0.575176 -0.356277
C57   C     C_3   0.659318 0.129227 0.567187 -0.802200
H27   H     H_    0.660207 0.232859 0.574970 0.265209
H28   H     H_    0.681252 0.088798 0.650502 0.268541
H29   H     H_    0.675485 0.101182 0.468482 0.265547
H30   H     H_    0.608002 0.978096 0.565466 0.228489
H31   H     H_    0.587596 0.119922 0.487182 0.221425
H32   H     H_    0.581405 0.226434 0.711397 0.213456
H33   H     H_    0.607008 0.094909 0.795699 0.204533
H34   H     H_    0.878712 0.176338 0.473704 0.189673

loop_
_geom_bond_atom_site_label_1
_geom_bond_atom_site_label_2
_ccdc_geom_bond_type
C10   C27   A    
C44   C48   A    
C21   C26   A    
C40   C41   A    
C57   H27   S    
C20   N2    A    
C41   C42   S    
C15   H34   S    
C12   O7    A    
C22   H22   S    
C44   N3    A    
O11   Zn2   S    
C6    H21   S    
C55   H33   S    
C56   H30   S    
N4    Zn1   S    
C12   O6    A    
C36   C37   A    
C43   C55   S    
C50   H20   S    
C5    C6    A    
C9    C22   A    
C15   C16   A    
C18   C19   A    
C46   H15   S    
C46   C47   A    
C43   H14   S    
N3    Zn2   S    
C20   O2    S    
C3    N1    S    
C42   H11   S    
C32   H4    S    
C19   N2    A    
C51   N1    A    
O6    Zn1   S    
C16   C20   A    
C26   N2    S    
C21   C22   A    
C27   C30   A    
C36   C41   A    
C4    C7    A    
C4    C28   A    
O8    Zn1   S    
C1    O1    A    
C38   C39   A    
C7    C31   A    
C53   H26   S    
C24   C25   A    
C19   O4    S    
C2    C54   A    
C50   H19   S    
C51   O3    S    
C39   C40   A    
C16   C17   A    
O10   Zn1   S    
C25   C26   A    
C5    C45   A    
C49   H18   S    
C23   O9    A    
C47   H16   S    
C37   C38   A    
C39   H10   S    
C55   C56   S    
C8    C12   S    
C17   C18   A    
C25   H7    S    
C47   N4    A    
C34   O11   A    
C30   H25   S    
C48   C49   S    
C6    C30   A    
C11   C32   A    
C57   H29   S    
C10   C14   A    
C42   H13   S    
C31   C35   A    
C42   C43   S    
C8    C54   A    
C52   C53   A    
C38   H9    S    
C44   C50   S    
C54   H1    S    
C28   C29   A    
C1    O5    A    
C14   C15   A    
C45   N1    A    
C34   O10   A    
C4    C5    A    
C2    H12   S    
C10   C13   A    
C8    C53   A    
C3    C52   A    
C9    C24   A    
C1    C37   S    
C33   H6    S    
C55   H32   S    
C29   C35   A    
C56   H31   S    
C13   C17   A    
O5    Zn2   S    
C32   C33   A    
C31   H3    S    
C2    C3    A    
C7    C51   A    
C11   C13   A    
C9    C34   S    
C52   H2    S    
C24   H5    S    
C56   C57   S    
C35   H8    S    
C14   H24   S    
O7    Zn2   S    
C18   C33   A    
O1    Zn1   S    
C46   N3    A    
C48   N4    A    
C11   C29   A    
C57   H28   S    
C49   C50   S    
C49   H17   S    
C21   H23   S    
C27   C28   A    
C23   O8    A    
C36   C43   S    
C45   O12   S    
O9    Zn2   S    
C23   C40   S    
