data_mof_unit_19158.cif
_audit_creation_date              2012-12-10T18:55:59-0500
_audit_creation_method            fapswitch 2.2
_symmetry_space_group_name_H-M    P1
_symmetry_Int_Tables_number       1
_space_group_crystal_system       triclinic
_cell_length_a                    10.634172
_cell_length_b                    9.975626
_cell_length_c                    14.99893
_cell_angle_alpha                 90.0196
_cell_angle_beta                  92.116329
_cell_angle_gamma                 90.275954
_cell_volume                      1590.02038487

loop_
_atom_site_label
_atom_site_type_symbol
_atom_type_description
_atom_site_fract_x
_atom_site_fract_y
_atom_site_fract_z
_atom_type_partial_charge
C1    C     C_R   0.260774 0.499544 0.499968 0.977092
C2    C     C_R   0.936906 0.556592 0.571689 0.433660
C3    C     C_R   0.932097 0.445882 0.424152 0.298228
C4    C     C_R   0.067552 0.552752 0.574701 0.286631
C5    C     C_R   0.608111 0.581448 0.100865 0.326830
C6    C     C_R   0.591111 0.413229 0.908768 0.369580
C7    C     C_R   0.444805 0.603613 0.907263 0.334574
C8    C     C_R   0.431037 0.421431 0.088694 0.373596
C9    C     C_R   0.598836 0.581987 0.193701 0.347391
C10   C     C_R   0.580950 0.406779 0.815388 0.265983
C11   C     C_R   0.440457 0.601805 0.813902 0.353988
C12   C     C_R   0.739115 0.500394 0.499202 0.987680
C13   C     C_R   0.427368 0.416183 0.181943 0.254258
C14   C     C_R   0.508009 0.500291 0.232761 -0.253474
C15   C     C_R   0.507145 0.502326 0.768861 -0.251808
C16   C     C_R   0.522241 0.501898 0.049583 -0.071814
C17   C     C_R   0.519815 0.507768 0.953311 -0.085566
C18   C     C_R   0.871620 0.501821 0.497451 -0.295644
C19   C     C_R   0.128111 0.497787 0.501260 -0.307606
C20   C     C_R   0.500595 0.500003 0.328352 1.036908
C21   C     C_R   0.501382 0.500285 0.672110 1.014854
C22   C     C_R   0.589484 0.071264 0.548487 0.408230
C23   C     C_R   0.410757 0.928559 0.451225 0.423295
C24   C     C_R   0.410651 0.070447 0.451349 0.398673
C25   C     C_R   0.589258 0.929430 0.548707 0.416787
C26   C     C_R   0.062895 0.443142 0.426950 0.425517
H1    H     H_    0.656950 0.226673 0.608859 0.409137
H2    H     H_    0.649039 0.227531 0.804437 0.373871
H3    H     H_    0.329685 0.758839 0.804073 0.410816
H4    H     H_    0.329425 0.251778 0.188115 0.372002
H5    H     H_    0.073125 0.355403 0.310181 0.411437
H6    H     H_    0.927019 0.645589 0.688060 0.406408
H7    H     H_    0.779426 0.426674 0.347343 0.353075
H8    H     H_    0.217519 0.561451 0.653913 0.358596
H9    H     H_    0.345087 0.773613 0.388524 0.379601
H10   H     H_    0.344177 0.225171 0.390144 0.417295
H11   H     H_    0.655044 0.774931 0.610882 0.395802
H12   H     H_    0.701506 0.645281 0.998199 0.358229
H13   H     H_    0.742531 0.305470 0.922532 0.361694
H14   H     H_    0.388242 0.693156 0.015794 0.353764
H15   H     H_    0.265667 0.341916 0.065080 0.360735
H16   H     H_    0.738310 0.709778 0.212861 0.407720
N1    N     N_R   0.500000 0.857200 0.500000 -0.272904
N2    N     N_R   0.500000 0.142800 0.500000 -0.281724
O1    O     O_R   0.316770 0.614620 0.499990 -0.616330
O2    O     O_3   0.318750 0.866063 0.399224 -0.661024
O3    O     O_3   0.318551 0.131957 0.399525 -0.636629
O4    O     O_3   0.681199 0.867828 0.600689 -0.645463
O5    O     O_3   0.699087 0.661076 0.063153 -0.722267
O6    O     O_3   0.670002 0.329995 0.958632 -0.709317
O7    O     O_3   0.374548 0.698868 0.950420 -0.723324
O8    O     O_3   0.345360 0.353018 0.033711 -0.711914
O9    O     O_3   0.679070 0.657677 0.248738 -0.723348
O10   O     O_3   0.643275 0.310397 0.768173 -0.724663
O11   O     O_3   0.369335 0.693309 0.764494 -0.704559
O12   O     O_R   0.683230 0.385380 0.500010 -0.632136
O13   O     O_3   0.345144 0.332849 0.225078 -0.708298
O14   O     O_3   0.130702 0.392265 0.357477 -0.693260
O15   O     O_3   0.869295 0.607641 0.641240 -0.724626
O16   O     O_3   0.867567 0.395550 0.349370 -0.720221
O17   O     O_3   0.132297 0.600627 0.649970 -0.704579
O18   O     O_R   0.683230 0.614620 0.500010 -0.592509
O19   O     O_R   0.316770 0.385380 0.499990 -0.606389
O20   O     O_R   0.499990 0.614660 0.369060 -0.621872
O21   O     O_R   0.500010 0.385340 0.630940 -0.614339
O22   O     O_R   0.500010 0.614660 0.630940 -0.606896
O23   O     O_R   0.499990 0.385340 0.369060 -0.618044
O24   O     O_3   0.682119 0.133552 0.599863 -0.647492
Zn1   Zn    Zn3+2 0.500000 0.653120 0.500000 1.020446
Zn2   Zn    Zn3+2 0.500000 0.346880 0.500000 1.005662

loop_
_geom_bond_atom_site_label_1
_geom_bond_atom_site_label_2
_ccdc_geom_bond_type
C6    C10   A    
C2    C4    A    
C23   C24   A    
C19   C26   A    
C20   O20   A    
C8    C13   A    
C13   C14   A    
C21   O22   A    
C2    C18   A    
H14   O7    S    
C12   O18   A    
C8    O8    S    
H15   O8    S    
C4    C19   A    
O19   Zn2   S    
C9    C14   A    
O23   Zn2   S    
C22   O24   S    
C3    O16   S    
C25   N1    A    
C7    O7    S    
N1    Zn1   S    
H12   O5    S    
O20   Zn1   S    
C6    O6    S    
H11   O4    S    
C7    C11   A    
C26   O14   S    
C25   O4    S    
C5    O5    S    
C5    C9    A    
C12   O12   A    
C11   C15   A    
H10   O3    S    
C10   O10   S    
C1    O19   A    
H5    O14   S    
H7    O16   S    
O12   Zn2   S    
C10   C15   A    
C3    C26   A    
H16   O9    S    
C24   N2    A    
C1    C19   S    
O22   Zn1   S    
C13   O13   S    
C20   O23   A    
C24   O3    S    
O21   Zn2   S    
H4    O13   S    
C14   C20   S    
C15   C21   S    
H13   O6    S    
C9    O9    S    
N2    Zn2   S    
C11   O11   S    
C3    C18   A    
C8    C16   A    
C1    O1    A    
C12   C18   S    
C23   O2    S    
C6    C17   A    
H2    O10   S    
C2    O15   S    
C5    C16   A    
H1    O24   S    
H3    O11   S    
H6    O15   S    
C21   O21   A    
C23   N1    A    
H9    O2    S    
O1    Zn1   S    
C4    O17   S    
H8    O17   S    
C22   N2    A    
O18   Zn1   S    
C16   C17   S    
C7    C17   A    
C22   C25   A    
