data_mof_unit_48797.cif
_audit_creation_date              2012-12-10T18:11:06-0500
_audit_creation_method            fapswitch 2.2
_symmetry_space_group_name_H-M    P1
_symmetry_Int_Tables_number       1
_space_group_crystal_system       triclinic
_cell_length_a                    10.73399
_cell_length_b                    9.425718
_cell_length_c                    10.621801
_cell_angle_alpha                 89.776816
_cell_angle_beta                  90.030845
_cell_angle_gamma                 89.988127
_cell_volume                      1074.65836125

loop_
_atom_site_label
_atom_site_type_symbol
_atom_type_description
_atom_site_fract_x
_atom_site_fract_y
_atom_site_fract_z
_atom_type_partial_charge
C1    C     C_R   0.259659 0.499838 0.499247 0.814558
C2    C     C_3   0.499989 0.501136 0.122426 0.017419
C3    C     C_3   0.071345 0.562967 0.623661 0.403555
C4    C     C_3   0.070931 0.344883 0.486167 0.386385
C5    C     C_3   0.927433 0.564772 0.622501 -0.433098
C6    C     C_3   0.928183 0.344944 0.488342 -0.379250
C7    C     C_3   0.071407 0.588296 0.386301 -0.345590
C8    C     C_3   0.121538 0.499235 0.498667 -0.038865
C9    C     C_3   0.877850 0.499012 0.498778 -0.032713
C10   C     C_3   0.927634 0.586364 0.385392 -0.349094
C11   C     C_3   0.590603 0.083360 0.595275 -0.212933
C12   C     C_3   0.590721 0.915845 0.595178 -0.220704
C13   C     C_3   0.376251 0.083516 0.536288 -0.371756
C14   C     C_3   0.376282 0.916209 0.536463 -0.320662
C15   C     C_3   0.533530 0.084170 0.377343 0.585360
C16   C     C_3   0.533387 0.916751 0.377318 0.586852
C17   C     C_R   0.499906 0.500348 0.259315 0.807335
C18   C     C_R   0.740002 0.499782 0.499186 0.821693
C19   C     C_R   0.499962 0.499656 0.740775 0.775748
C20   C     C_3   0.500256 0.635112 0.040014 -0.120842
C21   C     C_3   0.397502 0.433368 0.042332 -0.178862
C22   C     C_3   0.397759 0.567200 0.957630 -0.182649
C23   C     C_3   0.500012 0.498884 0.877672 0.015636
C24   C     C_3   0.602511 0.566655 0.957761 -0.176469
C25   C     C_3   0.499759 0.364912 0.960087 -0.133654
C26   C     C_3   0.602250 0.432823 0.042476 -0.144032
Cu1   Cu    Cu3+1 0.499860 0.642410 0.500060 0.966382
Cu2   Cu    Cu3+1 0.499860 0.357590 0.500060 0.963346
H1    H     H_    0.314160 0.621976 0.919589 0.153038
H2    H     H_    0.892334 0.697296 0.389587 0.227623
H3    H     H_    0.893756 0.539487 0.295639 0.175131
H4    H     H_    0.567987 0.121212 0.691579 0.146934
H5    H     H_    0.568342 0.877109 0.691519 0.152658
H6    H     H_    0.346902 0.123088 0.630273 0.192120
H7    H     H_    0.347315 0.876166 0.630679 0.230295
H8    H     H_    0.464420 0.120670 0.306164 0.026213
H9    H     H_    0.464104 0.880894 0.306318 -0.002185
H10   H     H_    0.305000 0.120746 0.467774 0.214704
H11   H     H_    0.304745 0.879207 0.468329 0.184029
H12   H     H_    0.500510 0.745810 0.075363 0.152610
H13   H     H_    0.313701 0.379021 0.080255 0.152668
H14   H     H_    0.686308 0.621002 0.919821 0.132459
H15   H     H_    0.499558 0.254217 0.924720 0.134175
H16   H     H_    0.685819 0.378011 0.080532 0.156039
H17   H     H_    0.104286 0.497378 0.704469 0.045698
H18   H     H_    0.105416 0.278573 0.565909 0.071658
H19   H     H_    0.893119 0.675698 0.631898 0.220576
H20   H     H_    0.891724 0.294041 0.401343 0.257443
H21   H     H_    0.104417 0.699917 0.393222 0.206381
H22   H     H_    0.107283 0.545307 0.295861 0.189011
N1    N     N_3   0.500250 0.143650 0.502780 -0.186523
N2    N     N_3   0.500250 0.856350 0.502780 -0.194067
O1    O     O_R   0.317570 0.620260 0.500070 -0.563075
O2    O     O_R   0.317570 0.379740 0.500070 -0.584249
O3    O     O_R   0.499850 0.620240 0.316900 -0.570627
O4    O     O_R   0.499850 0.379760 0.316900 -0.552368
O5    O     O_R   0.682190 0.620260 0.500030 -0.555016
O6    O     O_R   0.682190 0.379740 0.500030 -0.557288
O7    O     O_R   0.499910 0.620280 0.683200 -0.589273
O8    O     O_R   0.499910 0.379720 0.683200 -0.606188
H23   H     H_    0.686170 0.122165 0.574581 0.195565
H24   H     H_    0.686321 0.877313 0.574303 0.198717
F1    F     F_    0.648775 0.135206 0.339323 -0.630818
F2    F     F_    0.648472 0.865726 0.339107 -0.629957
F3    F     F_    0.115468 0.699863 0.640934 -0.671511
F4    F     F_    0.112096 0.283800 0.374960 -0.668098
H25   H     H_    0.891555 0.503992 0.704928 0.112589
H26   H     H_    0.895557 0.280288 0.569885 0.129810

loop_
_geom_bond_atom_site_label_1
_geom_bond_atom_site_label_2
_ccdc_geom_bond_type
C7    C10   S    
C19   C23   S    
C23   C24   S    
Cu1   O1    S    
C5    C9    S    
C22   H1    S    
C15   N1    S    
C19   O8    A    
C1    C8    S    
C24   H14   S    
C9    C10   S    
C10   H2    S    
C18   O5    A    
C15   F1    S    
C16   H9    S    
C5    H25   S    
C19   O7    A    
C20   C24   S    
C25   H15   S    
C2    C21   S    
C6    H26   S    
Cu2   O4    S    
C26   H16   S    
C13   H6    S    
C2    C26   S    
Cu1   O7    S    
C21   C22   S    
C2    C17   S    
C4    F4    S    
C5    H19   S    
C17   O4    A    
C13   H10   S    
C3    F3    S    
C6    H20   S    
C12   H5    S    
C1    O2    A    
C21   H13   S    
C17   O3    A    
C7    H22   S    
Cu1   Cu2   S    
C12   N2    S    
C24   C26   S    
C11   H4    S    
Cu2   O6    S    
Cu2   O8    S    
C11   H23   S    
C13   N1    S    
Cu2   O2    S    
C20   H12   S    
Cu2   N1    S    
Cu1   O3    S    
C11   N1    S    
C23   C25   S    
C20   C22   S    
C2    C20   S    
C15   C16   S    
C21   C25   S    
C9    C18   S    
C7    C8    S    
C6    C9    S    
C12   H24   S    
Cu1   N2    S    
C7    H21   S    
C4    C6    S    
C3    C8    S    
Cu1   O5    S    
C14   H7    S    
C1    O1    A    
C22   C23   S    
C15   H8    S    
C4    H18   S    
C16   F2    S    
C4    C8    S    
C25   C26   S    
C13   C14   S    
C10   H3    S    
C3    H17   S    
C14   N2    S    
C16   N2    S    
C11   C12   S    
C14   H11   S    
C18   O6    A    
C3    C5    S    
