data_mof_unit_6458.cif
_audit_creation_date              2012-12-11T16:53:23-0500
_audit_creation_method            fapswitch 2.2
_symmetry_space_group_name_H-M    P1
_symmetry_Int_Tables_number       1
_space_group_crystal_system       triclinic
_cell_length_a                    14.871616
_cell_length_b                    14.755203
_cell_length_c                    17.046555
_cell_angle_alpha                 108.943571
_cell_angle_beta                  106.205192
_cell_angle_gamma                 107.901587
_cell_volume                      3053.89901222

loop_
_atom_site_label
_atom_site_type_symbol
_atom_type_description
_atom_site_fract_x
_atom_site_fract_y
_atom_site_fract_z
_atom_type_partial_charge
C1    C     C_R   0.094481 0.276732 0.035715 -0.138468
C2    C     C_R   0.065662 0.483468 0.253752 -0.130602
C3    C     C_R   0.279797 0.783838 0.175053 -0.133586
C4    C     C_R   0.939237 0.463019 0.734780 -0.126636
C5    C     C_R   0.742993 0.469434 0.052894 -0.123501
C6    C     C_R   0.335776 0.779116 0.252256 0.064270
C7    C     C_R   0.714935 0.545977 0.038258 0.071435
C8    C     C_R   0.975299 0.422416 0.255815 0.108874
C9    C     C_R   0.997636 0.823838 0.985713 0.056203
C10   C     C_R   0.525196 0.658365 0.047647 0.167691
C11   C     C_R   0.473497 0.601998 0.086278 0.031668
C12   C     C_R   0.032629 0.477390 0.726703 0.057861
C13   C     C_R   0.529164 0.567944 0.142411 -0.198806
C14   C     C_R   0.620616 0.564123 0.138113 -0.197249
C15   C     C_R   0.654913 0.593300 0.076989 0.032435
C16   C     C_R   0.753044 0.200409 0.812084 -0.130818
C17   C     C_R   0.614558 0.653469 0.042474 0.170753
C18   C     C_3   0.584098 0.651115 0.949982 -0.525963
C19   C     C_3   0.487026 0.657256 0.956047 -0.528948
C20   C     C_R   0.969647 0.383801 0.324197 0.082502
C21   C     C_R   0.044004 0.436141 0.641435 0.113672
C22   C     C_R   0.148128 0.457669 0.556838 -0.177140
C23   C     C_R   0.724436 0.193544 0.725190 0.062789
C24   C     C_R   0.141803 0.474496 0.639577 -0.166147
C25   C     C_R   0.954692 0.367376 0.559467 -0.241742
C26   C     C_R   0.958687 0.358625 0.476908 0.021599
C27   C     C_R   0.056553 0.407314 0.476621 0.132260
C28   C     C_R   0.301084 0.595883 0.004328 -0.159621
C29   C     C_R   0.061276 0.416185 0.399376 -0.280268
C30   C     C_R   0.873031 0.324820 0.320390 -0.363630
C31   C     C_R   0.866417 0.313643 0.397300 0.556769
C32   C     C_R   0.679149 0.097370 0.639224 0.129231
C33   C     C_R   0.443799 0.850886 0.317634 0.128680
C34   C     C_R   0.360993 0.563130 0.055285 0.082873
C35   C     C_R   0.581004 0.030317 0.395034 -0.200413
C36   C     C_R   0.496013 0.947328 0.316672 -0.183733
C37   C     C_R   0.488126 0.831988 0.391176 -0.275863
C38   C     C_R   0.566347 0.916919 0.472100 0.189107
C39   C     C_R   0.609831 0.018029 0.474914 0.180937
C40   C     C_R   0.756166 0.296622 0.735201 -0.131551
C41   C     C_R   0.670286 0.107095 0.558641 -0.265321
C42   C     C_R   0.644740 0.995918 0.636322 -0.171368
C43   C     C_R   0.590345 0.905525 0.552649 -0.223765
C44   C     C_R   0.115001 0.070959 0.952090 0.140985
C45   C     C_R   0.272706 0.687901 0.252099 -0.122337
C46   C     C_R   0.018577 0.073840 0.939371 0.040261
C47   C     C_R   0.928069 0.977300 0.877689 -0.197791
C48   C     C_R   0.935388 0.887823 0.822001 -0.185035
C49   C     C_R   0.032707 0.892545 0.827554 0.022549
C50   C     C_R   0.121466 0.981801 0.897984 0.157201
C51   C     C_3   0.218033 0.046432 0.894720 -0.490109
C52   C     C_R   0.296428 0.498565 0.079622 -0.135737
C53   C     C_3   0.211298 0.144529 0.953318 -0.506893
C54   C     C_R   0.112371 0.541666 0.813573 -0.131055
C55   C     C_R   0.921221 0.190573 0.962553 -0.115390
C56   C     C_R   0.749885 0.565670 0.975614 -0.141197
C57   C     C_R   0.011693 0.175641 0.980487 0.061477
C58   C     C_3   0.707935 0.314063 0.386617 0.156861
C59   C     C_3   0.717282 0.382189 0.480697 -0.316951
C60   C     C_3   0.642298 0.433228 0.472725 -1.007853
C61   C     C_R   0.892938 0.396938 0.176853 -0.155144
C62   C     C_R   0.083575 0.807554 0.022712 -0.123305
C63   C     C_R   0.912886 0.723764 0.941214 -0.128870
H1    H     H_    0.176297 0.296419 0.065199 0.102720
H2    H     H_    0.655050 0.525383 0.172826 0.125363
H3    H     H_    0.637659 0.723584 0.950913 0.192369
H4    H     H_    0.863312 0.426507 0.679872 0.080769
H5    H     H_    0.565989 0.574018 0.894194 0.200637
H6    H     H_    0.484984 0.733594 0.961143 0.190624
H7    H     H_    0.415281 0.584019 0.903535 0.200866
H8    H     H_    0.136872 0.457900 0.402412 0.124143
H9    H     H_    0.801762 0.292556 0.260241 0.133824
H10   H     H_    0.223673 0.493447 0.556897 0.118164
H11   H     H_    0.212860 0.523598 0.701611 0.111113
H12   H     H_    0.743178 0.621558 0.949925 0.105917
H13   H     H_    0.880396 0.330179 0.560497 0.151013
H14   H     H_    0.702170 0.184247 0.559830 0.116749
H15   H     H_    0.729531 0.135794 0.829335 0.082408
H16   H     H_    0.655287 0.985789 0.697760 0.112663
H17   H     H_    0.615229 0.107142 0.396143 0.167937
H18   H     H_    0.558689 0.827972 0.551164 0.124889
H19   H     H_    0.466361 0.962596 0.259194 0.115667
H20   H     H_    0.453039 0.756075 0.391148 0.113661
H21   H     H_    0.851266 0.972403 0.867043 0.120616
H22   H     H_    0.865248 0.817102 0.770773 0.128770
H23   H     H_    0.813312 0.338662 0.149894 0.089621
H24   H     H_    0.286172 0.036243 0.930958 0.186160
H25   H     H_    0.206221 0.037503 0.824772 0.200560
H26   H     H_    0.276318 0.191133 0.022884 0.184782
H27   H     H_    0.328592 0.661898 0.988980 0.100762
H28   H     H_    0.195500 0.192386 0.917163 0.207331
H29   H     H_    0.733777 0.321285 0.682934 0.084978
H30   H     H_    0.320384 0.471932 0.130463 0.082376
H31   H     H_    0.195111 0.570099 0.833250 0.092915
H32   H     H_    0.843011 0.128595 0.928955 0.081295
H33   H     H_    0.293853 0.650881 0.294845 0.083298
H34   H     H_    0.164056 0.866137 0.055837 0.093565
H35   H     H_    0.625756 0.253211 0.343886 0.126169
H36   H     H_    0.725115 0.364815 0.351512 0.087906
H37   H     H_    0.699750 0.331636 0.515630 0.192710
H38   H     H_    0.798132 0.446315 0.522935 0.195031
H39   H     H_    0.659168 0.485386 0.439024 0.266220
H40   H     H_    0.651565 0.482428 0.542050 0.267295
H41   H     H_    0.560509 0.370767 0.432441 0.264326
H42   H     H_    0.835931 0.705294 0.895292 0.089261
H43   H     H_    0.145159 0.506320 0.297255 0.085061
H44   H     H_    0.309433 0.836155 0.146989 0.083064
H45   H     H_    0.728743 0.434824 0.097626 0.092624
H46   H     H_    0.496301 0.531542 0.179827 0.123511
N1    N     N_R   0.055640 0.348550 0.045600 -0.040180
N2    N     N_R   0.811290 0.303400 0.871650 -0.038981
N3    N     N_R   0.205180 0.552990 0.997660 -0.037089
N4    N     N_R   0.814810 0.361830 0.823710 -0.038200
N5    N     N_R   0.201660 0.494570 0.045600 -0.037401
N6    N     N_R   0.068420 0.560530 0.871650 -0.040549
N7    N     N_R   0.948050 0.295860 0.997660 -0.039457
N8    N     N_R   0.185190 0.638170 0.176290 -0.038906
N9    N     N_R   0.798340 0.505430 0.954400 -0.041501
N10   N     N_R   0.931580 0.439470 0.128350 -0.039814
N11   N     N_R   0.051950 0.704140 0.002340 -0.040939
N12   N     N_R   0.944360 0.651450 0.954400 -0.040598
N13   N     N_R   0.039170 0.492150 0.176290 -0.040472
N14   N     N_R   0.188710 0.696600 0.128350 -0.037860
N15   N     N_R   0.794820 0.447010 0.002340 -0.041926
N16   N     N_R   0.960830 0.507850 0.823710 -0.038286
Ni1   Ni    Ni4+2 0.119330 0.493420 0.109950 0.207309
Ni2   Ni    Ni4+2 0.880670 0.506580 0.890050 0.214013
Ni3   Ni    Ni4+2 0.872590 0.372590 0.000000 0.213191
Ni4   Ni    Ni4+2 0.127410 0.627410 0.000000 0.207902
O1    O     O_3   0.770640 0.259113 0.395200 -0.680099

loop_
_geom_bond_atom_site_label_1
_geom_bond_atom_site_label_2
_ccdc_geom_bond_type
C59   C60   S    
C6    C45   A    
C61   N10   A    
C35   C36   A    
C58   H35   S    
C3    C6    A    
N3    N5    A    
C39   C41   A    
C20   C30   A    
C28   N3    A    
C5    N15   A    
C26   C27   A    
C8    C20   S    
C4    N16   A    
N12   Ni2   S    
C31   O1    S    
C41   H14   S    
C30   C31   A    
N5    Ni1   S    
C27   C29   A    
C55   N7    A    
C10   C17   A    
C18   H5    S    
C23   C40   A    
C35   H17   S    
C33   C36   A    
C18   C19   S    
C13   H46   S    
C44   C53   S    
C47   C48   A    
C36   H19   S    
C53   H28   S    
C32   C41   A    
N3    Ni4   S    
C4    C12   A    
C60   H40   S    
N8    Ni1   S    
C62   N11   A    
C8    C61   A    
N15   Ni3   S    
N10   Ni3   S    
C7    C15   S    
C28   C34   A    
C26   C31   A    
C56   H12   S    
C13   C14   A    
N14   Ni4   S    
C59   H37   S    
C3    N14   A    
C7    C56   A    
C60   H39   S    
C63   N12   A    
C44   C46   A    
C50   C51   S    
C20   C29   A    
C2    N13   A    
C9    C62   A    
C59   H38   S    
C55   H32   S    
C10   C11   A    
C51   H24   S    
C5    C7    A    
C3    H44   S    
C58   C59   S    
C12   C21   S    
C2    H43   S    
C33   C37   A    
N11   Ni4   S    
C51   C53   S    
N13   Ni1   S    
C35   C39   A    
C37   C38   A    
C1    C57   A    
C1    N1    A    
C62   H34   S    
C40   N4    A    
C14   C15   A    
C10   C19   S    
C54   N6    A    
C17   C18   S    
C52   H30   S    
N2    N4    A    
N9    N15   A    
C47   H21   S    
C40   H29   S    
N1    Ni1   S    
C48   C49   A    
C16   C23   A    
C22   C27   A    
C55   C57   A    
C46   C57   S    
C53   H26   S    
C43   H18   S    
C22   C24   A    
C19   H6    S    
C63   H42   S    
N9    Ni2   S    
N7    Ni3   S    
C1    H1    S    
N1    N7    A    
N11   N12   A    
N6    Ni4   S    
N10   N13   A    
C45   N8    A    
C15   C17   A    
C21   C25   A    
C46   C47   A    
C9    C63   A    
C56   N9    A    
C11   C34   S    
C2    C8    A    
C58   H36   S    
C51   H25   S    
C4    H4    S    
C30   H9    S    
N4    Ni2   S    
C52   N5    A    
C18   H3    S    
C34   C52   A    
N6    N16   A    
C6    C33   S    
C25   H13   S    
C23   C32   S    
C25   C26   A    
C38   C43   A    
C11   C13   A    
C24   H11   S    
C38   C39   A    
C58   O1    S    
C14   H2    S    
C16   H15   S    
N8    N14   A    
C54   H31   S    
C61   H23   S    
C42   H16   S    
C44   C50   A    
C49   C50   A    
C42   C43   A    
C21   C24   A    
N2    Ni3   S    
N16   Ni2   S    
C32   C42   A    
C48   H22   S    
C37   H20   S    
C19   H7    S    
C28   H27   S    
C22   H10   S    
C60   H41   S    
C45   H33   S    
C12   C54   A    
C16   N2    A    
C29   H8    S    
C5    H45   S    
