data_mof_unit_19501.cif
_audit_creation_date              2012-12-11T15:35:55-0500
_audit_creation_method            fapswitch 2.2
_symmetry_space_group_name_H-M    P1
_symmetry_Int_Tables_number       1
_space_group_crystal_system       triclinic
_cell_length_a                    7.042577
_cell_length_b                    12.541388
_cell_length_c                    34.958122
_cell_angle_alpha                 90.000019
_cell_angle_beta                  91.301938
_cell_angle_gamma                 90.000697
_cell_volume                      3086.8332555

loop_
_atom_site_label
_atom_site_type_symbol
_atom_type_description
_atom_site_fract_x
_atom_site_fract_y
_atom_site_fract_z
_atom_type_partial_charge
O1    O     O_R   0.379730 0.148600 0.662710 -0.542324
O2    O     O_R   0.620270 0.851400 0.337290 -0.541497
O3    O     O_R   0.120270 0.648600 0.337290 -0.543084
O4    O     O_R   0.879730 0.351400 0.662710 -0.540771
O5    O     O_R   0.722480 0.134490 0.741330 -0.543150
O6    O     O_R   0.277520 0.865510 0.258670 -0.535724
O7    O     O_R   0.777520 0.634490 0.258670 -0.543235
O8    O     O_R   0.222480 0.365510 0.741330 -0.535641
O9    O     O_R   0.892880 0.345890 0.741600 -0.536247
O10   O     O_R   0.107120 0.654110 0.258400 -0.539028
O11   O     O_R   0.607120 0.845890 0.258400 -0.536231
O12   O     O_R   0.392880 0.154110 0.741600 -0.539049
C1    C     C_R   0.552720 0.107265 0.752526 0.682137
C2    C     C_R   0.446555 0.887952 0.245456 0.674405
C3    C     C_R   0.947278 0.607268 0.247472 0.681952
C4    C     C_R   0.053445 0.387954 0.754543 0.674582
O13   O     O_R   0.709490 0.135560 0.662990 -0.541855
O14   O     O_R   0.290510 0.864440 0.337010 -0.540183
O15   O     O_R   0.790510 0.635560 0.337010 -0.541057
O16   O     O_R   0.209490 0.364440 0.662990 -0.540971
C5    C     C_R   0.539034 0.105202 0.652673 0.689542
C6    C     C_R   0.460829 0.894906 0.347293 0.696221
C7    C     C_R   0.960828 0.605121 0.347305 0.690201
C8    C     C_R   0.039039 0.394833 0.652689 0.695608
O17   O     O_3   0.552800 0.316610 0.702160 -0.367886
O18   O     O_3   0.447200 0.683390 0.297840 -0.373210
O19   O     O_3   0.947200 0.816610 0.297840 -0.367885
O20   O     O_3   0.052800 0.183390 0.702160 -0.373198
V1    V     V_3+5 0.827630 0.234380 0.702160 1.428438
V2    V     V_3+5 0.172370 0.765620 0.297840 1.435953
V3    V     V_3+5 0.672370 0.734380 0.297840 1.428324
V4    V     V_3+5 0.327630 0.265620 0.702160 1.436080
C9    C     C_R   0.978586 0.650316 0.919553 0.563369
C10   C     C_R   0.998310 0.304649 0.097922 0.587078
C11   C     C_R   0.521397 0.150308 0.080443 0.563372
C12   C     C_R   0.501669 0.804641 0.902074 0.587075
O21   O     O_2   0.942716 0.546948 0.925433 -0.571470
O22   O     O_2   0.007232 0.409516 0.091085 -0.562742
O23   O     O_2   0.557264 0.046941 0.074563 -0.571470
O24   O     O_2   0.492741 0.909508 0.908910 -0.562740
N1    N     N_R   0.016012 0.685947 0.883202 -0.540894
N2    N     N_R   0.980501 0.268585 0.134821 -0.534107
N3    N     N_R   0.483975 0.185939 0.116794 -0.540893
N4    N     N_R   0.519483 0.768577 0.865174 -0.534111
C13   C     C_R   0.047164 0.792849 0.878161 0.527518
C14   C     C_R   0.972705 0.160946 0.141166 0.544500
C15   C     C_R   0.452826 0.292841 0.121836 0.527512
C16   C     C_R   0.527287 0.660938 0.858830 0.544505
C17   C     C_R   0.933659 0.633977 0.814819 -0.050694
C18   C     C_R   0.087145 0.346316 0.198447 -0.032509
C19   C     C_R   0.566342 0.133971 0.185177 -0.050708
C20   C     C_R   0.412850 0.846306 0.801547 -0.032437
C21   C     C_R   0.939466 0.561129 0.784008 -0.176497
C22   C     C_R   0.088181 0.433193 0.224212 -0.220431
C23   C     C_R   0.560541 0.061123 0.215987 -0.176594
C24   C     C_R   0.411820 0.933183 0.775782 -0.220423
C25   C     C_R   0.141595 0.445585 0.821852 -0.177064
C26   C     C_R   0.816894 0.508006 0.190664 -0.198578
C27   C     C_R   0.358395 0.945578 0.178147 -0.177039
C28   C     C_R   0.683094 0.008002 0.809334 -0.198536
C29   C     C_R   0.128802 0.516369 0.853023 -0.118947
C30   C     C_R   0.823943 0.424998 0.163999 -0.108826
C31   C     C_R   0.371186 0.016361 0.146975 -0.118957
C32   C     C_R   0.676043 0.924993 0.835999 -0.108812
C33   C     C_R   0.024726 0.611908 0.850449 0.329777
C34   C     C_R   0.962847 0.345210 0.166213 0.338058
C35   C     C_R   0.475266 0.111900 0.149547 0.329803
C36   C     C_R   0.537141 0.845203 0.833783 0.338040
C37   C     C_R   0.006213 0.829797 0.946386 -0.032127
C38   C     C_R   0.990484 0.124283 0.072314 -0.026749
C39   C     C_R   0.493771 0.329790 0.053610 -0.032124
C40   C     C_R   0.509500 0.624276 0.927682 -0.026744
C41   C     C_R   0.971287 0.721118 0.951225 -0.084874
C42   C     C_R   0.011898 0.233620 0.066719 -0.096874
C43   C     C_R   0.528696 0.221110 0.048771 -0.084875
C44   C     C_R   0.488082 0.733613 0.933277 -0.096875
C45   C     C_R   0.924216 0.684886 0.987369 -0.191482
C46   C     C_R   0.051170 0.270912 0.030330 -0.237235
C47   C     C_R   0.575765 0.184879 0.012627 -0.191490
C48   C     C_R   0.448809 0.770904 0.969666 -0.237236
C49   C     C_R   0.046472 0.864821 0.909353 0.016030
C50   C     C_R   0.963716 0.088639 0.109987 0.016272
C51   C     C_R   0.453514 0.364813 0.090643 0.016019
C52   C     C_R   0.536273 0.588632 0.890010 0.016269
C53   C     C_R   0.044438 0.465990 0.787066 -0.037948
C54   C     C_R   0.954895 0.516439 0.219984 -0.053572
C55   C     C_R   0.455563 0.965985 0.212931 -0.037926
C56   C     C_R   0.545099 0.016433 0.780013 -0.053566
H1    H     H_    0.224314 0.373267 0.825266 0.109190
H2    H     H_    0.708367 0.568681 0.187167 0.131835
H3    H     H_    0.275672 0.873261 0.174733 0.109201
H4    H     H_    0.791618 0.068681 0.812833 0.131814
H5    H     H_    0.200123 0.496114 0.879584 0.149786
H6    H     H_    0.725677 0.425689 0.140270 0.148564
H7    H     H_    0.299859 0.996105 0.120415 0.149784
H8    H     H_    0.774304 0.925685 0.859728 0.148554
H9    H     H_    0.888937 0.601644 0.991498 0.160410
H10   H     H_    0.080476 0.354927 0.026336 0.159206
H11   H     H_    0.611042 0.101637 0.008497 0.160411
H12   H     H_    0.419501 0.854918 0.973660 0.159207
C57   C     C_R   0.955435 0.940875 0.046907 0.079462
C58   C     C_R   0.044042 0.013158 0.972044 0.079791
C59   C     C_R   0.544549 0.440868 0.953089 0.079462
C60   C     C_R   0.455937 0.513150 0.027952 0.079784
C61   C     C_R   0.038407 0.088939 0.003254 -0.043873
C62   C     C_R   0.954818 0.865743 0.015360 -0.062536
C63   C     C_R   0.461573 0.588931 0.996742 -0.043876
C64   C     C_R   0.545166 0.365736 0.984636 -0.062525
C65   C     C_R   0.994580 0.051031 0.040560 0.002231
C66   C     C_R   0.001802 0.903199 0.978208 -0.001679
C67   C     C_R   0.505403 0.551024 0.959436 0.002227
C68   C     C_R   0.498181 0.403191 0.021788 -0.001676
C69   C     C_R   0.921288 0.911053 0.085270 -0.153936
C70   C     C_R   0.087042 0.042342 0.934094 -0.151630
C71   C     C_R   0.578699 0.411047 0.914727 -0.153939
C72   C     C_R   0.412933 0.542333 0.065902 -0.151615
C73   C     C_R   0.927885 0.981491 0.115826 -0.169889
C74   C     C_R   0.086563 0.971604 0.903824 -0.163180
C75   C     C_R   0.572104 0.481484 0.884170 -0.169885
C76   C     C_R   0.413419 0.471595 0.096172 -0.163177
O25   O     O_2   0.973279 0.123232 0.177275 -0.550517
O26   O     O_2   0.078327 0.831177 0.843000 -0.566336
O27   O     O_2   0.526723 0.623225 0.822721 -0.550491
O28   O     O_2   0.421670 0.331169 0.156997 -0.566349
C77   C     C_R   0.911915 0.753860 0.018763 0.409998
C78   C     C_R   0.071664 0.201717 0.999141 0.424617
C79   C     C_R   0.588067 0.253854 0.981233 0.409998
C80   C     C_R   0.428315 0.701708 0.000855 0.424619
H13   H     H_    0.190414 0.434301 0.247820 0.127163
H14   H     H_    0.863997 0.579993 0.757533 0.122439
H15   H     H_    0.309598 0.934287 0.752172 0.127205
H16   H     H_    0.636021 0.079987 0.242461 0.122419
H17   H     H_    0.187458 0.282122 0.203125 0.177670
H18   H     H_    0.853457 0.706739 0.810874 0.163164
H19   H     H_    0.312537 0.782111 0.796869 0.177681
H20   H     H_    0.646546 0.206732 0.189121 0.163150
H21   H     H_    0.901218 0.951251 0.144263 0.155951
H22   H     H_    0.120924 0.001711 0.875733 0.159471
H23   H     H_    0.598773 0.451245 0.855733 0.155949
H24   H     H_    0.379056 0.501701 0.124263 0.159474
H25   H     H_    0.884291 0.834349 0.093989 0.178858
H26   H     H_    0.125591 0.118803 0.925297 0.182040
H27   H     H_    0.615698 0.334344 0.906007 0.178859
H28   H     H_    0.374373 0.618793 0.074699 0.182036
C81   C     C_R   0.969364 0.527222 0.377738 -0.029076
C82   C     C_R   0.027864 0.472201 0.622121 -0.028331
C83   C     C_R   0.527796 0.027834 0.622110 -0.026630
C84   C     C_R   0.469346 0.972784 0.377735 -0.030613
C85   C     C_R   0.890980 0.353629 0.402192 -0.168775
C86   C     C_R   0.072912 0.649900 0.597963 -0.167629
C87   C     C_R   0.571984 0.850042 0.597974 -0.167402
C88   C     C_R   0.391126 0.146407 0.402188 -0.169001
C89   C     C_R   0.910630 0.422365 0.371324 -0.184302
C90   C     C_R   0.069160 0.579497 0.628690 -0.185562
C91   C     C_R   0.568508 0.920478 0.628696 -0.187502
C92   C     C_R   0.410782 0.077670 0.371320 -0.182670
C93   C     C_R   0.007977 0.563963 0.414540 -0.215391
C94   C     C_R   0.990141 0.434675 0.585400 -0.213333
C95   C     C_R   0.490310 0.065382 0.585384 -0.212571
C96   C     C_R   0.507730 0.936006 0.414543 -0.216138
C97   C     C_R   0.976089 0.498781 0.446433 0.079804
C98   C     C_R   0.996155 0.503306 0.553725 0.080048
C99   C     C_R   0.495891 0.996699 0.553721 0.079669
C100  C     C_R   0.475820 0.001197 0.446433 0.080228
C101  C     C_R   0.920594 0.391327 0.439655 0.131156
C102  C     C_R   0.039682 0.612417 0.560561 0.130532
C103  C     C_R   0.538951 0.887537 0.560566 0.130396
C104  C     C_R   0.420556 0.108686 0.439651 0.131243
C105  C     C_R   0.993766 0.537688 0.484603 0.054746
C106  C     C_R   0.967458 0.465931 0.515593 0.054369
C107  C     C_R   0.467212 0.034068 0.515589 0.054334
C108  C     C_R   0.493306 0.962276 0.484603 0.054815
C109  C     C_R   0.912601 0.359418 0.507454 -0.196523
C110  C     C_R   0.032298 0.646375 0.492803 -0.195721
C111  C     C_R   0.531417 0.853547 0.492808 -0.195698
C112  C     C_R   0.412523 0.140605 0.507449 -0.196601
C113  C     C_R   0.889741 0.323273 0.470216 -0.203809
C114  C     C_R   0.053543 0.682711 0.530064 -0.201400
C115  C     C_R   0.552512 0.817204 0.530072 -0.201486
C116  C     C_R   0.389752 0.176756 0.470211 -0.203808
H29   H     H_    0.845627 0.241431 0.465333 0.140869
H30   H     H_    0.084381 0.766397 0.534991 0.140617
H31   H     H_    0.582993 0.733480 0.535004 0.140597
H32   H     H_    0.345773 0.258619 0.465325 0.140849
H33   H     H_    0.966491 0.350163 0.582634 0.097829
H34   H     H_    0.055048 0.645400 0.417080 0.100900
H35   H     H_    0.554698 0.854551 0.417090 0.100820
H36   H     H_    0.467157 0.149935 0.582603 0.097899
H37   H     H_    0.100448 0.608119 0.657387 0.108029
H38   H     H_    0.877456 0.394570 0.342598 0.108757
H39   H     H_    0.377748 0.105495 0.342592 0.108462
H40   H     H_    0.599543 0.891836 0.657400 0.108498
H41   H     H_    0.846071 0.272163 0.396899 0.126586
H42   H     H_    0.106390 0.733034 0.603296 0.126244
H43   H     H_    0.605045 0.766862 0.603316 0.126633
H44   H     H_    0.346372 0.227897 0.396891 0.126250
H45   H     H_    0.880916 0.301704 0.529159 0.129356
H46   H     H_    0.044562 0.706763 0.471155 0.128669
H47   H     H_    0.543385 0.793137 0.471159 0.128675
H48   H     H_    0.380853 0.198320 0.529155 0.129350
O29   O     O_3   0.833809 0.710600 0.050994 -0.580398
C117  C     C_3   0.975526 0.653952 0.071469 0.072988
H49   H     H_    0.099891 0.705231 0.077456 0.158991
H50   H     H_    0.018060 0.581560 0.055492 0.188482
C118  C     C_3   0.901639 0.622484 0.110182 -0.704167
H51   H     H_    0.015443 0.579875 0.126408 0.229000
H52   H     H_    0.861721 0.692067 0.127736 0.172967
H53   H     H_    0.774474 0.572020 0.105778 0.248952
O30   O     O_3   0.157889 0.242640 0.967240 -0.602377
C119  C     C_3   0.060485 0.330919 0.950960 0.133633
H54   H     H_    0.151691 0.402354 0.954630 0.161464
H55   H     H_    0.922808 0.349295 0.964215 0.163479
C120  C     C_3   0.026146 0.311354 0.908216 -0.722507
H56   H     H_    0.162699 0.301926 0.893446 0.183844
H57   H     H_    0.937734 0.239922 0.903237 0.235507
H58   H     H_    0.946531 0.377388 0.894811 0.238613
O31   O     O_3   0.666170 0.210594 0.949002 -0.580398
C121  C     C_3   0.524450 0.153947 0.928527 0.072990
H59   H     H_    0.400088 0.205227 0.922540 0.158991
H60   H     H_    0.481913 0.081555 0.944504 0.188481
C122  C     C_3   0.598335 0.122479 0.889814 -0.704179
H61   H     H_    0.484531 0.079869 0.873589 0.228998
H62   H     H_    0.638253 0.192063 0.872260 0.172960
H63   H     H_    0.725500 0.072017 0.894218 0.248955
O32   O     O_3   0.342091 0.742630 0.032756 -0.602379
C123  C     C_3   0.439494 0.830911 0.049035 0.133628
H64   H     H_    0.348287 0.902344 0.045366 0.161463
H65   H     H_    0.577171 0.849290 0.035780 0.163484
C124  C     C_3   0.473835 0.811347 0.091780 -0.722486
H66   H     H_    0.337282 0.801922 0.106551 0.183837
H67   H     H_    0.562240 0.739913 0.096758 0.235509
H68   H     H_    0.553456 0.877380 0.105184 0.238613

loop_
_geom_bond_atom_site_label_1
_geom_bond_atom_site_label_2
_ccdc_geom_bond_type
C26   C30   A    
C103  C115  A    
C107  C108  A    
C94   H33   S    
O1    C5    A    
C96   C100  A    
O13   V1    S    
C105  C106  A    
O3    C7    A    
C10   N2    A    
C17   H18   S    
C83   C95   A    
C11   N3    A    
C16   O27   S    
C28   C56   A    
C122  H63   S    
C23   H16   S    
C120  H56   S    
C7    C81   S    
C62   C77   A    
C77   O29   S    
C18   C22   A    
C17   C33   A    
C61   C78   A    
C25   H1    S    
C32   C36   A    
C47   H11   S    
O20   V1    S    
O9    C4    A    
C63   C80   A    
C124  H68   S    
O10   C3    A    
C84   C96   A    
O4    C8    A    
O11   C2    A    
C87   C103  A    
C24   C56   A    
C57   C65   A    
C113  H29   S    
C86   C102  A    
C31   H7    S    
C101  C113  A    
C58   C61   A    
C59   C67   A    
O29   C117  S    
C87   H43   S    
C5    C83   S    
C85   C89   A    
C86   H42   S    
C61   C65   A    
C12   C44   A    
C85   H41   S    
C14   C50   A    
C42   C46   A    
C88   C92   A    
C25   C53   A    
C80   O32   S    
C117  C118  S    
C98   C106  A    
C46   H10   S    
C105  C110  A    
C14   O25   S    
C45   H9    S    
C59   C64   A    
C76   H24   S    
C15   C51   A    
C83   C91   A    
C72   C76   A    
C110  C114  A    
C39   C51   A    
O4    V1    S    
C20   C36   A    
C108  C111  A    
O9    V1    S    
C123  H65   S    
C97   C105  A    
O17   V4    S    
C118  H52   S    
C40   C67   A    
O15   V3    S    
O18   V3    S    
O8    C4    A    
C122  H62   S    
C60   C72   A    
O12   V4    S    
O19   V2    S    
C21   C53   A    
C112  H48   S    
C102  C114  A    
C26   C54   A    
C12   N4    A    
C88   C104  A    
C95   H36   S    
O16   V4    S    
O32   C123  S    
C123  H64   S    
C115  H31   S    
C89   H38   S    
C28   H4    S    
O17   V1    S    
C48   H12   S    
C71   H27   S    
C110  H46   S    
O7    V3    S    
C117  H49   S    
C88   H44   S    
C109  H45   S    
O8    V4    S    
O16   C8    A    
C12   O24   S    
C85   C101  A    
C93   H34   S    
C32   H8    S    
C72   H28   S    
C4    C53   S    
C60   C68   A    
C30   C34   A    
O15   C7    A    
C27   H3    S    
C99   C107  A    
C48   C80   A    
C19   C23   A    
O31   C121  S    
C118  H51   S    
O19   V3    S    
C49   C74   A    
C78   O30   S    
O1    V4    S    
O13   C5    A    
C16   C52   A    
O2    V3    S    
C87   C91   A    
C51   C76   A    
O3    V2    S    
C11   O23   S    
C31   C35   A    
C38   C42   A    
C124  H66   S    
C58   C70   A    
C38   C65   A    
C29   C33   A    
O6    C2    A    
C122  H61   S    
C81   C93   A    
C19   H20   S    
O10   V2    S    
C121  H60   S    
C15   O28   S    
C82   C90   A    
O20   V4    S    
C99   C103  A    
C11   C43   A    
C39   C68   A    
O30   C119  S    
C40   C44   A    
N3    C35   S    
C40   C52   A    
C37   C41   A    
C18   C34   A    
C111  H47   S    
C70   C74   A    
C117  H50   S    
C26   H2    S    
C3    C54   S    
C69   C73   A    
C100  C104  A    
C9    C41   A    
O6    V2    S    
C90   H37   S    
C10   C42   A    
O18   V2    S    
C119  H55   S    
C30   H6    S    
N2    C14   A    
O14   V2    S    
C95   C99   A    
C27   C31   A    
N4    C36   S    
C123  C124  S    
O5    V1    S    
C93   C97   A    
C45   C77   A    
C79   O31   S    
C121  C122  S    
C22   C54   A    
C62   C66   A    
C118  H53   S    
C64   C68   A    
C57   C62   A    
C70   H26   S    
C100  C108  A    
C47   C79   A    
N1    C13   A    
C10   O22   S    
C63   C67   A    
C22   H13   S    
C73   H21   S    
C44   C48   A    
C6    C84   S    
C18   H17   S    
C2    C55   S    
N1    C33   S    
C25   C29   A    
C120  H58   S    
C82   C94   A    
C13   O26   S    
C114  H30   S    
C119  C120  S    
C107  C112  A    
C37   C66   A    
C71   C75   A    
C59   C71   A    
C50   C73   A    
C28   C32   A    
C9    N1    A    
O14   C6    A    
C120  H57   S    
C75   H23   S    
C124  H67   S    
N4    C16   A    
C104  C116  A    
O2    C6    A    
C58   C66   A    
C39   C43   A    
C121  H59   S    
C19   C35   A    
N3    C15   A    
C52   C75   A    
C17   C21   A    
O5    C1    A    
C1    C56   S    
O7    C3    A    
C81   C89   A    
C69   H25   S    
C9    O21   S    
C98   C102  A    
C13   C49   A    
C64   C79   A    
C23   C55   A    
C57   C69   A    
C38   C50   A    
C27   C55   A    
C24   H15   S    
C37   C49   A    
C91   H40   S    
C94   C98   A    
O11   V3    S    
C92   H39   S    
C20   C24   A    
C112  C116  A    
O12   C1    A    
C111  C115  A    
C119  H54   S    
C86   C90   A    
N2    C34   S    
C20   H19   S    
C41   C45   A    
C8    C82   S    
C21   H14   S    
C84   C92   A    
C96   H35   S    
C109  C113  A    
C74   H22   S    
C29   H5    S    
C43   C47   A    
C60   C63   A    
C97   C101  A    
C116  H32   S    
C106  C109  A    
C46   C78   A    
