data_mof_unit_67586.cif
_audit_creation_date              2013-03-05T15:46:15-0500
_audit_creation_method            fapswitch 2.2
_symmetry_space_group_name_H-M    P1
_symmetry_Int_Tables_number       1
_space_group_crystal_system       triclinic
_cell_length_a                    10.968994
_cell_length_b                    11.042311
_cell_length_c                    9.899115
_cell_angle_alpha                 107.692928
_cell_angle_beta                  99.032082
_cell_angle_gamma                 89.969934
_cell_volume                      1126.71314039

loop_
_atom_site_label
_atom_site_type_symbol
_atom_site_description
_atom_site_fract_x
_atom_site_fract_y
_atom_site_fract_z
_atom_type_partial_charge
O1    O     O_R   0.511820 0.332340 0.577400 -0.529765
O2    O     O_R   0.474400 0.295500 0.332650 -0.595728
C1    C     C_R   0.493528 0.255151 0.444538 0.780233
O3    O     O_R   0.336400 0.518400 0.622370 -0.534754
O4    O     O_R   0.298980 0.481560 0.377620 -0.554298
C2    C     C_R   0.260664 0.507663 0.502576 0.937978
Cu1   Cu    Cu3+1 0.522160 0.521810 0.644910 1.032946
Cu2   Cu    Cu3+1 0.477840 0.478190 0.355090 1.016938
O5    O     O_R   0.525600 0.704500 0.667350 -0.584571
O6    O     O_R   0.488180 0.667660 0.422600 -0.585516
O7    O     O_R   0.701020 0.518440 0.622380 -0.556505
O8    O     O_R   0.663600 0.481600 0.377630 -0.532133
C3    C     C_R   0.514042 0.744130 0.554134 0.831855
C4    C     C_R   0.740066 0.498512 0.500196 0.891129
C5    C     C_3   0.093596 0.514053 0.661332 0.227434
C6    C     C_3   0.951404 0.539852 0.669179 0.416471
H1    H     H_    0.866529 0.690703 0.479486 0.146119
C7    C     C_3   0.063899 0.634566 0.471678 0.681157
C8    C     C_3   0.056264 0.388669 0.388609 0.192611
C9    C     C_3   0.122503 0.512641 0.507209 -0.264710
H2    H     H_    0.052100 0.405935 0.282699 0.202519
C10   C     C_3   0.879421 0.500848 0.505085 -0.250946
C11   C     C_3   0.918130 0.605221 0.436991 -0.030043
C12   C     C_3   0.922327 0.369315 0.416861 0.150839
H3    H     H_    0.924389 0.305254 0.485005 0.148185
C13   C     C_2   0.489238 0.116342 0.418637 0.247410
C14   C     C_2   0.568590 0.062934 0.499492 0.054780
H4    H     H_    0.497353 0.945353 0.670907 0.163728
C15   C     C_2   0.522588 0.880577 0.573530 -0.369502
C16   C     C_2   0.559981 0.927262 0.475282 0.231311
H5    H     H_    0.579013 0.576627 0.150568 0.176224
N1    N     N_2   0.444530 0.445420 0.137360 -0.107957
C17   C     C_2   0.509716 0.508986 0.079801 -0.011160
H6    H     H_    0.555502 0.648338 0.924431 0.191210
N2    N     N_2   0.555520 0.554510 0.862630 -0.314744
C18   C     C_2   0.518834 0.472779 0.923215 0.360715
I1    I     I_    0.208960 0.646326 0.847674 -0.371743
O9    O     O_3   0.843466 0.319519 0.282033 -0.537764
C19   C     C_3   0.784509 0.201280 0.266193 0.092899
H7    H     H_    0.705855 0.216769 0.325946 0.152171
H8    H     H_    0.847667 0.136451 0.305034 0.155485
C20   C     C_3   0.736538 0.135897 0.107901 -0.731335
H9    H     H_    0.808737 0.138953 0.041780 0.266927
H10   H     H_    0.709515 0.034813 0.090339 0.195886
H11   H     H_    0.654767 0.184465 0.073401 0.269571
O10   O     O_3   0.104455 0.647196 0.345597 -0.592232
C21   C     C_3   0.201112 0.740186 0.371435 0.133366
H12   H     H_    0.273868 0.737025 0.460998 0.152545
H13   H     H_    0.165744 0.836510 0.394667 0.152178
C22   C     C_3   0.255633 0.720410 0.236002 -0.684204
H14   H     H_    0.185619 0.741593 0.153659 0.238153
H15   H     H_    0.338176 0.785567 0.259175 0.246300
H16   H     H_    0.282447 0.621251 0.195187 0.293335
I2    I     I_    0.850734 0.564320 0.206643 -0.255951
I3    I     I_    0.644803 0.827909 0.299526 -0.485532
I4    I     I_    0.748055 0.137897 0.598954 -0.417478
O11   O     O_3   0.400664 0.038108 0.311032 -0.606124
C23   C     C_3   0.420980 0.041359 0.174308 0.079007
H17   H     H_    0.520733 0.048107 0.167765 0.161387
H18   H     H_    0.374088 0.121640 0.147667 0.202743
C24   C     C_3   0.364750 0.922361 0.058620 -0.770277
H19   H     H_    0.264994 0.912194 0.063151 0.251896
H20   H     H_    0.374706 0.929532 0.951294 0.230129
H21   H     H_    0.412769 0.837720 0.073092 0.268791
I5    I     I_    0.527336 0.272623 0.839072 -0.254843
I6    I     I_    0.154563 0.334290 0.694589 -0.236364
I7    I     I_    0.281567 0.338332 0.040895 -0.250165
I8    I     I_    0.885915 0.435613 0.807840 -0.224855
O12   O     O_3   0.933113 0.673810 0.724318 -0.589629
C25   C     C_3   0.935712 0.732549 0.873877 0.144885
H22   H     H_    0.998175 0.819343 0.907399 0.162863
H23   H     H_    0.972823 0.675817 0.944353 0.195873
C26   C     C_3   0.808881 0.777381 0.902732 -0.767726
H24   H     H_    0.742900 0.694626 0.869769 0.289952
H25   H     H_    0.812690 0.826661 0.019304 0.218357
H26   H     H_    0.777119 0.843778 0.841209 0.245152
O13   O     O_3   0.099984 0.744937 0.595015 -0.585341
C27   C     C_3   0.034508 0.856307 0.594697 0.058387
H27   H     H_    0.954619 0.861577 0.651905 0.211044
H28   H     H_    0.997842 0.860936 0.485179 0.153999
C28   C     C_3   0.118341 0.973640 0.678016 -0.737588
H29   H     H_    0.201042 0.976470 0.627111 0.238298
H30   H     H_    0.066523 0.060421 0.680730 0.257142
H31   H     H_    0.149093 0.972844 0.790158 0.256043
O14   O     O_3   0.125234 0.279250 0.387016 -0.565358
C29   C     C_3   0.100367 0.180171 0.255018 0.135552
H32   H     H_    0.176821 0.180322 0.194585 0.182996
H33   H     H_    0.013685 0.188375 0.184640 0.167859
C30   C     C_3   0.095886 0.053052 0.285307 -0.783042
H34   H     H_    0.023403 0.049542 0.350544 0.240916
H35   H     H_    0.077121 0.973808 0.182696 0.190757
H36   H     H_    0.184990 0.039979 0.347888 0.295254

loop_
_geom_bond_atom_site_label_1
_geom_bond_atom_site_label_2
_geom_bond_distance
_ccdc_geom_bond_type
C26   H24   1.100287 S    
C8    C9    1.592659 S    
C14   I4    2.104179 S    
C28   H29   1.109484 S    
Cu1   Cu2   2.724272 S    
C21   H13   1.101645 S    
O13   C27   1.424400 S    
Cu1   O7    2.008106 S    
C13   C14   1.346729 D    
H1    C11   1.105062 S    
C3    C15   1.460968 S    
H4    C15   1.087160 S    
C8    H2    1.115368 S    
O4    C2    1.317634 A    
O7    C4    1.302134 A    
C27   H28   1.111968 S    
C23   H18   1.104088 S    
C5    C6    1.594982 S    
C17   C18   1.498166 S    
H6    N2    1.030767 S    
C24   H20   1.111087 S    
O5    C3    1.310371 A    
C19   C20   1.518995 S    
C5    I1    2.183732 S    
N2    C18   1.319571 D    
C22   H15   1.106886 S    
H5    C17   1.068532 S    
C25   H22   1.110892 S    
C6    I8    2.235123 S    
C30   H35   1.110902 S    
C23   C24   1.510945 S    
O1    Cu1   1.990806 S    
C14   C16   1.444144 S    
C26   H25   1.110259 S    
C24   H19   1.109292 S    
C20   H10   1.109144 S    
O3    Cu1   2.013764 S    
C7    O10   1.433621 S    
C28   H30   1.109332 S    
C21   C22   1.508769 S    
C5    C9    1.601855 S    
C22   H16   1.103058 S    
C29   H33   1.108112 S    
C7    C11   1.593752 S    
Cu2   N1    2.046638 S    
C12   H3    1.114075 S    
C19   H8    1.106077 S    
C19   H7    1.105462 S    
C18   I5    2.119574 S    
C23   H17   1.110074 S    
O14   C29   1.413582 S    
C5    I6    2.196015 S    
O6    C3    1.305704 A    
O1    C1    1.316238 A    
C20   H11   1.106077 S    
C24   H21   1.108465 S    
C15   C16   1.345396 D    
C12   O9    1.422639 S    
C21   H12   1.104901 S    
Cu2   O8    2.013764 S    
C25   C26   1.516653 S    
C22   H14   1.108192 S    
C30   H36   1.106337 S    
N1    I7    2.070116 S    
O3    C2    1.309883 A    
O8    C4    1.324159 A    
C26   H26   1.111014 S    
C10   C12   1.565599 S    
C20   H9    1.110384 S    
C28   H31   1.111107 S    
C11   I2    2.189775 S    
Cu1   O5    1.960973 S    
O10   C21   1.414296 S    
C6    C10   1.618633 S    
C29   H32   1.104219 S    
Cu1   N2    2.046661 S    
C1    C13   1.474705 S    
O2    Cu2   1.960973 S    
C6    O12   1.438600 S    
C8    O14   1.422552 S    
C29   C30   1.524191 S    
O4    Cu2   2.008106 S    
C2    C9    1.523823 S    
C16   I3    2.107903 S    
N1    C17   1.303890 D    
C4    C10   1.521725 S    
O2    C1    1.302381 A    
C27   H27   1.108020 S    
C27   C28   1.522526 S    
O11   C23   1.416689 S    
O9    C19   1.411412 S    
C7    O13   1.441186 S    
C8    C12   1.564605 S    
C7    C9    1.601706 S    
O12   C25   1.420029 S    
C13   O11   1.393377 S    
Cu2   O6    1.990806 S    
C10   C11   1.589190 S    
C25   H23   1.105027 S    
C30   H34   1.107763 S    
