data_mof_unit_41065.cif
_audit_creation_date              2012-12-11T17:14:12-0500
_audit_creation_method            fapswitch 2.2
_symmetry_space_group_name_H-M    P1
_symmetry_Int_Tables_number       1
_space_group_crystal_system       triclinic
_cell_length_a                    18.212313
_cell_length_b                    7.104408
_cell_length_c                    13.033259
_cell_angle_alpha                 89.999444
_cell_angle_beta                  71.811247
_cell_angle_gamma                 90.000266
_cell_volume                      1602.08249096

loop_
_atom_site_label
_atom_site_type_symbol
_atom_type_description
_atom_site_fract_x
_atom_site_fract_y
_atom_site_fract_z
_atom_type_partial_charge
O1    O     O_R   0.453880 0.506200 0.150010 -0.538566
O2    O     O_R   0.546120 0.006200 0.849990 -0.538571
O3    O     O_R   0.604080 0.177770 0.007280 -0.539680
O4    O     O_R   0.395920 0.677770 0.992720 -0.539678
C1    C     C_R   0.635871 0.344538 0.002102 0.729291
C2    C     C_R   0.364129 0.844538 0.997898 0.729289
O5    O     O_R   0.458010 0.176640 0.159130 -0.542745
O6    O     O_R   0.541990 0.676640 0.840870 -0.542740
O7    O     O_R   0.399010 0.004010 0.002930 -0.535678
O8    O     O_R   0.600990 0.504010 0.997070 -0.535675
C3    C     C_R   0.443255 0.345259 0.201585 0.689219
C4    C     C_R   0.556745 0.845260 0.798415 0.689223
O9    O     O_3   0.480810 0.338440 0.948570 -0.375176
O10   O     O_3   0.519190 0.838440 0.051430 -0.375177
V1    V     V_3+5 0.503560 0.064490 0.009540 1.409515
V2    V     V_3+5 0.496440 0.564490 0.990460 1.409522
C5    C     C_R   0.580830 0.873688 0.500755 -0.206086
C6    C     C_R   0.419168 0.373835 0.499237 -0.206078
H1    H     H_    0.660555 0.886540 0.292653 0.127244
H2    H     H_    0.339439 0.386765 0.707335 0.127244
H3    H     H_    0.547182 0.881902 0.445634 0.120455
H4    H     H_    0.452814 0.382129 0.554356 0.120455
C7    C     C_R   0.590653 0.854229 0.681007 -0.063694
C8    C     C_R   0.409346 0.354236 0.318993 -0.063692
C9    C     C_R   0.953367 0.848856 0.384089 -0.173263
C10   C     C_R   0.046637 0.348807 0.615912 -0.173268
C11   C     C_R   0.921460 0.841249 0.495638 -0.122266
C12   C     C_R   0.078545 0.341166 0.504365 -0.122266
C13   C     C_R   0.841547 0.844479 0.543531 -0.167757
C14   C     C_R   0.158455 0.344411 0.456470 -0.167761
C15   C     C_R   0.790946 0.855555 0.480125 0.082380
C16   C     C_R   0.209055 0.355552 0.519875 0.082377
C17   C     C_R   0.824197 0.863325 0.365673 0.072474
C18   C     C_R   0.175802 0.363361 0.634325 0.072482
C19   C     C_R   0.708671 0.859176 0.526287 0.071793
C20   C     C_R   0.291328 0.359205 0.473711 0.071780
C21   C     C_R   0.661810 0.870576 0.457581 0.131319
C22   C     C_R   0.338187 0.370690 0.542413 0.131311
C23   C     C_R   0.695916 0.878084 0.345755 -0.219892
C24   C     C_R   0.304080 0.378241 0.654235 -0.219898
C25   C     C_R   0.775688 0.874608 0.300362 -0.213641
C26   C     C_R   0.224309 0.374722 0.699632 -0.213646
C27   C     C_R   0.671161 0.851604 0.638457 -0.241857
C28   C     C_R   0.328840 0.351587 0.361545 -0.241867
C29   C     C_R   0.544023 0.864791 0.612886 0.059663
C30   C     C_R   0.455975 0.364869 0.387110 0.059662
C31   C     C_R   0.905610 0.859778 0.318727 -0.072788
C32   C     C_R   0.094391 0.359783 0.681272 -0.072790
H5    H     H_    0.702673 0.843173 0.695795 0.104580
H6    H     H_    0.297330 0.343103 0.304212 0.104587
H7    H     H_    0.015672 0.846339 0.348442 0.105735
H8    H     H_    0.984334 0.346267 0.651561 0.105739
H9    H     H_    0.821613 0.838246 0.630370 0.108849
H10   H     H_    0.178390 0.338146 0.369632 0.108850
H11   H     H_    0.959001 0.832834 0.545617 0.128806
H12   H     H_    0.041004 0.332703 0.454387 0.128808
H13   H     H_    0.799000 0.880779 0.213183 0.125464
H14   H     H_    0.200996 0.380929 0.786809 0.125462
C33   C     C_1   0.216415 0.858791 0.999807 -0.190070
C34   C     C_1   0.783585 0.358791 0.000193 -0.190069
C35   C     C_1   0.283739 0.852623 0.998578 -0.189301
C36   C     C_1   0.716261 0.352623 0.001422 -0.189300
O11   O     O_R   0.899030 0.205490 0.002790 -0.535814
O12   O     O_R   0.100970 0.705490 0.997210 -0.535815
O13   O     O_R   0.042000 0.536370 0.840840 -0.540693
O14   O     O_R   0.958000 0.036370 0.159160 -0.540689
C37   C     C_R   0.057834 0.368251 0.798378 0.681991
C38   C     C_R   0.942167 0.868249 0.201622 0.681994
O15   O     O_R   0.895930 0.535070 0.992690 -0.539417
O16   O     O_R   0.104070 0.035070 0.007310 -0.539416
O17   O     O_R   0.953870 0.707520 0.150040 -0.537720
O18   O     O_R   0.046130 0.207520 0.849960 -0.537716
C39   C     C_R   0.864107 0.366767 0.998941 0.728928
C40   C     C_R   0.135893 0.866768 0.001059 0.728925
O19   O     O_3   0.019200 0.374340 0.051340 -0.374350
O20   O     O_3   0.980800 0.874340 0.948660 -0.374351
V3    V     V_3+5 0.996440 0.648350 0.990470 1.421306
V4    V     V_3+5 0.003560 0.148350 0.009530 1.421311
C41   C     C_3   0.456348 0.866248 0.663070 -0.374890
C42   C     C_3   0.409360 0.876018 0.583805 -0.322973
C43   C     C_3   0.322765 0.880611 0.644069 -0.723672
H15   H     H_    0.304892 0.752278 0.693852 0.230716
H16   H     H_    0.308137 0.004159 0.698568 0.230911
H17   H     H_    0.289938 0.889134 0.585343 0.226820
H18   H     H_    0.424945 0.004563 0.533709 0.209180
H19   H     H_    0.422206 0.751890 0.529596 0.207736
H20   H     H_    0.439028 0.736398 0.712404 0.167136
H21   H     H_    0.440387 0.989292 0.718372 0.170488
C44   C     C_3   0.543651 0.366349 0.336927 -0.374882
C45   C     C_3   0.590641 0.375860 0.416200 -0.322952
C46   C     C_3   0.677238 0.380304 0.355940 -0.723780
H22   H     H_    0.695055 0.252091 0.306048 0.230713
H23   H     H_    0.691923 0.503972 0.301553 0.230950
H24   H     H_    0.710069 0.388470 0.414665 0.226832
H25   H     H_    0.575104 0.504366 0.466339 0.209175
H26   H     H_    0.577746 0.251677 0.470367 0.207744
H27   H     H_    0.560965 0.236582 0.287514 0.167135
H28   H     H_    0.559617 0.489493 0.281699 0.170497

loop_
_geom_bond_atom_site_label_1
_geom_bond_atom_site_label_2
_ccdc_geom_bond_type
O14   C38   A    
C7    C29   A    
C11   C13   A    
O12   V3    S    
C3    C8    S    
O15   V3    S    
O1    C3    A    
O2    C4    A    
C26   H14   S    
C2    O7    A    
C41   H20   S    
C43   H15   S    
C12   H12   S    
C45   H25   S    
C23   C25   A    
C30   C44   S    
O5    C3    A    
C14   H10   S    
C4    C7    S    
C16   C20   A    
C2    C35   S    
C19   C21   A    
C5    C29   A    
H2    C24   S    
C11   H11   S    
O16   V4    S    
C34   C39   S    
C7    C27   A    
C34   C36   T    
C37   O18   A    
O18   V4    S    
O13   C37   A    
C18   C26   A    
O16   C40   A    
C42   H19   S    
C15   C17   A    
O15   C39   A    
C14   C16   A    
C19   C27   A    
C9    C31   A    
C10   C32   A    
C24   C26   A    
O6    V2    S    
C6    C30   A    
C41   H21   S    
C43   H16   S    
O14   V4    S    
C33   C35   T    
O13   V3    S    
O20   V3    S    
O4    C2    A    
C46   H22   S    
C27   H5    S    
O11   C39   A    
C5    H3    S    
C44   H27   S    
C16   C18   A    
O4    V2    S    
C9    H7    S    
C42   H18   S    
C10   H8    S    
C46   H23   S    
O6    C4    A    
C29   C41   S    
O1    V2    S    
C5    C21   A    
O2    V1    S    
O19   V3    S    
C33   C40   S    
H1    C23   S    
C17   C31   A    
C15   C19   A    
C20   C28   A    
C18   C32   A    
C20   C22   A    
C31   C38   S    
O17   V3    S    
C43   H17   S    
O3    V1    S    
C28   H6    S    
C6    H4    S    
O20   V4    S    
C42   C43   S    
O3    C1    A    
C45   H26   S    
C9    C11   A    
C10   C12   A    
C44   H28   S    
C17   C25   A    
C12   C14   A    
C6    C22   A    
C8    C30   A    
C1    O8    A    
C13   C15   A    
O8    V2    S    
C46   H24   S    
C22   C24   A    
C45   C46   S    
C13   H9    S    
C38   O17   A    
C8    C28   A    
O5    V1    S    
C1    C36   S    
C32   C37   S    
O7    V1    S    
O19   V4    S    
C25   H13   S    
C41   C42   S    
C21   C23   A    
O9    V2    S    
O12   C40   A    
O10   V1    S    
C44   C45   S    
O11   V4    S    
