data_mof_unit_33845.cif
_audit_creation_date              2012-12-11T17:05:30-0500
_audit_creation_method            fapswitch 2.2
_symmetry_space_group_name_H-M    P1
_symmetry_Int_Tables_number       1
_space_group_crystal_system       triclinic
_cell_length_a                    6.949565
_cell_length_b                    14.511293
_cell_length_c                    16.043271
_cell_angle_alpha                 90.167422
_cell_angle_beta                  89.821528
_cell_angle_gamma                 90.129006
_cell_volume                      1617.89971665

loop_
_atom_site_label
_atom_site_type_symbol
_atom_type_description
_atom_site_fract_x
_atom_site_fract_y
_atom_site_fract_z
_atom_type_partial_charge
O1    O     O_R   0.494380 0.415640 0.412830 -0.531171
O2    O     O_R   0.823960 0.405540 0.586560 -0.552343
O3    O     O_R   0.994270 0.584360 0.587170 -0.521361
C1    C     C_R   0.655014 0.383330 0.615029 0.681010
O4    O     O_R   0.824090 0.404620 0.413450 -0.545130
O5    O     O_R   0.994400 0.583430 0.412820 -0.531405
C2    C     C_R   0.655039 0.380705 0.386178 0.738163
O6    O     O_R   0.494250 0.416570 0.587180 -0.540422
O7    O     O_3   0.660800 0.558670 0.500000 -0.354061
V1    V     V_3+5 0.935650 0.489120 0.500000 1.447595
O8    O     O_R   0.324110 0.594460 0.413440 -0.524313
C3    C     C_R   0.156056 0.613598 0.382378 0.708682
O9    O     O_R   0.323980 0.595380 0.586550 -0.550925
C4    C     C_R   0.155061 0.617568 0.615539 0.701555
V2    V     V_3+5 0.435660 0.510880 0.500000 1.464946
O10   O     O_3   0.160640 0.441330 0.500000 -0.377912
C5    C     C_3   0.040914 0.645243 0.763764 -0.361319
H1    H     H_    0.897645 0.616880 0.746601 0.149340
H2    H     H_    0.126376 0.586229 0.787673 0.136570
C6    C     C_3   0.016850 0.718132 0.834154 -0.345839
H3    H     H_    0.069996 0.689956 0.894154 0.135514
H4    H     H_    0.860945 0.732506 0.843228 0.187859
H5    H     H_    0.875566 0.866981 0.745824 0.176693
C7    C     C_3   0.038011 0.777310 0.658866 0.242952
C8    C     C_3   0.349330 0.716502 0.715022 -0.452587
C9    C     C_3   0.144334 0.687414 0.686420 0.021266
H6    H     H_    0.426985 0.749319 0.662058 0.137953
H7    H     H_    0.433997 0.654599 0.732857 0.164560
C10   C     C_3   0.124125 0.808909 0.811689 0.020941
C11   C     C_3   0.027709 0.848262 0.732149 -0.445019
C12   C     C_3   0.338687 0.785896 0.788735 0.243750
H8    H     H_    0.410057 0.850731 0.768028 0.108856
H9    H     H_    0.122936 0.809229 0.607536 0.105057
H10   H     H_    0.101623 0.913130 0.713386 0.105071
C13   C     C_R   0.276961 0.811107 0.235834 0.061516
C14   C     C_R   0.118123 0.813796 0.182276 -0.133531
C15   C     C_R   0.975230 0.745697 0.192137 -0.199371
H11   H     H_    0.857958 0.741862 0.148017 0.137245
C16   C     C_R   0.993368 0.675568 0.252370 0.346482
C17   C     C_R   0.145785 0.678505 0.310907 -0.147063
C18   C     C_R   0.291853 0.743553 0.298032 0.011038
C19   C     C_3   0.492471 0.720898 0.270964 0.247790
C20   C     C_3   0.480512 0.799396 0.208875 -0.472556
H12   H     H_    0.601416 0.730358 0.320845 0.129991
H13   H     H_    0.494391 0.778846 0.142284 0.176166
H14   H     H_    0.570367 0.859752 0.226707 0.164460
C21   C     C_R   0.509026 0.322954 0.747598 0.032498
C22   C     C_R   0.647795 0.316711 0.684492 -0.089707
C23   C     C_R   0.790090 0.248256 0.693304 -0.193580
H15   H     H_    0.905840 0.242762 0.648250 0.131321
C24   C     C_R   0.777954 0.182592 0.757802 -0.208615
H16   H     H_    0.885050 0.128589 0.760509 0.128500
C25   C     C_R   0.624797 0.184479 0.815919 -0.170123
C26   C     C_R   0.498711 0.259653 0.812037 0.108126
C27   C     C_3   0.284459 0.266864 0.817272 0.290438
C28   C     C_3   0.296559 0.335685 0.745206 -0.463676
H17   H     H_    0.211109 0.200371 0.802559 0.046960
H18   H     H_    0.254229 0.407130 0.762395 0.172759
H19   H     H_    0.231961 0.309116 0.686566 0.148131
C29   C     C_R   0.524872 0.322893 0.250934 0.097233
C30   C     C_R   0.646752 0.310179 0.319168 -0.276257
C31   C     C_R   0.772432 0.232672 0.316811 0.327986
C32   C     C_R   0.767393 0.170329 0.248694 0.321329
C33   C     C_R   0.628557 0.180454 0.183882 -0.256329
C34   C     C_R   0.515250 0.259846 0.185926 0.053400
C35   C     C_3   0.303998 0.272630 0.175764 -0.383729
C36   C     C_3   0.313810 0.341646 0.247269 -0.364548
H20   H     H_    0.220231 0.209617 0.191136 0.184289
H21   H     H_    0.269560 0.304832 0.115021 0.182601
H22   H     H_    0.235854 0.318351 0.304106 0.201486
H23   H     H_    0.282581 0.413494 0.227686 0.177293
O11   O     O_R   0.771490 0.080820 0.910070 -0.548375
O12   O     O_R   0.441590 0.092730 0.083780 -0.537810
O13   O     O_R   0.271350 0.913900 0.084390 -0.535485
C37   C     C_R   0.611122 0.112944 0.114291 0.753626
O14   O     O_R   0.441780 0.091820 0.910670 -0.539357
O15   O     O_R   0.271540 0.912980 0.910040 -0.522114
C38   C     C_R   0.610968 0.114101 0.882202 0.701703
O16   O     O_R   0.771300 0.081740 0.084420 -0.549889
O17   O     O_3   0.604960 0.938700 0.997240 -0.357762
V3    V     V_3+5 0.330090 0.008230 0.997220 1.446645
O18   O     O_R   0.941820 0.901930 0.910640 -0.542762
C39   C     C_R   0.111346 0.878938 0.882350 0.698146
O19   O     O_R   0.941630 0.902840 0.083750 -0.545107
C40   C     C_R   0.110018 0.880818 0.112634 0.724120
V4    V     V_3+5 0.830090 0.986410 0.997190 1.418183
O20   O     O_3   0.105080 0.055990 0.997200 -0.378624
O21   O     O_3   0.871455 0.600910 0.246641 -0.638608
H24   H     H_    0.938274 0.545393 0.267482 0.287881
O22   O     O_3   0.495421 0.632625 0.233994 -0.613965
H25   H     H_    0.566906 0.636191 0.180541 0.326045
O23   O     O_3   0.228473 0.309227 0.893023 -0.543410
C41   C     C_3   0.025659 0.310646 0.897983 0.107040
H26   H     H_    0.970114 0.239697 0.908005 0.143522
H27   H     H_    0.960769 0.340335 0.840620 0.131377
C42   C     C_3   0.962326 0.370082 0.971224 -0.710858
H28   H     H_    0.024746 0.440331 0.965614 0.225515
H29   H     H_    0.802897 0.375370 0.972004 0.186103
H30   H     H_    0.009279 0.338631 0.030611 0.211815
O24   O     O_3   0.896886 0.212387 0.381157 -0.617999
H31   H     H_    0.846801 0.239587 0.433497 0.280372
O25   O     O_3   0.884332 0.094061 0.253137 -0.619371
H32   H     H_    0.963654 0.093120 0.201901 0.289081
O26   O     O_3   0.853840 0.758777 0.626551 -0.638010
H33   H     H_    0.771290 0.737182 0.673043 0.298240
O27   O     O_3   0.442864 0.753731 0.858023 -0.645463
H34   H     H_    0.395735 0.691114 0.872047 0.291082

loop_
_geom_bond_atom_site_label_1
_geom_bond_atom_site_label_2
_ccdc_geom_bond_type
C8    C12   S    
C35   H20   S    
C27   C28   S    
C41   H26   S    
C18   C19   S    
C13   C14   A    
C1    O6    A    
C25   C26   A    
C8    H7    S    
C10   C11   S    
C5    C9    S    
C14   C15   A    
O19   V4    S    
C10   C39   S    
O5    C3    A    
C35   H21   S    
O27   H34   S    
O15   C39   A    
V2    O10   S    
C42   H30   S    
C5    C6    S    
C2    C30   S    
O11   C38   A    
O8    V2    S    
C12   H8    S    
C29   C36   S    
C19   O22   S    
C23   C24   A    
C42   H29   S    
O17   V4    S    
O1    V2    S    
C13   C20   S    
O7    V1    S    
C35   C36   S    
C41   H27   S    
O9    C4    A    
O12   C37   A    
O25   H32   S    
C19   H12   S    
C16   O21   S    
C32   O25   S    
O12   V3    S    
O26   H33   S    
C6    C10   S    
C11   H10   S    
C24   H16   S    
H5    C11   S    
O19   C40   A    
C16   C17   A    
O4    C2    A    
V4    O20   S    
C8    C9    S    
O18   V4    S    
C29   C30   A    
C7    O26   S    
C3    C17   S    
O2    C1    A    
C15   H11   S    
C21   C22   A    
O15   V3    S    
C42   H28   S    
C6    H3    S    
C31   C32   A    
C5    H1    S    
C4    C9    S    
C20   H13   S    
V3    O20   S    
O3    C4    A    
C21   C26   A    
C31   O24   S    
C22   C23   A    
C27   O23   S    
C6    H4    S    
C29   C34   A    
O18   C39   A    
C41   C42   S    
C27   H17   S    
C12   O27   S    
C8    H6    S    
C19   C20   S    
O13   V3    S    
O2    V1    S    
C1    C22   S    
C26   C27   S    
C17   C18   A    
O1    C2    A    
C7    C9    S    
O14   C38   A    
O17   V3    S    
O14   V3    S    
O5    V1    S    
O11   V4    S    
O8    C3    A    
C14   C40   S    
O6    V2    S    
C7    H9    S    
C28   H19   S    
C36   H22   S    
C33   C34   A    
O9    V2    S    
C25   C38   S    
O7    V2    S    
O4    V1    S    
C10   C12   S    
O3    V1    S    
V1    O10   S    
O22   H25   S    
O23   C41   S    
C5    H2    S    
C33   C37   S    
C28   H18   S    
C36   H23   S    
C34   C35   S    
O13   C40   A    
C30   C31   A    
C13   C18   A    
C20   H14   S    
C7    C11   S    
C32   C33   A    
O21   H24   S    
C15   C16   A    
C23   H15   S    
O24   H31   S    
C24   C25   A    
C37   O16   A    
O16   V4    S    
C21   C28   S    
