data_mof_unit_33244.cif
_audit_creation_date              2012-12-10T17:50:15-0500
_audit_creation_method            fapswitch 2.2
_symmetry_space_group_name_H-M    P1
_symmetry_Int_Tables_number       1
_space_group_crystal_system       triclinic
_cell_length_a                    10.627126
_cell_length_b                    14.75417
_cell_length_c                    14.747456
_cell_angle_alpha                 65.043436
_cell_angle_beta                  103.547694
_cell_angle_gamma                 102.961376
_cell_volume                      2017.32985897

loop_
_atom_site_label
_atom_site_type_symbol
_atom_type_description
_atom_site_fract_x
_atom_site_fract_y
_atom_site_fract_z
_atom_type_partial_charge
C1    C     C_R   0.478965 0.119633 0.312363 0.808399
C2    C     C_R   0.522717 0.880335 0.687663 0.807818
C3    C     C_R   0.491207 0.291648 0.179010 -0.252958
C4    C     C_R   0.525236 0.708327 0.821068 -0.258566
C5    C     C_R   0.504958 0.360943 0.079956 0.089638
C6    C     C_R   0.541704 0.639757 0.922561 0.090129
C7    C     C_R   0.492400 0.322045 0.004742 0.157139
C8    C     C_R   0.567713 0.678890 0.998951 0.157539
C9    C     C_R   0.529564 0.467374 0.053590 0.065656
C10   C     C_R   0.529162 0.533548 0.950009 0.066683
C11   C     C_R   0.518623 0.491449 0.877691 -0.218882
C12   C     C_R   0.557540 0.509816 0.127472 -0.220625
C13   C     C_R   0.501280 0.387787 0.904952 -0.218900
C14   C     C_R   0.577371 0.613501 0.100378 -0.218040
C15   C     C_R   0.719068 0.288023 0.666358 -0.325641
C16   C     C_R   0.280192 0.711615 0.334236 -0.323734
C17   C     C_R   0.686524 0.206167 0.637888 0.460244
C18   C     C_R   0.313418 0.793821 0.362161 0.460585
C19   C     C_R   0.517187 0.284559 0.509815 -0.054999
C20   C     C_R   0.482388 0.715223 0.490544 -0.054244
C21   C     C_R   0.547797 0.371244 0.535232 -0.020027
C22   C     C_R   0.451195 0.628245 0.465597 -0.020506
C23   C     C_R   0.259521 0.000366 0.499972 0.802652
C24   C     C_R   0.740473 0.999642 0.500011 0.802020
C25   C     C_R   0.650383 0.370138 0.616205 0.110195
C26   C     C_R   0.348421 0.629261 0.384765 0.109344
C27   C     C_R   0.480913 0.458093 0.484385 0.089767
C28   C     C_R   0.517748 0.541229 0.516708 0.092754
C29   C     C_R   0.619336 0.534336 0.599170 -0.238135
C30   C     C_R   0.378925 0.464790 0.402218 -0.234792
C31   C     C_R   0.684349 0.450658 0.647390 -0.182818
C32   C     C_R   0.313874 0.548446 0.354030 -0.175180
C33   C     C_3   0.016157 0.013788 0.407152 -0.143291
C34   C     C_3   0.983821 0.986226 0.592811 -0.141895
C35   C     C_3   0.963190 0.088596 0.432183 -0.181494
C36   C     C_3   0.036785 0.911419 0.567778 -0.181387
C37   C     C_3   0.877269 0.999131 0.499860 0.009821
C38   C     C_3   0.122713 0.000885 0.500104 0.009155
C39   C     C_3   0.927951 0.924250 0.474807 -0.124107
C40   C     C_3   0.072026 0.075766 0.525154 -0.123565
C41   C     C_R   0.475460 0.187396 0.205104 -0.052838
C42   C     C_R   0.539597 0.812527 0.795286 -0.055254
C43   C     C_R   0.471948 0.217363 0.030274 -0.190744
C44   C     C_R   0.583015 0.783404 0.973099 -0.189279
C45   C     C_R   0.464764 0.150370 0.130091 -0.159969
C46   C     C_R   0.569788 0.849907 0.871859 -0.155863
Cu1   Cu    Cu3+1 0.465750 0.918270 0.475680 0.975135
Cu2   Cu    Cu3+1 0.534250 0.081730 0.524320 0.974962
H1    H     H_    0.929908 0.161013 0.376675 0.140523
H2    H     H_    0.070046 0.838996 0.623283 0.140286
H3    H     H_    0.560975 0.721589 0.549539 0.135636
H4    H     H_    0.438759 0.278249 0.450708 0.135559
H5    H     H_    0.798454 0.287241 0.728082 0.172473
H6    H     H_    0.200711 0.712347 0.272587 0.171997
H7    H     H_    0.651220 0.592534 0.628770 0.128915
H8    H     H_    0.346637 0.406408 0.372891 0.130852
H9    H     H_    0.032308 0.025405 0.331089 0.172788
H10   H     H_    0.967666 0.974591 0.668878 0.173452
H11   H     H_    0.866439 0.862119 0.454229 0.150941
H12   H     H_    0.133532 0.137900 0.545732 0.151587
H13   H     H_    0.494181 0.358899 0.847141 0.153985
H14   H     H_    0.598722 0.642654 0.159478 0.152237
H15   H     H_    0.497353 0.682181 0.760300 0.153009
H16   H     H_    0.491155 0.316812 0.237626 0.148226
H17   H     H_    0.581318 0.930206 0.853635 0.182570
H18   H     H_    0.452492 0.069950 0.148670 0.177769
H19   H     H_    0.463232 0.187340 0.973135 0.142858
H20   H     H_    0.604200 0.813648 0.031326 0.143371
H21   H     H_    0.527369 0.536524 0.799355 0.142845
H22   H     H_    0.568645 0.465218 0.207696 0.146993
H23   H     H_    0.762329 0.448918 0.710241 0.146944
H24   H     H_    0.235535 0.550009 0.291446 0.146074
N1    N     N_R   0.585750 0.204560 0.560800 -0.197648
N2    N     N_R   0.414250 0.795440 0.439200 -0.198287
O1    O     O_R   0.454850 0.022100 0.338110 -0.547094
O2    O     O_R   0.545150 0.977900 0.661890 -0.548194
O3    O     O_R   0.512700 0.160150 0.379180 -0.600164
O4    O     O_R   0.487300 0.839850 0.620820 -0.600160
O5    O     O_R   0.287930 0.931000 0.479440 -0.539174
O6    O     O_R   0.712070 0.069000 0.520560 -0.538909
O7    O     O_R   0.345780 0.069050 0.520520 -0.599823
O8    O     O_R   0.654220 0.930950 0.479480 -0.600481
Br1   Br    Br    0.210652 0.901447 0.286793 -0.544682
Br2   Br    Br    0.790187 0.099030 0.712572 -0.549175

loop_
_geom_bond_atom_site_label_1
_geom_bond_atom_site_label_2
_ccdc_geom_bond_type
C25   C31   A    
C38   C40   S    
C26   C32   A    
C40   H12   S    
C34   C37   S    
C1    O3    A    
Cu2   O2    S    
Cu1   O5    S    
C36   H2    S    
C32   H24   S    
C3    H16   S    
C4    H15   S    
C33   C39   S    
C34   C40   S    
C15   H5    S    
C28   C29   A    
C35   C37   S    
C20   H3    S    
C15   C25   A    
C14   H14   S    
Cu2   O7    S    
C42   C46   A    
Cu1   O8    S    
C24   O8    A    
C12   H22   S    
C19   H4    S    
C24   O6    A    
C35   H1    S    
C33   H9    S    
C7    C43   A    
C9    C10   A    
C31   H23   S    
C21   C27   A    
C18   N2    A    
C22   C28   A    
C27   C30   A    
C17   N1    A    
C44   C46   A    
C24   C37   S    
C16   C26   A    
C1    O1    A    
C19   N1    A    
C46   H17   S    
C4    C6    A    
C5    C7    A    
C6    C8    A    
C29   H7    S    
C30   H8    S    
Cu2   O3    S    
C43   H19   S    
C5    C9    A    
C2    O4    A    
Cu1   Cu2   S    
C39   H11   S    
C18   Br1   S    
C20   N2    A    
C43   C45   A    
C16   C18   A    
C12   C14   A    
C44   H20   S    
C45   H18   S    
C2    O2    A    
C1    C41   S    
C15   C17   A    
C21   C25   A    
C3    C41   A    
C8    C14   A    
C23   O7    A    
C19   C21   A    
Cu2   N1    S    
C36   C39   S    
C8    C44   A    
Cu1   N2    S    
C20   C22   A    
C3    C5    A    
C6    C10   A    
C11   H21   S    
C23   C38   S    
C33   C38   S    
C17   Br2   S    
Cu2   O6    S    
C36   C38   S    
C35   C40   S    
Cu1   O1    S    
C37   C39   S    
C30   C32   A    
C11   C13   A    
C4    C42   A    
C2    C42   S    
C33   C35   S    
C34   C36   S    
C9    C12   A    
C16   H6    S    
C10   C11   A    
C7    C13   A    
C13   H13   S    
C29   C31   A    
C22   C26   A    
C27   C28   A    
C34   H10   S    
C41   C45   A    
Cu1   O4    S    
C23   O5    A    
