data_mof_unit_40689.cif
_audit_creation_date              2012-12-10T20:51:27-0500
_audit_creation_method            fapswitch 2.2
_symmetry_space_group_name_H-M    P1
_symmetry_Int_Tables_number       1
_space_group_crystal_system       triclinic
_cell_length_a                    17.381715
_cell_length_b                    8.928656
_cell_length_c                    8.115363
_cell_angle_alpha                 90.010504
_cell_angle_beta                  91.295577
_cell_angle_gamma                 89.929216
_cell_volume                      1259.14368399

loop_
_atom_site_label
_atom_site_type_symbol
_atom_type_description
_atom_site_fract_x
_atom_site_fract_y
_atom_site_fract_z
_atom_type_partial_charge
C1    C     C_R   0.500005 0.218029 0.499984 0.926351
C2    C     C_R   0.855795 0.509916 0.382939 -0.137509
C3    C     C_R   0.765678 0.399940 0.642558 0.346098
C4    C     C_R   0.230966 0.423421 0.341453 0.361864
C5    C     C_R   0.232628 0.417198 0.641956 0.347756
C6    C     C_R   0.776460 0.541539 0.385411 0.437727
C7    C     C_R   0.731216 0.480434 0.510395 -0.295488
C8    C     C_R   0.270057 0.450538 0.493568 -0.270446
C9    C     C_R   0.888836 0.421077 0.510510 -0.128255
C10   C     C_R   0.117431 0.350493 0.488451 -0.036451
C11   C     C_1   0.968326 0.381647 0.504638 0.073853
C12   C     C_R   0.500078 0.781968 0.500006 0.918416
C13   C     C_1   0.035772 0.358554 0.498023 0.169680
C14   C     C_2   0.878544 0.278220 0.778824 0.493208
C15   C     C_2   0.108145 0.395667 0.181071 0.402120
C16   C     C_2   0.133552 0.267008 0.784129 0.510913
C17   C     C_2   0.904513 0.570194 0.248709 0.505269
C18   C     C_3   0.724735 0.435443 0.904880 -0.125468
C19   C     C_3   0.295468 0.287698 0.153786 -0.190685
C20   C     C_3   0.249033 0.595281 0.837237 -0.210264
C21   C     C_3   0.738781 0.777695 0.318489 -0.207771
C22   C     C_1   0.500056 0.065211 0.499958 -0.191170
C23   C     C_1   0.500091 0.934795 0.499987 -0.196937
C24   C     C_R   0.352315 0.492205 0.498068 0.915444
C25   C     C_R   0.647472 0.497395 0.502474 0.951330
C26   C     C_R   0.844547 0.368639 0.641827 -0.087454
C27   C     C_R   0.152321 0.388482 0.339570 -0.136927
C28   C     C_R   0.160790 0.346647 0.636174 -0.156564
H1    H     H_    0.845521 0.188545 0.833207 0.088943
H2    H     H_    0.330175 0.294965 0.041145 0.218508
H3    H     H_    0.186279 0.607777 0.857733 0.140144
H4    H     H_    0.267828 0.677241 0.742896 0.140484
H5    H     H_    0.280044 0.623719 0.953869 0.225024
H6    H     H_    0.701225 0.788328 0.427125 0.118693
H7    H     H_    0.797149 0.822749 0.348357 0.165268
H8    H     H_    0.713283 0.847807 0.218470 0.191438
H9    H     H_    0.127434 0.468777 0.083798 0.090353
H10   H     H_    0.164210 0.279133 0.900508 0.092074
H11   H     H_    0.966696 0.568542 0.261228 0.061662
H12   H     H_    0.715672 0.555536 0.872347 0.175764
H13   H     H_    0.780360 0.421684 0.972926 0.188041
H14   H     H_    0.678497 0.403127 0.989884 0.188911
H15   H     H_    0.246670 0.210137 0.127983 0.135861
H16   H     H_    0.333429 0.240037 0.253021 0.143580
N1    N     N_1   0.500000 0.500000 0.073640 -0.030331
N2    N     N_1   0.500000 0.500000 0.926360 -0.028054
O1    O     O_R   0.500000 0.285350 0.636850 -0.602608
O2    O     O_2   0.050994 0.318784 0.156317 -0.529612
O3    O     O_2   0.080446 0.177915 0.774941 -0.513629
O4    O     O_2   0.876230 0.622194 0.122075 -0.538040
O5    O     O_3   0.720706 0.340508 0.765530 -0.633860
O6    O     O_3   0.268999 0.432632 0.194035 -0.607179
O7    O     O_3   0.267429 0.446676 0.793288 -0.606049
O8    O     O_3   0.742422 0.628285 0.262489 -0.577688
O9    O     O_R   0.500000 0.714650 0.363150 -0.614241
O10   O     O_R   0.500000 0.714650 0.636850 -0.622289
O11   O     O_R   0.500000 0.285350 0.363150 -0.634401
O12   O     O_R   0.389120 0.500000 0.636930 -0.572965
O13   O     O_R   0.610880 0.500000 0.363070 -0.590259
O14   O     O_R   0.610880 0.500000 0.636930 -0.592892
O15   O     O_R   0.389120 0.500000 0.363070 -0.578365
O16   O     O_2   0.941556 0.308791 0.838688 -0.489554
Zn1   Zn    Zn3+2 0.500000 0.500000 0.682780 1.009599
Zn2   Zn    Zn3+2 0.500000 0.500000 0.317220 0.999029

loop_
_geom_bond_atom_site_label_1
_geom_bond_atom_site_label_2
_ccdc_geom_bond_type
C17   O4    D    
C16   C28   S    
O15   Zn2   S    
C10   C13   S    
C6    C7    A    
C21   H7    S    
C25   O14   A    
C1    O11   A    
C9    C26   A    
C5    C8    A    
C5    C28   A    
C9    C11   S    
N1    Zn2   S    
C15   C27   S    
C7    C25   S    
C10   C27   A    
N2    Zn1   S    
C4    C8    A    
O9    Zn2   S    
C18   H14   S    
O10   Zn1   S    
C1    C22   S    
C21   H8    S    
C2    C6    A    
N1    N2    T    
C14   C26   S    
C2    C17   S    
C11   C13   T    
C12   C23   S    
O13   Zn2   S    
C12   O10   A    
C15   O2    D    
C6    O8    S    
C24   O15   A    
C20   H5    S    
C5    O7    S    
C8    C24   S    
C19   H15   S    
C18   O5    S    
C4    O6    S    
C3    C7    A    
O14   Zn1   S    
O1    Zn1   S    
C21   O8    S    
C12   O9    A    
C14   H1    S    
C14   O16   D    
C19   H16   S    
C4    C27   A    
C16   O3    D    
O11   Zn2   S    
C24   O12   A    
C17   H11   S    
C18   H13   S    
C10   C28   A    
O12   Zn1   S    
C18   H12   S    
C22   C23   T    
C1    O1    A    
C3    O5    S    
C21   H6    S    
C25   O13   A    
C2    C9    A    
C19   H2    S    
C19   O6    S    
C20   H3    S    
C3    C26   A    
C15   H9    S    
C16   H10   S    
C20   O7    S    
C20   H4    S    
