data_mof_unit_6570.cif
_audit_creation_date              2013-03-05T15:57:46-0500
_audit_creation_method            fapswitch 2.2
_symmetry_space_group_name_H-M    P1
_symmetry_Int_Tables_number       1
_space_group_crystal_system       triclinic
_cell_length_a                    15.525597
_cell_length_b                    15.046482
_cell_length_c                    15.0088
_cell_angle_alpha                 109.778366
_cell_angle_beta                  121.386036
_cell_angle_gamma                 58.751873
_cell_volume                      2547.69600412

loop_
_atom_site_label
_atom_site_type_symbol
_atom_site_description
_atom_site_fract_x
_atom_site_fract_y
_atom_site_fract_z
_atom_type_partial_charge
C1    C     C_R   0.803571 0.937457 0.773135 -0.133292
C2    C     C_R   0.245056 0.006631 0.208758 -0.117090
H1    H     H_    0.831771 0.880530 0.822069 0.094399
H2    H     H_    0.232911 0.039309 0.147066 0.092582
N1    N     N_R   0.705410 0.966550 0.689210 -0.044694
N2    N     N_R   0.294590 0.033450 0.310790 -0.046245
C3    C     C_R   0.199341 0.274728 0.441127 -0.131724
C4    C     C_R   0.756104 0.710132 0.508582 -0.114016
H3    H     H_    0.172081 0.325570 0.386413 0.095887
H4    H     H_    0.768876 0.648709 0.541992 0.092776
N3    N     N_R   0.294590 0.188320 0.465660 -0.045739
N4    N     N_R   0.705410 0.811680 0.534340 -0.046013
C5    C     C_R   0.594265 0.228213 0.558440 -0.122337
C6    C     C_R   0.408509 0.782485 0.511918 -0.110365
H5    H     H_    0.680641 0.212306 0.608352 0.121058
H6    H     H_    0.322432 0.802222 0.488522 0.112997
N5    N     N_R   0.556610 0.157790 0.497330 -0.042994
N6    N     N_R   0.443390 0.842210 0.502670 -0.041567
C7    C     C_R   0.408277 0.043585 0.733253 -0.138352
C8    C     C_R   0.593756 0.019608 0.291059 -0.128596
H7    H     H_    0.322376 0.081440 0.721363 0.093268
H8    H     H_    0.679343 0.006902 0.322645 0.087623
N7    N     N_R   0.443390 0.997080 0.657540 -0.038279
N8    N     N_R   0.556610 0.002920 0.342460 -0.037632
C9    C     C_R   0.408539 0.306524 0.474216 -0.095730
C10   C     C_R   0.593066 0.713558 0.591331 -0.144363
H9    H     H_    0.323196 0.364345 0.442144 0.127217
H10   H     H_    0.678567 0.672499 0.645718 0.122652
N9    N     N_R   0.443390 0.203250 0.451380 -0.047592
N10   N     N_R   0.556610 0.796750 0.548620 -0.041221
C11   C     C_R   0.594309 0.976488 0.805315 -0.120147
C12   C     C_R   0.409748 0.089999 0.211691 -0.136438
H11   H     H_    0.680439 0.958022 0.857907 0.119349
H12   H     H_    0.323777 0.137315 0.164145 0.110960
N11   N     N_R   0.556610 0.951620 0.703500 -0.043164
N12   N     N_R   0.443390 0.048380 0.296500 -0.041278
C13   C     C_R   0.198313 0.185089 0.532242 -0.148088
C14   C     C_R   0.756855 0.800467 0.416566 -0.144904
H13   H     H_    0.167660 0.154282 0.559559 0.092331
H14   H     H_    0.769350 0.821077 0.363160 0.107021
N13   N     N_R   0.294590 0.131500 0.522480 -0.040387
N14   N     N_R   0.705410 0.868500 0.477520 -0.043915
C15   C     C_R   0.804547 0.028066 0.683689 -0.161218
C16   C     C_R   0.244012 0.915026 0.299155 -0.141046
H15   H     H_    0.835812 0.052972 0.651263 0.101481
H16   H     H_    0.231448 0.861600 0.319434 0.114487
N15   N     N_R   0.705410 0.023370 0.632390 -0.040943
N16   N     N_R   0.294590 0.976630 0.367610 -0.045430
C17   C     C_R   0.867513 0.974931 0.771922 0.157090
C18   C     C_R   0.214336 0.930696 0.199023 0.144918
C19   C     C_R   0.136754 0.274712 0.481286 0.150362
C20   C     C_R   0.787463 0.700540 0.433051 0.143898
C21   C     C_R   0.503744 0.323217 0.540930 0.039961
C22   C     C_R   0.502209 0.701648 0.568988 0.041038
C23   C     C_R   0.503515 0.030202 0.827731 0.053805
C24   C     C_R   0.503618 0.075272 0.208198 0.065647
H17   H     H_    0.181345 0.931606 0.005811 0.128829
H18   H     H_    0.012259 0.834365 0.913533 0.129373
Ni1   Ni    Ni4+2 0.629830 0.882720 0.617850 0.217470
Ni2   Ni    Ni4+2 0.370170 0.117280 0.382150 0.216874
Ni3   Ni    Ni4+2 0.629830 0.013030 0.487540 0.215169
Ni4   Ni    Ni4+2 0.370170 0.986970 0.512460 0.216072
H19   H     H_    0.111378 0.844387 0.103272 0.128506
H20   H     H_    0.017091 0.003002 0.846100 0.129627
H21   H     H_    0.940026 0.634238 0.974498 0.162928
H22   H     H_    0.060638 0.477309 0.103315 0.171783
C25   C     C_R   0.762860 0.714887 0.933900 0.402639
C26   C     C_R   0.241244 0.405047 0.167994 0.401766
C27   C     C_R   0.676440 0.810911 0.945743 -0.269755
C28   C     C_R   0.334087 0.322318 0.151990 -0.278979
H23   H     H_    0.591891 0.818644 0.909144 0.154087
H24   H     H_    0.417370 0.313902 0.208365 0.151075
C29   C     C_R   0.698429 0.898031 0.004031 0.067466
C30   C     C_R   0.320149 0.250145 0.062847 0.082150
C31   C     C_R   0.808315 0.887768 0.053599 -0.178908
C32   C     C_R   0.211828 0.261824 0.988703 -0.184225
H25   H     H_    0.826895 0.953743 0.099914 0.126312
H26   H     H_    0.198982 0.206832 0.919696 0.114142
C33   C     C_R   0.894305 0.792838 0.042007 -0.150999
C34   C     C_R   0.119327 0.343433 0.004179 -0.139431
H27   H     H_    0.978695 0.785561 0.079706 0.137573
H28   H     H_    0.036168 0.351538 0.946984 0.169183
C35   C     C_R   0.871867 0.707063 0.982096 -0.219552
C36   C     C_R   0.133691 0.414534 0.093256 -0.223464
C37   C     C_R   0.609747 0.028504 0.114069 -0.241225
C38   C     C_R   0.420608 0.142506 0.950359 -0.244138
H29   H     H_    0.683621 0.980883 0.175273 0.129082
H30   H     H_    0.350083 0.190606 0.887608 0.132997
C39   C     C_R   0.512049 0.097945 0.126903 0.036391
C40   C     C_R   0.510686 0.057540 0.932635 0.056568
C41   C     C_R   0.418881 0.162704 0.047346 0.064971
C42   C     C_R   0.606854 0.999440 0.016083 0.060258
H31   H     H_    0.822449 0.507992 0.436570 0.132379
H32   H     H_    0.991253 0.414820 0.339420 0.135676
C43   C     C_2   0.021272 0.348192 0.461975 -0.218748
C44   C     C_2   0.848864 0.602632 0.385131 -0.203597
C45   C     C_2   0.960592 0.417384 0.391153 -0.101032
C46   C     C_2   0.865049 0.511296 0.399766 -0.099866
H33   H     H_    0.892675 0.604888 0.348846 0.144705
H34   H     H_    0.989543 0.352032 0.513559 0.139874
C47   C     C_2   0.984276 0.953117 0.843644 -0.218748
C48   C     C_2   0.154613 0.881129 0.100918 -0.200735
H35   H     H_    0.099182 0.958641 0.674914 0.096722
H36   H     H_    0.906992 0.102153 0.437546 0.104094
C49   C     C_R   0.275503 0.875061 0.717052 -0.134917
C50   C     C_R   0.732105 0.203079 0.392434 -0.135278
H37   H     H_    0.295452 0.935524 0.776308 0.110521
H38   H     H_    0.706595 0.166506 0.312980 0.115915
C51   C     C_R   0.360498 0.784009 0.697794 -0.106744
C52   C     C_R   0.652023 0.286585 0.424760 -0.101794
H39   H     H_    0.445519 0.775490 0.742820 0.148222
H40   H     H_    0.564958 0.313979 0.370049 0.144040
C53   C     C_R   0.335606 0.705043 0.620495 0.085875
C54   C     C_R   0.684342 0.333892 0.528011 0.088503
C55   C     C_R   0.223892 0.718995 0.563650 -0.143198
C56   C     C_R   0.798265 0.298280 0.597580 -0.174112
H41   H     H_    0.202025 0.660103 0.503030 0.155331
H42   H     H_    0.824822 0.334617 0.677138 0.153805
C57   C     C_R   0.139177 0.810125 0.583384 -0.103744
C58   C     C_R   0.878150 0.214646 0.564999 -0.136608
H43   H     H_    0.053419 0.820439 0.539024 0.113118
H44   H     H_    0.965703 0.186846 0.619114 0.104834
C59   C     C_R   0.164926 0.888106 0.659933 -0.095773
C60   C     C_R   0.845066 0.166907 0.462603 -0.088938
C61   C     C_R   0.428434 0.511356 0.587825 -0.155849
C62   C     C_R   0.599810 0.518082 0.579183 -0.114205
H45   H     H_    0.364271 0.506529 0.593683 0.115328
H46   H     H_    0.664163 0.519240 0.570168 0.113860
C63   C     C_R   0.511870 0.420179 0.565879 0.104653
C64   C     C_R   0.510455 0.610145 0.589196 0.114850
C65   C     C_R   0.599587 0.423390 0.562577 0.019368
C66   C     C_R   0.425855 0.608445 0.599069 0.062662
C67   C     C_2   0.044129 0.884230 0.914589 -0.101180
C68   C     C_2   0.139124 0.894422 0.009126 -0.099460
N17   N     N_R   0.740347 0.625772 0.874012 0.224317
O1    O     O_R   0.816431 0.541453 0.851236 -0.457639
O2    O     O_R   0.644537 0.627113 0.843946 -0.439049
N18   N     N_R   0.256018 0.479239 0.259049 0.222547
O3    O     O_R   0.171174 0.550271 0.278643 -0.451182
O4    O     O_R   0.354105 0.477712 0.322221 -0.449430

loop_
_geom_bond_atom_site_label_1
_geom_bond_atom_site_label_2
_geom_bond_distance
_ccdc_geom_bond_type
C33   C35   1.396557 A    
C25   C35   1.406088 A    
N8    Ni3   1.853043 S    
C53   C66   1.489744 S    
N5    N9    1.357381 A    
C54   C65   1.487931 S    
C6    N6    1.337069 A    
C26   N18   1.439841 S    
C8    C24   1.372103 A    
H35   C59   1.082791 S    
C45   C46   1.454388 S    
N17   O1    1.301561 A    
C3    N3    1.332241 A    
C49   H37   1.082784 S    
N8    N12   1.357381 A    
N2    N16   1.397003 A    
C1    N1    1.335051 A    
C12   N12   1.338954 A    
C7    H7    1.080608 S    
C9    C21   1.387037 A    
C14   N14   1.342324 A    
C23   C40   1.444714 S    
C38   C41   1.394572 A    
C51   H39   1.081410 S    
C17   C47   1.463547 S    
C13   C19   1.384294 A    
C38   H30   1.083846 S    
H21   C35   1.082411 S    
C14   C20   1.391305 A    
C62   C64   1.395893 A    
C16   C18   1.390073 A    
C44   H33   1.087513 S    
C49   C59   1.397157 A    
N11   Ni1   1.848535 S    
C27   H23   1.082639 S    
N4    N14   1.397004 A    
C2    C18   1.390714 A    
N5    Ni3   1.856505 S    
N4    Ni1   1.847807 S    
N16   Ni4   1.852249 S    
N7    Ni4   1.853042 S    
C8    N8    1.317413 A    
C16   H16   1.080294 S    
C55   H41   1.083049 S    
C44   C46   1.337384 D    
C28   C30   1.405390 A    
C11   H11   1.073283 S    
C27   C29   1.406170 A    
C64   C66   1.409947 A    
N6    N10   1.357381 A    
C39   C41   1.411956 A    
C15   N15   1.344793 A    
C4    C20   1.390770 A    
C51   C53   1.408390 A    
C50   H38   1.082503 S    
C37   H29   1.080793 S    
C29   C31   1.403679 A    
C2    N2    1.332830 A    
C47   C67   1.337413 D    
N13   Ni4   1.855727 S    
H19   C48   1.086447 S    
C10   C22   1.365016 A    
C37   C42   1.368358 A    
C58   H44   1.082788 S    
C5    C21   1.368517 A    
C57   H43   1.082732 S    
H18   C67   1.084865 S    
C9    N9    1.336152 A    
H20   C47   1.087551 S    
C22   C64   1.436398 S    
N1    Ni1   1.851292 S    
C34   C36   1.396663 A    
C26   C36   1.406053 A    
N2    Ni2   1.851293 S    
C34   H28   1.082489 S    
C38   C40   1.401219 A    
C33   H27   1.081525 S    
C37   C39   1.397654 A    
C7    N7    1.337727 A    
N6    Ni4   1.856506 S    
H32   C45   1.084718 S    
C56   C58   1.398900 A    
C58   C60   1.398269 A    
C1    H1    1.080047 S    
C12   H12   1.078647 S    
C30   C41   1.485515 S    
C2    H2    1.079217 S    
C48   C68   1.336934 D    
C25   N17   1.439222 S    
C61   C63   1.401243 A    
C15   H15   1.082182 S    
C40   C42   1.414616 A    
N9    Ni2   1.852254 S    
C4    N4    1.331544 A    
N10   Ni1   1.852255 S    
C31   H25   1.083104 S    
N14   Ni3   1.855727 S    
N18   O4    1.301182 A    
C26   C28   1.407727 A    
C24   C39   1.454875 S    
C6    C22   1.378691 A    
C8    H8    1.081012 S    
C18   C48   1.461593 S    
C55   C57   1.399159 A    
C5    H5    1.076476 S    
C67   C68   1.455896 S    
C6    H6    1.080494 S    
H17   C68   1.085589 S    
C21   C63   1.434102 S    
C30   C32   1.404969 A    
N3    Ni2   1.847810 S    
C50   C52   1.398207 A    
C7    C23   1.392129 A    
N17   O2    1.300983 A    
C52   C54   1.404995 A    
C62   H46   1.085042 S    
C43   H34   1.087601 S    
C10   H10   1.082551 S    
C15   C17   1.380501 A    
C32   C34   1.396093 A    
C29   C42   1.487510 S    
C32   H26   1.083146 S    
N12   Ni2   1.848535 S    
N15   Ni3   1.852249 S    
C54   C56   1.406224 A    
C43   C45   1.337749 D    
C10   N10   1.314625 A    
H36   C60   1.082517 S    
C57   C59   1.397299 A    
C9    H9    1.080437 S    
N7    N11   1.357383 A    
C5    N5    1.316154 A    
C3    C19   1.384884 A    
C13   H13   1.081764 S    
C14   H14   1.081150 S    
C61   C66   1.394146 A    
C53   C55   1.407951 A    
C49   C51   1.398369 A    
C62   C65   1.362367 A    
C1    C17   1.382146 A    
N1    N15   1.397002 A    
C56   H42   1.083505 S    
C20   C44   1.461628 S    
C11   N11   1.313915 A    
C13   N13   1.342996 A    
C52   H40   1.079919 S    
N18   O3    1.301563 A    
C25   C27   1.408083 A    
H22   C36   1.082472 S    
C3    H3    1.079794 S    
C4    H4    1.079285 S    
N3    N13   1.397001 A    
C50   C60   1.398170 A    
C61   H45   1.084436 S    
C28   H24   1.080236 S    
C11   C23   1.371646 A    
C31   C33   1.395766 A    
H31   C46   1.085477 S    
C12   C24   1.382926 A    
C16   N16   1.342266 A    
C19   C43   1.462862 S    
C63   C65   1.414081 A    
