data_mof_unit_11229.cif
_audit_creation_date              2012-12-10T17:18:57-0500
_audit_creation_method            fapswitch 2.2
_symmetry_space_group_name_H-M    P1
_symmetry_Int_Tables_number       1
_space_group_crystal_system       triclinic
_cell_length_a                    9.635905
_cell_length_b                    10.775286
_cell_length_c                    13.423751
_cell_angle_alpha                 93.942926
_cell_angle_beta                  72.200133
_cell_angle_gamma                 89.690947
_cell_volume                      1323.40978448

loop_
_atom_site_label
_atom_site_type_symbol
_atom_type_description
_atom_site_fract_x
_atom_site_fract_y
_atom_site_fract_z
_atom_type_partial_charge
C1    C     C_R   0.498262 0.737393 0.503454 0.776674
C2    C     C_R   0.373013 0.483902 0.814369 -0.109911
C3    C     C_R   0.293595 0.886947 0.676950 -0.300705
C4    C     C_R   0.421532 0.493732 0.699691 0.783390
C5    C     C_R   0.194613 0.959431 0.758088 0.645318
C6    C     C_R   0.193977 0.088636 0.757523 0.589358
C7    C     C_R   0.292580 0.145882 0.675955 -0.388238
C8    C     C_R   0.392698 0.074188 0.592216 0.007399
C9    C     C_R   0.392647 0.942942 0.592512 0.004076
C10   C     C_R   0.495389 0.871788 0.509936 -0.020573
C11   C     C_R   0.599840 0.929234 0.431903 -0.165626
C12   C     C_R   0.428321 0.467061 0.979825 -0.020056
C13   C     C_R   0.600327 0.057254 0.431794 -0.138797
C14   C     C_R   0.496390 0.129758 0.509729 -0.047861
C15   C     C_R   0.925275 0.326377 0.355602 0.556972
C16   C     C_R   0.499086 0.263010 0.502691 0.798585
C17   C     C_R   0.031436 0.245442 0.288796 0.561778
C18   C     C_R   0.172224 0.248405 0.291265 0.476111
C19   C     C_R   0.208732 0.332121 0.360772 -0.246518
C20   C     C_R   0.105917 0.416979 0.431052 -0.048018
C21   C     C_R   0.956677 0.415931 0.430058 -0.125987
C22   C     C_R   0.897545 0.578364 0.566077 0.614286
C23   C     C_R   0.469188 0.445158 0.868883 0.027248
C24   C     C_R   0.045019 0.578144 0.566145 0.614578
C25   C     C_R   0.578762 0.498519 0.299618 0.868943
C26   C     C_R   0.789458 0.398466 0.018526 -0.226411
C27   C     C_R   0.623126 0.481764 0.184252 -0.214677
C28   C     C_R   0.229836 0.522346 0.871328 -0.247405
C29   C     C_R   0.182742 0.524956 0.979912 -0.111253
C30   C     C_R   0.279422 0.497845 0.034589 0.638006
C31   C     C_R   0.538289 0.455939 0.030045 0.117615
C32   C     C_R   0.678514 0.406084 0.971579 0.060221
C33   C     C_R   0.707052 0.364810 0.866586 -0.132849
C34   C     C_R   0.603649 0.382971 0.816106 -0.119416
C35   C     C_R   0.516133 0.498393 0.135096 -0.248761
C36   C     C_R   0.762473 0.436383 0.124116 0.672690
Cu1   Cu    Cu3+1 0.359340 0.500010 0.500010 1.019502
Cu2   Cu    Cu3+1 0.640660 0.499990 0.499990 1.077733
F1    F     F_    0.872420 0.427485 0.166634 -0.601777
F2    F     F_    0.100342 0.903898 0.838322 -0.573595
F3    F     F_    0.098965 0.159154 0.837139 -0.618154
F4    F     F_    0.799776 0.659209 0.634161 -0.600080
F5    F     F_    0.796462 0.310742 0.339792 -0.601122
F6    F     F_    0.996332 0.163061 0.219684 -0.542047
F7    F     F_    0.275389 0.169623 0.225294 -0.578837
F8    F     F_    0.083647 0.658287 0.634690 -0.622286
F9    F     F_    0.221298 0.492005 0.139692 -0.662208
H1    H     H_    0.680171 0.099706 0.369014 0.224239
H2    H     H_    0.630045 0.344870 0.735813 0.157599
H3    H     H_    0.679640 0.874383 0.369488 0.169560
H4    H     H_    0.417258 0.547612 0.180504 0.246245
H5    H     H_    0.293529 0.787271 0.682171 0.221963
H6    H     H_    0.290869 0.246358 0.680304 0.191422
H7    H     H_    0.320323 0.325280 0.355070 0.250764
H8    H     H_    0.811145 0.320688 0.822496 0.173310
H9    H     H_    0.897201 0.362212 0.973471 0.212162
H10   H     H_    0.153347 0.550467 0.831883 0.224483
H11   H     H_    0.070283 0.550236 0.022334 0.205112
N1    N     N_R   0.852480 0.498790 0.499000 -0.246871
N2    N     N_R   0.148360 0.498710 0.498970 -0.234979
O1    O     O_R   0.381190 0.680360 0.500010 -0.539258
O2    O     O_R   0.618760 0.680340 0.500000 -0.533281
O3    O     O_R   0.323240 0.499990 0.650990 -0.557788
O4    O     O_R   0.560820 0.499960 0.650980 -0.548720
O5    O     O_R   0.381240 0.319660 0.500000 -0.610516
O6    O     O_R   0.618810 0.319640 0.499990 -0.536234
O7    O     O_R   0.439180 0.500040 0.349020 -0.604811
O8    O     O_R   0.676760 0.500010 0.349010 -0.461716

loop_
_geom_bond_atom_site_label_1
_geom_bond_atom_site_label_2
_ccdc_geom_bond_type
C33   H8    S    
C13   H1    S    
Cu1   O1    S    
C3    H5    S    
C18   F7    S    
C26   C32   A    
C6    C7    A    
C3    C9    A    
C27   C36   A    
C20   N2    A    
C2    C28   A    
C9    C10   A    
C4    O4    A    
C2    C4    S    
C19   C20   A    
C25   O7    A    
C24   N2    A    
C23   C34   A    
C24   F8    S    
C32   C33   A    
C2    C23   A    
C22   C24   A    
C17   C18   A    
C17   F6    S    
C15   F5    S    
C7    C8    A    
C22   N1    A    
C11   H3    S    
C22   F4    S    
C28   H10   S    
C1    O2    A    
C11   C13   A    
C4    O3    A    
C29   C30   A    
C25   O8    A    
Cu1   O7    S    
C19   H7    S    
C26   C36   A    
C28   C29   A    
Cu1   O3    S    
Cu1   Cu2   S    
Cu2   O8    S    
C29   H11   S    
C33   C34   A    
Cu2   O4    S    
C12   C31   A    
C35   H4    S    
C5    C6    A    
C14   C16   S    
Cu1   N2    S    
C25   C27   S    
C10   C11   A    
C7    H6    S    
Cu2   N1    S    
C3    C5    A    
C21   N1    A    
Cu2   O6    S    
C30   F9    S    
C15   C21   A    
C16   O6    A    
C20   C21   A    
C18   C19   A    
C5    F2    S    
C12   C23   A    
C15   C17   A    
C34   H2    S    
C31   C35   A    
C16   O5    A    
C8    C14   A    
C27   C35   A    
C13   C14   A    
C12   C30   A    
C36   F1    S    
C1    C10   S    
C31   C32   A    
Cu1   O5    S    
C26   H9    S    
C8    C9    A    
Cu2   O2    S    
C6    F3    S    
C1    O1    A    
