data_mof_unit_13508.cif
_audit_creation_date              2012-12-11T15:56:54-0500
_audit_creation_method            fapswitch 2.2
_symmetry_space_group_name_H-M    P1
_symmetry_Int_Tables_number       1
_space_group_crystal_system       triclinic
_cell_length_a                    17.428055
_cell_length_b                    24.381264
_cell_length_c                    15.004415
_cell_angle_alpha                 90.124688
_cell_angle_beta                  126.260653
_cell_angle_gamma                 89.743113
_cell_volume                      5140.85183987

loop_
_atom_site_label
_atom_site_type_symbol
_atom_type_description
_atom_site_fract_x
_atom_site_fract_y
_atom_site_fract_z
_atom_type_partial_charge
C1    C     C_R   0.350486 0.152407 0.907790 -0.142536
C2    C     C_R   0.350341 0.848362 0.907197 -0.160953
C3    C     C_R   0.850099 0.652332 0.907937 -0.124848
C4    C     C_R   0.849673 0.347973 0.907905 -0.138890
C5    C     C_R   0.691460 0.122618 0.093438 0.000564
C6    C     C_R   0.692304 0.878440 0.093647 0.011856
C7    C     C_R   0.190980 0.623238 0.092113 -0.111475
C8    C     C_R   0.192269 0.378323 0.093513 0.004768
C9    C     C_R   0.600027 0.877249 0.909263 -0.150432
C10   C     C_R   0.598491 0.124134 0.908710 -0.124360
C11   C     C_R   0.099782 0.377049 0.909142 -0.139584
C12   C     C_R   0.098879 0.620733 0.907717 -0.030420
C13   C     C_R   0.414897 0.000984 0.623320 -0.068767
C14   C     C_R   0.914368 0.500888 0.623077 -0.054551
C15   C     C_R   0.803673 0.999950 0.369567 -0.148234
C16   C     C_R   0.304263 0.500046 0.369040 -0.149805
C17   C     C_R   0.688054 0.137497 0.002018 -0.012174
C18   C     C_R   0.689766 0.864150 0.002583 -0.010737
C19   C     C_R   0.185584 0.637824 0.999055 -0.020504
C20   C     C_R   0.189672 0.364064 0.002344 -0.010869
C21   C     C_3   0.002296 0.955130 0.623797 -0.146560
C22   C     C_3   0.001861 0.045922 0.621871 -0.152693
C23   C     C_3   0.502317 0.455195 0.623501 -0.156434
C24   C     C_3   0.501992 0.545992 0.621641 -0.165089
C25   C     C_3   0.928467 0.000752 0.593384 0.333451
C26   C     C_3   0.428466 0.500846 0.592797 0.351823
C27   C     C_3   0.897442 0.999954 0.474702 0.212665
C28   C     C_3   0.397867 0.500061 0.474294 0.213312
C29   C     C_3   0.970155 0.954646 0.503147 -0.161679
C30   C     C_3   0.969748 0.044814 0.501263 -0.161877
C31   C     C_3   0.470597 0.454722 0.503021 -0.167515
C32   C     C_3   0.470302 0.544892 0.501203 -0.154452
C33   C     C_3   0.042266 0.999505 0.529692 -0.203087
C34   C     C_3   0.542844 0.499553 0.529925 -0.194258
C35   C     C_R   0.441744 0.848150 0.091504 -0.052555
C36   C     C_R   0.444435 0.152577 0.091871 -0.100732
C37   C     C_R   0.943342 0.347948 0.092210 -0.095732
C38   C     C_R   0.944189 0.652390 0.092096 -0.125609
C39   C     C_3   0.073609 0.000301 0.649193 0.084962
C40   C     C_3   0.573767 0.500340 0.649261 0.090018
C41   C     C_3   0.292094 0.780698 0.067179 -0.374966
C42   C     C_3   0.398830 0.264144 0.114400 -0.324982
C43   C     C_3   0.896500 0.237113 0.114950 -0.326598
C44   C     C_3   0.896782 0.762513 0.116493 -0.345372
C45   C     C_3   0.845246 0.186128 0.114227 -0.383714
C46   C     C_3   0.845296 0.813436 0.116460 -0.381394
C47   C     C_3   0.248924 0.729395 0.077242 -0.298126
C48   C     C_3   0.347499 0.315405 0.113762 -0.384716
C49   C     C_3   0.811394 0.225562 0.908280 0.399584
C50   C     C_3   0.815591 0.775906 0.911008 0.399000
C51   C     C_3   0.396192 0.716470 0.043843 0.403971
C52   C     C_3   0.312255 0.275159 0.907342 0.399926
C53   C     C_3   0.243507 0.755210 0.877749 -0.564985
C54   C     C_3   0.243143 0.215380 0.980502 -0.587153
C55   C     C_3   0.740672 0.285980 0.979573 -0.587559
C56   C     C_3   0.740832 0.715539 0.976737 -0.582466
C57   C     C_3   0.330055 0.768216 0.998108 0.151070
C58   C     C_3   0.336780 0.234374 0.000650 0.138138
C59   C     C_3   0.834878 0.266670 0.000883 0.139698
C60   C     C_3   0.836307 0.734107 0.001236 0.148221
C61   C     C_3   0.744109 0.182946 0.003239 0.165975
C62   C     C_3   0.745745 0.818392 0.003724 0.187523
C63   C     C_3   0.237608 0.684503 0.996322 0.182434
C64   C     C_3   0.245934 0.318470 0.003401 0.167469
C65   C     C_3   0.757044 0.175984 0.909610 -0.565774
C66   C     C_3   0.762144 0.826147 0.913138 -0.568134
C67   C     C_3   0.337943 0.665955 0.034359 -0.592660
C68   C     C_3   0.257805 0.324963 0.908855 -0.565500
C69   C     C_3   0.688065 0.237358 0.983759 0.423571
C70   C     C_3   0.687618 0.764554 0.979362 0.394889
C71   C     C_3   0.183395 0.710060 0.877431 0.376592
C72   C     C_3   0.190611 0.264175 0.985146 0.421088
C73   C     C_3   0.407802 0.060206 0.480836 -0.370634
C74   C     C_3   0.521716 0.980742 0.572069 -0.413577
C75   C     C_3   0.906890 0.560058 0.480231 -0.364639
C76   C     C_3   0.021556 0.480973 0.572172 -0.412352
C77   C     C_R   0.486320 0.046755 0.254757 -0.091757
C78   C     C_R   0.486497 0.954471 0.256285 -0.103272
C79   C     C_R   0.986422 0.546728 0.254918 -0.092293
C80   C     C_R   0.986556 0.454443 0.256340 -0.098157
C81   C     C_3   0.422654 0.060619 0.390549 -0.412705
C82   C     C_3   0.534516 0.980054 0.480051 -0.359290
C83   C     C_3   0.921926 0.560493 0.390066 -0.406840
C84   C     C_3   0.034509 0.480289 0.480264 -0.361699
C85   C     C_3   0.344966 0.964131 0.430463 -0.383183
C86   C     C_3   0.845057 0.463786 0.430533 -0.379190
C87   C     C_3   0.420471 0.001388 0.527772 0.372380
C88   C     C_3   0.920095 0.501301 0.527605 0.361105
C89   C     C_3   0.443450 0.001742 0.371082 0.371730
C90   C     C_3   0.943340 0.501681 0.371084 0.362126
C91   C     C_3   0.357595 0.965163 0.336851 -0.394960
C92   C     C_3   0.857795 0.464849 0.337005 -0.384545
C93   C     C_R   0.230493 0.954095 0.753332 -0.120518
C94   C     C_R   0.230358 0.046237 0.753181 -0.125593
C95   C     C_R   0.730537 0.454113 0.753528 -0.122648
C96   C     C_R   0.730420 0.546243 0.753390 -0.126784
C97   C     C_R   0.382681 0.183990 0.999992 0.132575
C98   C     C_R   0.377522 0.817868 0.998838 0.080307
C99   C     C_R   0.881915 0.683677 0.000337 0.113972
C100  C     C_R   0.880864 0.316796 0.000310 0.125579
C101  C     C_R   0.461843 0.001122 0.287437 -0.041543
C102  C     C_R   0.961901 0.501080 0.287546 -0.041080
C103  C     C_R   0.175609 0.000271 0.730783 0.065431
C104  C     C_R   0.675693 0.500289 0.731092 0.062562
C105  C     C_R   0.436805 0.046314 0.690822 0.224190
C106  C     C_R   0.437497 0.955088 0.689819 0.257750
C107  C     C_R   0.936292 0.546216 0.690566 0.175144
C108  C     C_R   0.937303 0.455042 0.689770 0.248671
C109  C     C_R   0.756345 0.954301 0.307494 0.340151
C110  C     C_R   0.756195 0.045645 0.307348 0.346949
C111  C     C_R   0.256634 0.454345 0.307320 0.345763
C112  C     C_R   0.256609 0.545735 0.306886 0.364084
H1    H     H_    0.306560 0.165591 0.822515 0.100285
H2    H     H_    0.309930 0.835131 0.822017 0.108127
H3    H     H_    0.806077 0.665676 0.822751 0.106241
H4    H     H_    0.805848 0.334690 0.822725 0.102019
H5    H     H_    0.017677 0.918824 0.676575 0.159303
H6    H     H_    0.016873 0.082894 0.673054 0.143628
H7    H     H_    0.517487 0.418894 0.676208 0.143760
H8    H     H_    0.516884 0.582956 0.672801 0.135444
H9    H     H_    0.957623 0.917515 0.453320 0.168063
H10   H     H_    0.956840 0.081271 0.449831 0.165021
H11   H     H_    0.458173 0.417606 0.453201 0.167658
H12   H     H_    0.457658 0.581340 0.449869 0.173594
H13   H     H_    0.090754 0.999016 0.504506 0.140523
H14   H     H_    0.591577 0.499041 0.505087 0.143481
H15   H     H_    0.349150 0.795222 0.151909 0.175421
H16   H     H_    0.469311 0.275447 0.134758 0.226530
H17   H     H_    0.967294 0.225510 0.136123 0.225065
H18   H     H_    0.968148 0.773902 0.139602 0.203688
H19   H     H_    0.237269 0.813778 0.026618 0.202683
H20   H     H_    0.411791 0.236805 0.181346 0.162730
H21   H     H_    0.908787 0.264728 0.181343 0.162242
H22   H     H_    0.907788 0.734281 0.181332 0.168828
H23   H     H_    0.179355 0.739714 0.060909 0.224270
H24   H     H_    0.345965 0.312826 0.186489 0.197382
H25   H     H_    0.842859 0.189165 0.186328 0.198015
H26   H     H_    0.840085 0.809122 0.186318 0.204327
H27   H     H_    0.886804 0.148611 0.125623 0.177644
H28   H     H_    0.888123 0.850757 0.131984 0.170510
H29   H     H_    0.297068 0.714717 0.164177 0.178294
H30   H     H_    0.388499 0.352763 0.124058 0.178704
H31   H     H_    0.795275 0.136886 0.921620 0.232023
H32   H     H_    0.802550 0.864613 0.929130 0.231396
H33   H     H_    0.374867 0.643825 0.114630 0.231385
H34   H     H_    0.295460 0.363961 0.919952 0.231526
H35   H     H_    0.268862 0.741767 0.828207 0.141543
H36   H     H_    0.196167 0.195435 0.897955 0.152385
H37   H     H_    0.694062 0.305899 0.896881 0.152111
H38   H     H_    0.695314 0.695868 0.893748 0.143792
H39   H     H_    0.483160 0.835500 0.176977 0.165579
H40   H     H_    0.489511 0.165521 0.177186 0.118467
H41   H     H_    0.987708 0.335200 0.177711 0.116865
H42   H     H_    0.989503 0.665306 0.177423 0.114509
H43   H     H_    0.198701 0.792418 0.836678 0.231091
H44   H     H_    0.258641 0.183750 0.042710 0.235738
H45   H     H_    0.755489 0.317694 0.041452 0.235684
H46   H     H_    0.754132 0.683833 0.037835 0.235444
H47   H     H_    0.616565 0.235088 0.902875 0.093000
H48   H     H_    0.617837 0.767846 0.896635 0.066442
H49   H     H_    0.172142 0.678269 0.817473 0.044761
H50   H     H_    0.118737 0.266419 0.904697 0.093474
H51   H     H_    0.764494 0.245693 0.826118 0.054559
H52   H     H_    0.769080 0.756658 0.827953 0.066752
H53   H     H_    0.422778 0.708998 0.993263 0.104520
H54   H     H_    0.265108 0.254881 0.825459 0.054627
H55   H     H_    0.686981 0.173431 0.827454 0.138568
H56   H     H_    0.693326 0.830472 0.830051 0.142507
H57   H     H_    0.331167 0.636461 0.973367 0.152158
H58   H     H_    0.187462 0.327395 0.826987 0.138936
H59   H     H_    0.335336 0.076186 0.445847 0.178072
H60   H     H_    0.534445 0.938575 0.606467 0.167567
H61   H     H_    0.834253 0.575795 0.445029 0.184017
H62   H     H_    0.034635 0.438857 0.606868 0.166538
H63   H     H_    0.461834 0.088183 0.546868 0.170202
H64   H     H_    0.576569 0.007767 0.640293 0.160727
H65   H     H_    0.960563 0.588229 0.546068 0.171843
H66   H     H_    0.076095 0.508177 0.640224 0.157092
H67   H     H_    0.483732 0.088141 0.418038 0.165012
H68   H     H_    0.596877 0.005766 0.504586 0.174084
H69   H     H_    0.982749 0.588204 0.417459 0.163865
H70   H     H_    0.096652 0.506181 0.504709 0.172263
H71   H     H_    0.358480 0.077728 0.312801 0.173981
H72   H     H_    0.550585 0.937324 0.469337 0.169524
H73   H     H_    0.857665 0.577389 0.312139 0.175854
H74   H     H_    0.050990 0.437608 0.469867 0.166094
H75   H     H_    0.272079 0.978172 0.398568 0.158840
H76   H     H_    0.352359 0.920986 0.456778 0.180258
H77   H     H_    0.772014 0.477564 0.398449 0.162369
H78   H     H_    0.852902 0.420677 0.457178 0.183493
H79   H     H_    0.480243 0.089570 0.267917 0.101412
H80   H     H_    0.481407 0.912205 0.273630 0.100950
H81   H     H_    0.980414 0.589530 0.268209 0.102157
H82   H     H_    0.981405 0.412150 0.273525 0.099994
H83   H     H_    0.291704 0.981266 0.259697 0.170864
H84   H     H_    0.368677 0.922594 0.319560 0.154710
H85   H     H_    0.791804 0.480745 0.259709 0.172069
H86   H     H_    0.869276 0.422312 0.320029 0.161634
H87   H     H_    0.207092 0.911949 0.737582 0.109407
H88   H     H_    0.206825 0.088463 0.737332 0.104392
H89   H     H_    0.707071 0.411988 0.737635 0.104057
H90   H     H_    0.706870 0.588464 0.737470 0.105495
H91   H     H_    0.748948 0.128561 0.179026 0.149351
H92   H     H_    0.750031 0.872846 0.179280 0.144584
H93   H     H_    0.249398 0.630445 0.177117 0.158789
H94   H     H_    0.249903 0.372418 0.179091 0.148680
H95   H     H_    0.571963 0.869576 0.824316 0.123036
H96   H     H_    0.569162 0.132137 0.823436 0.115228
H97   H     H_    0.071440 0.369450 0.824119 0.122356
H98   H     H_    0.070676 0.624027 0.821796 0.124340
N1    N     N_R   0.392450 0.103580 0.942190 -0.049450
N2    N     N_R   0.392450 0.896420 0.942190 -0.046950
N3    N     N_R   0.892450 0.603580 0.942190 -0.050001
N4    N     N_R   0.892450 0.396420 0.942190 -0.048939
N5    N     N_R   0.450490 0.896000 0.057360 -0.053541
N6    N     N_R   0.450490 0.104000 0.057360 -0.047086
N7    N     N_R   0.950490 0.396000 0.057360 -0.046601
N8    N     N_R   0.950490 0.604000 0.057360 -0.044381
N9    N     N_R   0.525490 0.028390 0.207550 -0.035011
N10   N     N_R   0.525490 0.971610 0.207550 -0.034011
N11   N     N_R   0.025490 0.528390 0.207550 -0.034498
N12   N     N_R   0.025490 0.471610 0.207550 -0.033513
N13   N     N_R   0.317450 0.971190 0.792000 -0.040648
N14   N     N_R   0.317450 0.028810 0.792000 -0.042636
N15   N     N_R   0.817450 0.471190 0.792000 -0.040589
N16   N     N_R   0.817450 0.528810 0.792000 -0.043534
N17   N     N_R   0.473900 0.028390 0.792280 -0.071923
N18   N     N_R   0.473900 0.971610 0.792280 -0.071099
N19   N     N_R   0.973900 0.528390 0.792280 -0.076095
N20   N     N_R   0.973900 0.471610 0.792280 -0.071046
N21   N     N_R   0.682310 0.971180 0.208170 -0.115788
N22   N     N_R   0.682310 0.028820 0.208170 -0.114642
N23   N     N_R   0.182310 0.471180 0.208170 -0.113917
N24   N     N_R   0.182310 0.528820 0.208170 -0.107965
N25   N     N_R   0.606470 0.103570 0.057210 -0.027937
N26   N     N_R   0.606470 0.896430 0.057210 -0.025388
N27   N     N_R   0.106470 0.603570 0.057210 -0.029277
N28   N     N_R   0.106470 0.396430 0.057210 -0.026360
N29   N     N_R   0.549740 0.896000 0.943240 -0.038711
N30   N     N_R   0.549740 0.104000 0.943240 -0.035065
N31   N     N_R   0.049740 0.396000 0.943240 -0.036053
N32   N     N_R   0.049740 0.604000 0.943240 -0.035651
Ni1   Ni    Ni4+2 0.433780 0.065390 0.868430 0.212051
Ni2   Ni    Ni4+2 0.433780 0.934610 0.868430 0.205279
Ni3   Ni    Ni4+2 0.933780 0.565390 0.868430 0.223157
Ni4   Ni    Ni4+2 0.933780 0.434610 0.868430 0.214335
Ni5   Ni    Ni4+2 0.565800 0.934190 0.131570 0.296263
Ni6   Ni    Ni4+2 0.565800 0.065810 0.131570 0.283733
Ni7   Ni    Ni4+2 0.065800 0.434190 0.131570 0.287079
Ni8   Ni    Ni4+2 0.065800 0.565810 0.131570 0.268815
Cl1   Cl    Cl    0.916122 0.203623 0.921485 -0.614321
Cl2   Cl    Cl    0.922183 0.796505 0.927767 -0.603874
Cl3   Cl    Cl    0.499525 0.723746 0.184118 -0.611093
Cl4   Cl    Cl    0.416202 0.296704 0.919083 -0.613728
Cl5   Cl    Cl    0.068329 0.738405 0.827642 -0.614272
Cl6   Cl    Cl    0.171301 0.251807 0.088811 -0.602943
Cl7   Cl    Cl    0.667427 0.249964 0.086338 -0.602573
Cl8   Cl    Cl    0.660699 0.751512 0.076274 -0.616132
C113  C     C_3   0.381177 0.099359 0.652199 -1.002844
H99   H     H_    0.371773 0.115154 0.714553 0.259305
H100  H     H_    0.419022 0.131542 0.640325 0.241912
H101  H     H_    0.308822 0.093022 0.574824 0.248080
C114  C     C_3   0.394752 0.899221 0.649543 -1.053626
H102  H     H_    0.399625 0.875858 0.716130 0.260353
H103  H     H_    0.318018 0.902882 0.580221 0.255072
H104  H     H_    0.433080 0.875871 0.623390 0.243271
C115  C     C_3   0.880636 0.599267 0.651982 -0.926724
H105  H     H_    0.871053 0.614965 0.714247 0.258796
H106  H     H_    0.918650 0.631517 0.640501 0.260005
H107  H     H_    0.808369 0.592990 0.574438 0.243303
C116  C     C_3   0.894402 0.399196 0.649632 -1.032902
H108  H     H_    0.899016 0.375973 0.716189 0.263730
H109  H     H_    0.817736 0.402887 0.580122 0.254677
H110  H     H_    0.932810 0.375698 0.623769 0.242939
Cl9   Cl    Cl    0.761715 0.889857 0.363422 -0.645177
Cl10  Cl    Cl    0.761181 0.110209 0.363021 -0.686225
Cl11  Cl    Cl    0.262348 0.389948 0.363601 -0.683735
Cl12  Cl    Cl    0.262368 0.610536 0.362165 -0.719698
C117  C     C_3   0.860405 0.001404 0.625289 -0.909752
H111  H     H_    0.901505 0.001844 0.716659 0.248249
H112  H     H_    0.814588 0.038529 0.590549 0.266973
H113  H     H_    0.814896 0.964320 0.591973 0.270382
C118  C     C_3   0.360050 0.501520 0.624189 -0.947595
H114  H     H_    0.400865 0.501949 0.715525 0.245070
H115  H     H_    0.314278 0.538656 0.589294 0.266181
H116  H     H_    0.314518 0.464448 0.590682 0.273722

loop_
_geom_bond_atom_site_label_1
_geom_bond_atom_site_label_2
_ccdc_geom_bond_type
C16   C28   S    
C114  H104  S    
N21   Ni5   S    
C10   N30   A    
C55   C59   S    
C1    N1    A    
C2    H2    S    
N25   N30   A    
C32   H12   S    
C77   C101  A    
N13   N14   A    
C15   C110  A    
C37   N7    A    
C25   C117  S    
C60   C99   S    
C20   C64   S    
C76   C84   S    
C95   N15   A    
C47   H23   S    
C85   C91   S    
N23   Ni7   S    
C114  H102  S    
C108  C116  S    
C108  N20   A    
C67   H57   S    
C74   H64   S    
N28   N31   A    
C83   H69   S    
C33   C39   S    
C82   C89   S    
C35   H39   S    
N27   N32   A    
C46   C62   S    
C34   C40   S    
C10   H96   S    
C111  Cl11  S    
C46   H28   S    
C93   H87   S    
C70   Cl8   S    
C24   C26   S    
C93   N13   A    
C69   Cl7   S    
C76   H66   S    
N17   Ni1   S    
C66   H32   S    
C65   H31   S    
C115  H107  S    
C86   C88   S    
C117  H113  S    
C75   H61   S    
C57   C98   S    
C10   C17   A    
C3    N3    A    
C23   C40   S    
C82   H72   S    
C53   H35   S    
C27   C29   S    
C62   C70   S    
C114  H103  S    
C72   Cl6   S    
C23   C26   S    
C45   C61   S    
C43   H21   S    
C52   Cl4   S    
C73   C87   S    
C7    C19   A    
C21   H5    S    
C111  N23   A    
C49   C65   S    
C68   H58   S    
C44   H18   S    
C45   H27   S    
C90   C102  S    
C116  H110  S    
C7    N27   A    
C29   C33   S    
C19   C63   S    
C22   C25   S    
C29   H9    S    
C67   H33   S    
C56   H46   S    
C117  H111  S    
C79   C102  A    
C79   N11   A    
N29   Ni2   S    
C51   C57   S    
C74   C87   S    
C73   H59   S    
C35   C98   A    
C71   H49   S    
N23   N24   A    
C76   C88   S    
C4    H4    S    
C74   H60   S    
C52   C68   S    
C43   C59   S    
N5    Ni5   S    
C46   H26   S    
N19   Ni3   S    
C113  H101  S    
C85   H76   S    
C14   C108  A    
N1    N6    A    
C6    N26   A    
C105  C113  S    
C27   C30   S    
C94   N14   A    
C59   C100  S    
N8    Ni8   S    
N26   Ni5   S    
C42   C58   S    
C93   C103  A    
C58   C97   S    
C1    H1    S    
C74   C82   S    
C92   H86   S    
C73   C81   S    
C44   C46   S    
C85   H75   S    
C55   H37   S    
C12   H98   S    
C85   C87   S    
C44   H22   S    
C15   C27   S    
C6    C18   A    
C63   C67   S    
C11   C20   A    
C24   H8    S    
N32   Ni3   S    
C4    N4    A    
C113  H99   S    
C62   C66   S    
C50   H52   S    
N31   Ni4   S    
C77   H79   S    
C37   H41   S    
C28   C32   S    
C78   H80   S    
C81   H67   S    
C13   C105  A    
C9    H95   S    
C86   H78   S    
C1    C97   A    
N9    N10   A    
C41   H19   S    
C53   C57   S    
C18   C62   S    
C36   H40   S    
N24   Ni8   S    
C14   C88   S    
C80   N12   A    
C83   C90   S    
N30   Ni1   S    
C56   C60   S    
C47   C63   S    
C80   C102  A    
N22   Ni6   S    
C23   C31   S    
C30   H10   S    
C73   H63   S    
C42   C48   S    
C8    H94   S    
C24   C32   S    
C6    H92   S    
N19   N20   A    
N1    Ni1   S    
C40   C104  S    
N11   N12   A    
C91   H83   S    
C9    C18   A    
C90   C92   S    
N17   N18   A    
N18   Ni2   S    
N2    N5    A    
C43   H17   S    
N13   Ni2   S    
C34   H14   S    
C13   C87   S    
C109  Cl9   S    
C33   H13   S    
N15   N16   A    
C41   C47   S    
C31   C34   S    
C48   H30   S    
N4    Ni4   S    
C51   C67   S    
C36   N6    A    
C5    C17   A    
N3    Ni3   S    
C43   C45   S    
C71   Cl5   S    
C26   C118  S    
C55   C69   S    
C52   C58   S    
C110  Cl10  S    
C110  N22   A    
C78   N10   A    
C68   H34   S    
C36   C97   A    
C14   C107  A    
C8    C20   A    
N10   Ni5   S    
C63   C71   S    
C94   C103  A    
C53   H43   S    
C56   C70   S    
C15   C109  A    
C4    C100  A    
N28   Ni7   S    
C107  C115  S    
C11   N31   A    
C106  N18   A    
N27   Ni8   S    
C51   H53   S    
C25   C27   S    
C83   H73   S    
C38   H42   S    
C17   C61   S    
C56   H38   S    
C92   H85   S    
C51   Cl3   S    
C64   C68   S    
N25   Ni6   S    
C13   C106  A    
C50   Cl2   S    
C95   C104  A    
C16   C112  A    
N16   Ni3   S    
C54   H36   S    
C45   H25   S    
C54   C58   S    
C41   H15   S    
C61   C69   S    
N15   Ni4   S    
C116  H109  S    
C96   C104  A    
C21   C25   S    
C24   C40   S    
C86   H77   S    
C72   H50   S    
C22   C30   S    
C30   C33   S    
C89   C101  S    
C2    N2    A    
C21   C39   S    
C48   H24   S    
C28   C31   S    
C77   N9    A    
C38   C99   A    
C113  H100  S    
N4    N7    A    
N20   Ni4   S    
C5    H91   S    
C42   H20   S    
C115  H105  S    
C50   C66   S    
N14   Ni1   S    
C39   C103  S    
C9    N29   A    
C42   H16   S    
N6    Ni6   S    
C80   H82   S    
C31   H11   S    
C65   H55   S    
C26   C28   S    
C38   N8    A    
C79   H81   S    
N26   N29   A    
C66   H56   S    
C118  H116  S    
N3    N8    A    
C50   C60   S    
C118  H114  S    
C84   H70   S    
C84   H74   S    
C81   C89   S    
C96   H90   S    
N2    Ni2   S    
C86   C92   S    
C95   H89   S    
C49   C59   S    
C117  H112  S    
C54   H44   S    
C91   H84   S    
C109  N21   A    
C75   C83   S    
C21   C29   S    
C44   C60   S    
C112  N24   A    
C22   C39   S    
C12   N32   A    
C12   C19   A    
C8    N28   A    
C106  C114  S    
C69   H47   S    
C70   H48   S    
C47   H29   S    
C94   H88   S    
C76   H62   S    
C105  N17   A    
C61   C65   S    
C75   H65   S    
C112  Cl12  S    
C49   H51   S    
C64   C72   S    
C48   C64   S    
C84   C90   S    
C41   C57   S    
C7    H93   S    
C49   Cl1   S    
N12   Ni7   S    
C3    C99   A    
C75   C88   S    
C55   H45   S    
C54   C72   S    
N11   Ni8   S    
C2    C98   A    
C89   C91   S    
C5    N25   A    
C22   H6    S    
C82   H68   S    
N21   N22   A    
C107  N19   A    
C81   H71   S    
N9    Ni6   S    
C115  H106  S    
C23   H7    S    
C3    H3    S    
N7    Ni7   S    
C96   N16   A    
C35   N5    A    
C52   H54   S    
C37   C100  A    
C11   H97   S    
C116  H108  S    
C16   C111  A    
C32   C34   S    
C118  H115  S    
C78   C101  A    
C53   C71   S    
