data_mof_unit_53080.cif
_audit_creation_date              2012-12-11T15:42:40-0500
_audit_creation_method            fapswitch 2.2
_symmetry_space_group_name_H-M    P1
_symmetry_Int_Tables_number       1
_space_group_crystal_system       triclinic
_cell_length_a                    6.929443
_cell_length_b                    14.552449
_cell_length_c                    16.196631
_cell_angle_alpha                 90.492934
_cell_angle_beta                  90.152884
_cell_angle_gamma                 89.833222
_cell_volume                      1633.20112583

loop_
_atom_site_label
_atom_site_type_symbol
_atom_type_description
_atom_site_fract_x
_atom_site_fract_y
_atom_site_fract_z
_atom_type_partial_charge
O1    O     O_R   0.505810 0.583360 0.413880 -0.541609
O2    O     O_R   0.175870 0.595480 0.585520 -0.544861
O3    O     O_R   0.005540 0.416640 0.586120 -0.538776
C1    C     C_R   0.344962 0.617856 0.614514 0.686250
O4    O     O_R   0.176100 0.594390 0.414490 -0.545103
O5    O     O_R   0.005770 0.415540 0.413870 -0.539366
C2    C     C_R   0.344986 0.616590 0.385772 0.683148
O6    O     O_R   0.505580 0.584460 0.586130 -0.542272
O7    O     O_3   0.339190 0.441320 0.500000 -0.362648
V1    V     V_3+5 0.064350 0.510890 0.500000 1.406934
O8    O     O_R   0.676050 0.404520 0.414480 -0.548473
C3    C     C_R   0.845096 0.382204 0.385783 0.682936
O9    O     O_R   0.675830 0.405610 0.585510 -0.513651
C4    C     C_R   0.845410 0.384467 0.614157 0.778076
V2    V     V_3+5 0.564340 0.489110 0.500000 1.426812
O10   O     O_3   0.839370 0.558680 0.500000 -0.377255
C5    C     C_2   0.729873 0.219036 0.791459 0.265242
C6    C     C_2   0.880974 0.162747 0.809122 0.127570
C7    C     C_2   0.719938 0.265008 0.709073 0.355510
C8    C     C_2   0.860102 0.323697 0.686462 -0.406850
H1    H     H_    0.989021 0.329768 0.724515 0.129705
C9    C     C_R   0.025144 0.244428 0.201034 -0.081941
H2    H     H_    0.147008 0.246275 0.159336 0.135585
C10   C     C_R   0.015112 0.309796 0.264774 -0.136239
H3    H     H_    0.130388 0.359496 0.271097 0.115560
C11   C     C_R   0.856194 0.312565 0.318381 -0.065726
C12   C     C_R   0.709902 0.247027 0.308290 -0.184934
H4    H     H_    0.589424 0.246778 0.350809 0.134285
C13   C     C_R   0.722371 0.178232 0.246976 -0.082334
C14   C     C_R   0.879198 0.178359 0.190329 -0.125825
C15   C     C_R   0.188619 0.726389 0.716836 -0.159488
H5    H     H_    0.047951 0.709792 0.691659 0.115345
C16   C     C_R   0.199984 0.788779 0.783072 -0.160413
H6    H     H_    0.067494 0.818604 0.806544 0.108627
C17   C     C_R   0.379439 0.812396 0.818348 -0.041968
C18   C     C_R   0.547292 0.772367 0.784992 -0.162506
H7    H     H_    0.687991 0.789080 0.810084 0.111751
C19   C     C_R   0.535930 0.709997 0.718749 -0.153587
H8    H     H_    0.668465 0.680331 0.695171 0.116324
C20   C     C_R   0.356396 0.685905 0.683814 -0.047475
C21   C     C_R   0.188296 0.723839 0.283739 -0.155364
H9    H     H_    0.047370 0.705738 0.307174 0.116983
C22   C     C_R   0.199831 0.786928 0.219034 -0.150336
H10   H     H_    0.067088 0.815617 0.194857 0.116569
C23   C     C_R   0.379684 0.812620 0.186104 -0.027378
C24   C     C_R   0.547693 0.773638 0.220037 -0.123654
H11   H     H_    0.688618 0.791846 0.196666 0.114646
C25   C     C_R   0.536160 0.710564 0.284755 -0.153506
H12   H     H_    0.668910 0.681966 0.309001 0.117365
C26   C     C_R   0.356273 0.684651 0.317524 -0.048442
O11   O     O_R   0.230120 0.912300 0.917180 -0.550756
O12   O     O_R   0.559740 0.902430 0.088770 -0.538666
O13   O     O_R   0.729930 0.081310 0.089370 -0.530450
C27   C     C_R   0.390882 0.880297 0.117572 0.736043
O14   O     O_R   0.559840 0.901330 0.917750 -0.550526
O15   O     O_R   0.730030 0.080210 0.917120 -0.516992
C28   C     C_R   0.390802 0.879509 0.888346 0.667349
O16   O     O_R   0.230020 0.913400 0.089430 -0.546503
O17   O     O_3   0.396460 0.055470 0.003290 -0.346773
V3    V     V_3+5 0.671360 0.985960 0.003250 1.457343
O18   O     O_R   0.059740 0.091300 0.917690 -0.539054
C29   C     C_R   0.890344 0.110721 0.887790 0.688428
O19   O     O_R   0.059640 0.092400 0.088720 -0.530334
C30   C     C_R   0.890739 0.112531 0.119260 0.685194
V4    V     V_3+5 0.171350 0.007820 0.003190 1.466985
O20   O     O_3   0.896380 0.938200 0.003220 -0.387727
O21   O     O_3   0.576636 0.224208 0.847157 -0.546809
C31   C     C_3   0.481173 0.310030 0.844530 0.141677
H13   H     H_    0.387777 0.314320 0.788797 0.176501
H14   H     H_    0.585932 0.368042 0.845433 0.083957
C32   C     C_3   0.352041 0.319507 0.919938 -0.712959
H15   H     H_    0.440060 0.315264 0.977206 0.216021
H16   H     H_    0.276284 0.386835 0.918851 0.161455
H17   H     H_    0.242872 0.263797 0.919955 0.233477
O22   O     O_3   0.021392 0.146869 0.749448 -0.557286
C33   C     C_3   0.015503 0.053049 0.725391 0.107442
H18   H     H_    0.864517 0.028758 0.715189 0.081563
H19   H     H_    0.086043 0.009535 0.772897 0.129530
C34   C     C_3   0.123894 0.039527 0.644929 -0.703634
H20   H     H_    0.118488 0.966058 0.625936 0.177212
H21   H     H_    0.056734 0.081750 0.595769 0.208995
H22   H     H_    0.276801 0.059528 0.653500 0.232314
O23   O     O_3   0.555934 0.254077 0.661012 -0.542638
C35   C     C_3   0.594452 0.187540 0.599100 0.142044
H23   H     H_    0.588101 0.117628 0.626063 0.108219
H24   H     H_    0.738781 0.196576 0.569835 0.094526
C36   C     C_3   0.443573 0.195692 0.531107 -0.684024
H25   H     H_    0.296294 0.195041 0.557710 0.231673
H26   H     H_    0.463388 0.261203 0.497700 0.226494
H27   H     H_    0.458900 0.137675 0.486598 0.172995
C37   C     C_2   0.575169 0.104280 0.247952 0.790665
O24   O     O_2   0.404382 0.124386 0.252621 -0.548779
O25   O     O_R   0.628296 0.011509 0.247137 -0.649350
H28   H     H_    0.772993 0.001758 0.249780 0.241915

loop_
_geom_bond_atom_site_label_1
_geom_bond_atom_site_label_2
_ccdc_geom_bond_type
C36   H25   S    
O19   V4    S    
O25   H28   S    
C14   C30   S    
C12   C13   A    
C21   H9    S    
C7    C8    D    
C35   C36   S    
C1    O6    A    
C23   C24   A    
C11   C12   A    
C6    O22   S    
C18   H7    S    
C33   H19   S    
O5    C3    A    
C19   H8    S    
O13   C30   A    
V2    O10   S    
C15   C20   A    
O11   V4    S    
O12   V3    S    
C32   H17   S    
C16   C17   A    
O8    V2    S    
C1    C20   S    
C31   H13   S    
C15   C16   A    
O11   C28   A    
O7    V1    S    
C25   C26   A    
V3    O20   S    
O17   V3    S    
O14   V3    S    
C21   C22   A    
C7    O23   S    
O13   V3    S    
O12   C27   A    
C16   H6    S    
O4    C2    A    
C33   H18   S    
C24   C25   A    
C5    O21   S    
O21   C31   S    
C4    C8    S    
C10   H3    S    
C37   O24   D    
C34   H21   S    
C6    C29   S    
O15   V3    S    
C3    C11   S    
C17   C18   A    
O2    C1    A    
O22   C33   S    
C13   C14   A    
C37   O25   S    
O16   V4    S    
O23   C35   S    
C5    C6    D    
O14   C28   A    
C35   H23   S    
C22   C23   A    
O3    C4    A    
O1    V2    S    
C25   H12   S    
C23   C27   S    
O6    V2    S    
O9    V2    S    
C22   H10   S    
O15   C29   A    
C34   H20   S    
O2    V1    S    
C21   C26   A    
C13   C37   S    
C32   H16   S    
C27   O16   A    
C24   H11   S    
C9    C14   A    
O1    C2    A    
C15   H5    S    
C2    C26   S    
C10   C11   A    
O5    V1    S    
C34   H22   S    
O8    C3    A    
C17   C28   S    
C18   C19   A    
O7    V2    S    
O4    V1    S    
O3    V1    S    
V1    O10   S    
O17   V4    S    
C19   C20   A    
C31   C32   S    
C5    C7    S    
C9    C10   A    
O18   C29   A    
O19   C30   A    
O18   V4    S    
C32   H15   S    
C33   C34   S    
C8    H1    S    
C31   H14   S    
V4    O20   S    
C36   H27   S    
C12   H4    S    
C36   H26   S    
C9    H2    S    
C35   H24   S    
O9    C4    A    
