data_mof_unit_42030.cif
_audit_creation_date              2012-12-10T16:57:43-0500
_audit_creation_method            fapswitch 2.2
_symmetry_space_group_name_H-M    P1
_symmetry_Int_Tables_number       1
_space_group_crystal_system       triclinic
_cell_length_a                    7.757041
_cell_length_b                    8.577643
_cell_length_c                    19.018094
_cell_angle_alpha                 91.060014
_cell_angle_beta                  85.295639
_cell_angle_gamma                 93.697285
_cell_volume                      1258.41049464

loop_
_atom_site_label
_atom_site_type_symbol
_atom_type_description
_atom_site_fract_x
_atom_site_fract_y
_atom_site_fract_z
_atom_type_partial_charge
C1    C     C_R   0.545893 0.794834 0.498149 0.971261
C2    C     C_R   0.641008 0.670067 0.185357 0.365322
C3    C     C_R   0.499225 0.553526 0.856060 -0.082923
C4    C     C_R   0.499751 0.612390 0.148514 -0.084074
C5    C     C_R   0.642082 0.608450 0.811714 -0.142601
C6    C     C_R   0.358357 0.529159 0.183814 -0.135331
C7    C     C_R   0.644004 0.583660 0.739626 -0.201700
C8    C     C_R   0.360591 0.495257 0.254539 -0.197447
C9    C     C_R   0.503007 0.503558 0.710921 -0.189939
C10   C     C_R   0.504053 0.544323 0.290989 -0.192605
C11   C     C_R   0.504931 0.620941 0.072148 0.354596
C12   C     C_R   0.454109 0.205163 0.501787 0.973945
C13   C     C_R   0.502243 0.584429 0.931341 0.345963
C14   C     C_2   0.570092 0.958261 0.496964 -0.336407
C15   C     C_2   0.429918 0.041717 0.502826 -0.345431
C16   C     C_R   0.500513 0.497075 0.634661 0.932793
C17   C     C_R   0.500518 0.508592 0.365576 0.931142
C18   C     C_R   0.362062 0.440227 0.755246 0.328643
C19   C     C_R   0.643161 0.636679 0.257018 0.325121
C20   C     C_R   0.360025 0.465431 0.828216 0.365690
Cl1   Cl    Cl    0.191393 0.323561 0.720520 -0.519569
Cl2   Cl    Cl    0.816253 0.719102 0.303697 -0.526985
Cl3   Cl    Cl    0.187330 0.378833 0.883894 -0.472116
Cl4   Cl    Cl    0.812408 0.788752 0.142909 -0.476627
H1    H     H_    0.753156 0.632198 0.706001 0.185745
H2    H     H_    0.251560 0.427613 0.280513 0.191414
H3    H     H_    0.013943 0.382008 0.447242 0.199014
H4    H     H_    0.986055 0.618003 0.552754 0.195710
H5    H     H_    0.750764 0.674093 0.832813 0.199239
H6    H     H_    0.249089 0.484077 0.155867 0.203704
H7    H     H_    0.702442 0.009373 0.491313 0.190291
H8    H     H_    0.297570 0.990595 0.508454 0.188757
N1    N     N_R   0.650415 0.570637 0.963039 -0.115246
N2    N     N_R   0.357731 0.638688 0.040218 -0.114735
N3    N     N_R   0.651354 0.587603 0.032447 -0.083447
N4    N     N_R   0.356850 0.621923 0.970738 -0.082175
N5    N     N_2   0.950330 0.457950 0.481240 -0.148825
N6    N     N_2   0.049670 0.542050 0.518760 -0.150690
O1    O     O_R   0.389250 0.738570 0.504600 -0.618990
O2    O     O_R   0.610750 0.261430 0.495400 -0.616525
O3    O     O_R   0.678400 0.711620 0.492580 -0.611567
O4    O     O_R   0.321600 0.288380 0.507420 -0.616973
O5    O     O_R   0.355380 0.513500 0.607880 -0.573344
O6    O     O_R   0.644620 0.486500 0.392120 -0.567799
O7    O     O_R   0.644530 0.486550 0.595850 -0.629404
O8    O     O_R   0.355470 0.513450 0.404150 -0.626988
Zn1   Zn    Zn3+2 0.306930 0.517990 0.508030 1.004441
Zn2   Zn    Zn3+2 0.693070 0.482010 0.491970 1.007676

loop_
_geom_bond_atom_site_label_1
_geom_bond_atom_site_label_2
_ccdc_geom_bond_type
C16   O7    A    
C12   O2    A    
C2    C4    A    
C12   C15   S    
C13   N1    A    
N5    N6    D    
C18   Cl1   S    
C8    H2    S    
C14   H7    S    
N2    N4    A    
C7    H1    S    
C20   Cl3   S    
H4    N6    S    
C10   C19   A    
C11   N3    A    
C17   O6    A    
C5    C7    A    
C3    C20   A    
C4    C11   S    
C16   O5    A    
N6    Zn1   S    
H3    N5    S    
C1    O3    A    
N1    N3    A    
C9    C16   S    
C18   C20   A    
O4    Zn1   S    
C11   N2    A    
C2    Cl4   S    
C1    O1    A    
C10   C17   S    
C12   O4    A    
C5    H5    S    
C3    C5    A    
C9    C18   A    
C15   H8    S    
C19   Cl2   S    
C17   O8    A    
C13   N4    A    
C4    C6    A    
O7    Zn2   S    
C7    C9    A    
O2    Zn2   S    
C14   C15   D    
C6    C8    A    
C1    C14   S    
C6    H6    S    
C2    C19   A    
O8    Zn1   S    
O1    Zn1   S    
O5    Zn1   S    
O3    Zn2   S    
C8    C10   A    
O6    Zn2   S    
N5    Zn2   S    
C3    C13   S    
