data_mof_unit_43098.cif
_audit_creation_date              2012-12-11T14:47:53-0500
_audit_creation_method            fapswitch 2.2
_symmetry_space_group_name_H-M    P1
_symmetry_Int_Tables_number       1
_space_group_crystal_system       triclinic
_cell_length_a                    8.235604
_cell_length_b                    15.071847
_cell_length_c                    22.851115
_cell_angle_alpha                 96.569956
_cell_angle_beta                  89.733432
_cell_angle_gamma                 99.086233
_cell_volume                      2782.16666647

loop_
_atom_site_label
_atom_site_type_symbol
_atom_type_description
_atom_site_fract_x
_atom_site_fract_y
_atom_site_fract_z
_atom_type_partial_charge
Ba1   Ba    Ba6+2 0.857590 0.542650 0.472590 1.655211
Ba2   Ba    Ba6+2 0.332250 0.457420 0.527420 1.654599
C1    C     C_3   0.691866 0.873424 0.324206 -0.373841
C2    C     C_3   0.662829 0.779057 0.343585 0.344589
C3    C     C_3   0.590949 0.318911 0.340936 0.259902
C4    C     C_3   0.569460 0.296061 0.274412 -0.395990
C5    C     C_3   0.054230 0.263419 0.687912 0.650326
C6    C     C_3   0.109207 0.244563 0.748877 0.028483
C7    C     C_3   0.499544 0.223342 0.653884 0.326841
C8    C     C_3   0.482283 0.128850 0.673262 -0.393716
C9    C     C_R   0.349465 0.513399 0.329954 -0.350318
C10   C     C_R   0.114882 0.575661 0.938540 -0.022096
C11   C     C_R   0.066390 0.572169 0.878790 0.570381
C12   C     C_3   0.138040 0.730842 0.314768 0.318275
C13   C     C_R   0.951605 0.415134 0.876996 0.573128
C14   C     C_R   0.002015 0.415915 0.936239 -0.026105
C15   C     C_R   0.082630 0.496941 0.967297 -0.049254
C16   C     C_R   0.194027 0.656282 0.970395 -0.086642
C17   C     C_R   0.238690 0.658916 0.029661 -0.078766
C18   C     C_R   0.207159 0.580819 0.059013 -0.018688
C19   C     C_R   0.130284 0.499369 0.027477 -0.053854
C20   C     C_R   0.973489 0.337427 0.965222 -0.081303
C21   C     C_R   0.023493 0.339399 0.023853 -0.074964
C22   C     C_R   0.101349 0.420256 0.055828 -0.026672
C23   C     C_3   0.118473 0.754354 0.252576 -0.321289
C24   C     C_R   0.150300 0.423663 0.115490 0.587635
C25   C     C_R   0.249735 0.582677 0.119219 0.571401
C26   C     C_2   0.774512 0.464831 0.770190 0.000044
C27   C     C_3   0.721925 0.475553 0.708087 -0.005314
C28   C     C_1   0.008443 0.517108 0.685068 0.042954
C29   C     C_2   0.056789 0.519777 0.740943 -0.104037
C30   C     C_2   0.934577 0.490577 0.787076 0.205237
C31   C     C_R   0.419953 0.545393 0.230846 -0.132820
C32   C     C_R   0.462277 0.550367 0.290553 -0.009945
C33   C     C_R   0.191493 0.473158 0.311643 -0.023586
C34   C     C_3   0.252301 0.736095 0.603832 0.313814
C35   C     C_R   0.141877 0.473832 0.252176 0.329730
C36   C     C_R   0.259369 0.508128 0.210324 0.157328
C37   C     C_2   0.863388 0.473767 0.666285 -0.221377
C38   C     C_R   0.760369 0.233007 0.513851 -0.232333
C39   C     C_R   0.842832 0.174534 0.540713 0.031712
C40   C     C_R   0.773153 0.082690 0.538924 -0.163671
C41   C     C_R   0.630924 0.046605 0.503581 0.035204
C42   C     C_R   0.563095 0.107091 0.471227 -0.108590
C43   C     C_R   0.619654 0.199734 0.479902 0.002712
C44   C     C_R   0.392941 0.915648 0.476760 0.108034
C45   C     C_3   0.317511 0.833353 0.628351 -0.401751
C46   C     C_R   0.338287 0.822370 0.462512 0.000218
C47   C     C_R   0.583992 0.788689 0.506689 0.077460
C48   C     C_R   0.649691 0.881228 0.513835 -0.158771
C49   C     C_R   0.557435 0.947041 0.497849 -0.000628
C50   C     C_R   0.434706 0.759818 0.477123 -0.325963
C51   C     C_3   0.093483 0.254335 0.331812 0.493072
C52   C     C_3   0.016692 0.228709 0.269673 -0.050036
C53   C     C_3   0.688173 0.671137 0.656686 0.282235
C54   C     C_3   0.615761 0.699471 0.716746 -0.086846
H1    H     H_    0.734297 0.781281 0.384966 0.084756
H2    H     H_    0.402049 0.834413 0.666236 0.129854
H3    H     H_    0.385741 0.869873 0.594322 0.061091
H4    H     H_    0.213922 0.868980 0.643384 0.114370
H5    H     H_    0.218792 0.292785 0.327757 0.000463
H6    H     H_    0.987313 0.290552 0.253345 0.124885
H7    H     H_    0.897309 0.182368 0.270198 0.069566
H8    H     H_    0.818362 0.662504 0.662076 0.005485
H9    H     H_    0.615829 0.606169 0.637111 0.044227
H10   H     H_    0.824876 0.894607 0.316427 0.131051
H11   H     H_    0.651532 0.773658 0.728923 0.107879
H12   H     H_    0.479306 0.684668 0.712954 0.113179
H13   H     H_    0.529451 0.760588 0.352012 -0.047893
H14   H     H_    0.650718 0.922239 0.359117 0.063240
H15   H     H_    0.568775 0.389683 0.353535 0.050826
H16   H     H_    0.716586 0.310190 0.352245 0.093091
H17   H     H_    0.439962 0.296875 0.260412 0.129579
H18   H     H_    0.652797 0.347032 0.252148 0.131224
H19   H     H_    0.602327 0.227543 0.260740 0.116570
H20   H     H_    0.621331 0.874145 0.283002 0.126253
H21   H     H_    0.100509 0.691430 0.221467 0.120056
H22   H     H_    0.133863 0.325840 0.677911 0.065213
H23   H     H_    0.237347 0.230406 0.747685 0.075634
H24   H     H_    0.110780 0.307490 0.779571 0.083397
H25   H     H_    0.607223 0.232735 0.624533 0.014172
H26   H     H_    0.386703 0.227793 0.628878 0.090234
H27   H     H_    0.591183 0.121581 0.700000 0.129327
H28   H     H_    0.472568 0.077375 0.633714 0.073167
H29   H     H_    0.037865 0.675152 0.321855 0.110202
H30   H     H_    0.369734 0.115307 0.700250 0.120311
H31   H     H_    0.999238 0.277330 0.044304 0.116084
H32   H     H_    0.912716 0.273888 0.942544 0.113255
H33   H     H_    0.298112 0.722642 0.052493 0.119402
H34   H     H_    0.511579 0.571769 0.200501 0.124598
H35   H     H_    0.220850 0.718007 0.949670 0.118124
H36   H     H_    0.184601 0.542876 0.753563 0.112858
H37   H     H_    0.681517 0.446548 0.802405 0.088014
H38   H     H_    0.385389 0.516122 0.375704 0.094616
H39   H     H_    0.258597 0.707728 0.318986 -0.038201
H40   H     H_    0.849331 0.432491 0.623879 0.083477
H41   H     H_    0.831299 0.041109 0.565028 0.057830
H42   H     H_    0.770502 0.900418 0.533678 0.090137
H43   H     H_    0.468081 0.084035 0.438239 0.088584
H44   H     H_    0.387434 0.688242 0.469586 0.080983
H45   H     H_    0.809941 0.304342 0.517466 0.082475
H46   H     H_    0.008984 0.788238 0.249417 0.140421
H47   H     H_    0.229557 0.800118 0.240305 0.126616
H48   H     H_    0.357427 0.702112 0.589418 0.011568
H49   H     H_    0.168471 0.735679 0.565845 0.042591
N1    N     N_R   0.985782 0.492413 0.848484 -0.428484
N2    N     N_R   0.218082 0.504928 0.147563 -0.429506
O1    O     O_2   0.888680 0.450300 0.360330 -0.445513
O2    O     O_3   0.683628 0.742055 0.622538 -0.655521
O3    O     O_3   0.127315 0.807327 0.354920 -0.612561
O4    O     O_2   0.301020 0.549730 0.639710 -0.484331
O5    O     O_3   0.060450 0.548840 0.568630 -0.482793
O6    O     O_3   0.513610 0.385220 0.603380 -0.485792
O7    O     O_3   0.166597 0.693974 0.648564 -0.633082
O8    O     O_3   0.611400 0.391150 0.470030 -0.473524
O9    O     O_3   0.093990 0.338690 0.574280 -0.470469
O10   O     O_2   0.181268 0.180646 0.538046 -0.491369
O11   O     O_3   0.073349 0.190741 0.645149 -0.659356
O12   O     O_3   0.129270 0.451230 0.431380 -0.454374
O13   O     O_3   0.578310 0.608920 0.529980 -0.492105
O14   O     O_2   0.337770 0.279070 0.470480 -0.426748
O15   O     O_3   0.481319 0.258282 0.369279 -0.667204
O16   O     O_2   0.379406 0.432191 0.705425 -0.523173
O17   O     O_3   0.520797 0.288816 0.703530 -0.589385
O18   O     O_2   0.093546 0.640660 0.854082 -0.612801
O19   O     O_2   0.877502 0.345430 0.850765 -0.595538
O20   O     O_2   0.132768 0.353981 0.138876 -0.610005
O21   O     O_2   0.314418 0.653911 0.146384 -0.613922
O22   O     O_3   0.676100 0.614850 0.396630 -0.489679
O23   O     O_2   0.801140 0.557875 0.294146 -0.461775
O24   O     O_3   0.994735 0.305766 0.368116 -0.650546
O25   O     O_3   0.715616 0.717571 0.299369 -0.602220
O26   O     O_2   0.851930 0.720960 0.529560 -0.452865
O27   O     O_3   0.095720 0.661380 0.425720 -0.495803
O28   O     O_2   0.993888 0.817802 0.458170 -0.494307
P1    P     P_3+3 0.054670 0.423610 0.368990 1.021910
P2    P     P_3+3 0.674060 0.707690 0.546600 0.985196
P3    P     P_3+3 0.137373 0.778223 0.426690 0.933356
P4    P     P_3+3 0.135040 0.576460 0.631020 0.984626
P5    P     P_3+3 0.046339 0.221017 0.574327 0.945181
P6    P     P_3+3 0.663190 0.608259 0.319800 0.955750
P7    P     P_3+3 0.516740 0.280032 0.445558 0.939753
P8    P     P_3+3 0.534489 0.396744 0.680090 0.966719
N3    N     N_2   0.107457 0.171629 0.357532 -0.419716
H50   H     H_    0.212661 0.173081 0.381960 0.228428
C55   C     C_3   0.961999 0.123980 0.382985 -0.199993
H51   H     H_    0.853024 0.116544 0.353448 0.089965
H52   H     H_    0.983327 0.055226 0.390728 0.094355
H53   H     H_    0.937082 0.161352 0.425753 0.114889
N4    N     N_2   0.130643 0.189593 0.229330 -0.435620
H54   H     H_    0.134928 0.213776 0.188915 0.256732
C56   C     C_3   0.120020 0.091909 0.223657 -0.220179
H55   H     H_    0.213896 0.071069 0.192070 0.110196
H56   H     H_    0.996134 0.058551 0.206813 0.104280
H57   H     H_    0.145413 0.068423 0.266329 0.146192
N5    N     N_2   0.673627 0.652986 0.762568 -0.463148
H58   H     H_    0.799169 0.667981 0.769577 0.217116
C57   C     C_3   0.581968 0.657608 0.816665 -0.216979
H59   H     H_    0.633051 0.618098 0.848267 0.111586
H60   H     H_    0.450798 0.628066 0.807995 0.136925
H61   H     H_    0.591036 0.728961 0.836754 0.117992
O29   O     O_3   0.891103 0.279284 0.689647 -0.765598
H62   H     H_    0.821806 0.219945 0.691926 0.318094
N6    N     N_2   0.998544 0.171196 0.771052 -0.405918
H63   H     H_    0.972348 0.184074 0.815110 0.238273
C58   C     C_3   0.037562 0.080991 0.756093 -0.246021
H64   H     H_    0.938631 0.030888 0.772083 0.112903
H65   H     H_    0.155756 0.074950 0.777487 0.103313
H66   H     H_    0.045856 0.064629 0.707673 0.149272
O30   O     O_3   0.979170 0.443635 0.236940 -0.717559
H67   H     H_    0.953166 0.468453 0.200450 0.313806
N7    N     N_2   0.276109 0.975719 0.476978 -0.431671
H68   H     H_    0.203596 0.966907 0.439461 0.206398
C59   C     C_3   0.183779 0.983117 0.530821 -0.145187
H69   H     H_    0.076322 0.016218 0.523513 0.115348
H70   H     H_    0.262283 0.023810 0.566528 0.117611
H71   H     H_    0.137043 0.915659 0.544679 0.089970

loop_
_geom_bond_atom_site_label_1
_geom_bond_atom_site_label_2
_ccdc_geom_bond_type
O28   P3    D    
C57   H60   S    
C53   C54   S    
C32   P6    S    
O26   P2    D    
C47   P2    S    
C39   C40   A    
C17   C18   A    
C5    O11   S    
C54   N5    S    
C34   O7    S    
C25   N2    Am   
O4    P4    D    
C5    C6    S    
C2    O25   S    
C51   C52   S    
N7    H68   S    
C3    C4    S    
Ba2   O5    S    
O29   H62   S    
C23   H21   S    
Ba2   P4    S    
C13   N1    Am   
N6    H63   S    
C33   C35   A    
C22   C24   A    
O1    P1    D    
C3    H16   S    
Ba1   O22   S    
Ba1   O5    S    
C28   C29   D    
C42   H43   S    
O11   P5    S    
C23   H46   S    
O22   P6    S    
C52   H7    S    
C13   C14   A    
C27   P8    S    
C8    H27   S    
C7    O17   S    
C34   C45   S    
O2    P2    S    
C16   C17   A    
Ba1   O12   S    
C8    H28   S    
C36   N2    S    
O23   P6    D    
C59   H69   S    
C39   P5    S    
C57   H61   S    
C38   H45   S    
Ba2   O9    S    
C9    C33   A    
C8    H30   S    
C14   C15   A    
C13   O19   D    
C2    H1    S    
C28   C37   D    
C6    H23   S    
C21   C22   A    
O17   P8    S    
C51   O24   S    
C20   H32   S    
Ba1   P1    S    
C7    C8    S    
C7    H26   S    
C11   O18   D    
C45   H4    S    
O8    P7    S    
C30   N1    S    
C53   O2    S    
C58   H65   S    
O5    P4    S    
C51   H5    S    
Ba1   O26   S    
C2    H13   S    
C53   H9    S    
N7    C59   S    
C4    H18   S    
C55   H52   S    
C38   C43   A    
C5    O29   S    
C44   C46   A    
Ba2   O4    S    
C48   H42   S    
O3    P3    S    
C1    H14   S    
N3    C55   S    
O24   P1    S    
C6    N6    S    
C40   H41   S    
C35   O30   S    
Ba2   O13   S    
C23   H47   S    
C52   H6    S    
C48   C49   A    
C54   H12   S    
C44   C49   A    
C50   H44   S    
C15   C19   A    
O6    P8    S    
C26   H37   S    
Ba1   O13   S    
C10   C15   A    
C41   C42   A    
C35   C36   A    
C17   H33   S    
C55   H53   S    
Ba2   O8    S    
C29   C30   S    
C59   H71   S    
C56   H57   S    
C26   C30   D    
C47   C50   A    
C53   H8    S    
C27   C37   S    
C31   C32   A    
O7    P4    S    
C10   C11   A    
C1    H20   S    
C25   O21   D    
C5    H22   S    
C9    H38   S    
C38   C39   A    
C56   H56   S    
C47   C48   A    
C58   H64   S    
N4    C56   S    
C1    H10   S    
C40   C41   A    
O15   P7    S    
C10   C16   A    
Ba1   O27   S    
C26   C27   S    
C12   H39   S    
Ba1   P2    S    
C42   C43   A    
C4    H17   S    
C55   H51   S    
Ba2   O14   S    
O25   P6    S    
C12   O3    S    
N5    H58   S    
C14   C20   A    
C28   P4    S    
C52   N4    S    
C34   H49   S    
C20   C21   A    
O14   P7    D    
C9    C32   A    
O12   P1    S    
C12   H29   S    
C11   N1    Am   
C24   N2    Am   
O27   P3    S    
Ba2   O12   S    
C18   C25   A    
C54   H11   S    
C31   C36   A    
C46   P3    S    
N3    H50   S    
C51   N3    S    
N6    C58   S    
C3    H15   S    
C31   H34   S    
C45   H2    S    
C41   C49   S    
C34   H48   S    
C57   H59   S    
Ba1   Ba2   S    
N5    C57   S    
Ba2   O6    S    
C44   N7    S    
C43   P7    S    
C33   P1    S    
C24   O20   D    
C12   C23   S    
C59   H70   S    
C37   H40   S    
Ba1   O1    S    
C45   H3    S    
O10   P5    D    
C16   H35   S    
C46   C50   A    
C56   H55   S    
C58   H66   S    
C18   C19   A    
C29   H36   S    
O30   H67   S    
C19   C22   A    
O16   P8    D    
C6    H24   S    
N4    H54   S    
C21   H31   S    
O13   P2    S    
Ba1   O8    S    
C3    O15   S    
C1    C2    S    
C7    H25   S    
O9    P5    S    
C4    H19   S    
