data_mof_unit_60251.cif
_audit_creation_date              2012-12-10T17:13:04-0500
_audit_creation_method            fapswitch 2.2
_symmetry_space_group_name_H-M    P1
_symmetry_Int_Tables_number       1
_space_group_crystal_system       triclinic
_cell_length_a                    30.495477
_cell_length_b                    30.658012
_cell_length_c                    25.093791
_cell_angle_alpha                 90.937717
_cell_angle_beta                  129.666666
_cell_angle_gamma                 89.857148
_cell_volume                      18056.1817859

loop_
_atom_site_label
_atom_site_type_symbol
_atom_type_description
_atom_site_fract_x
_atom_site_fract_y
_atom_site_fract_z
_atom_type_partial_charge
C1    C     C_R   0.691734 0.190101 0.503497 0.866895
C2    C     C_R   0.536601 0.252162 0.070925 0.306556
C3    C     C_R   0.731496 0.909058 0.691642 -0.160725
C4    C     C_R   0.848215 0.385891 0.366238 -0.005812
C5    C     C_R   0.188484 0.428322 0.629344 -0.015699
C6    C     C_R   0.346620 0.886848 0.365371 -0.004849
C7    C     C_R   0.688825 0.929178 0.628732 -0.019269
C8    C     C_R   0.862914 0.381157 0.432755 0.028096
C9    C     C_R   0.157122 0.403490 0.566010 0.026644
C10   C     C_R   0.361934 0.881770 0.432193 0.027910
C11   C     C_R   0.657425 0.903920 0.565800 0.027727
C12   C     C_R   0.844600 0.342658 0.443347 0.122668
C13   C     C_R   0.963674 0.754676 0.931356 0.338932
C14   C     C_R   0.178906 0.362756 0.566328 0.080288
C15   C     C_R   0.343690 0.843163 0.442701 0.122539
C16   C     C_R   0.679650 0.863309 0.566502 0.079810
C17   C     C_R   0.842240 0.342551 0.497600 -0.098463
C18   C     C_R   0.158546 0.343578 0.502856 -0.098723
C19   C     C_R   0.342174 0.842633 0.497604 -0.099991
C20   C     C_R   0.658747 0.843582 0.503135 -0.096019
C21   C     C_R   0.863128 0.377324 0.544586 -0.243477
C22   C     C_R   0.116354 0.363215 0.440419 -0.248708
C23   C     C_R   0.363581 0.877157 0.545090 -0.242455
C24   C     C_R   0.035370 0.752442 0.070785 0.306701
C25   C     C_R   0.615844 0.862635 0.440483 -0.247418
C26   C     C_R   0.890281 0.412183 0.541975 -0.036339
C27   C     C_R   0.090019 0.400578 0.438881 -0.030349
C28   C     C_R   0.390589 0.912107 0.542409 -0.035585
C29   C     C_R   0.589399 0.899984 0.438698 -0.031951
C30   C     C_R   0.894364 0.412547 0.489039 -0.182998
C31   C     C_R   0.105870 0.417800 0.501954 -0.175143
C32   C     C_R   0.394078 0.912800 0.488979 -0.184032
C33   C     C_R   0.605709 0.917708 0.501764 -0.175614
C34   C     C_R   0.064893 0.444386 0.500747 0.908198
C35   C     C_R   0.673837 0.196424 0.605141 -0.230549
C36   C     C_R   0.936432 0.441532 0.497361 0.900688
C37   C     C_R   0.564840 0.944332 0.500710 0.910497
C38   C     C_R   0.436326 0.941630 0.497345 0.902481
C39   C     C_R   0.817896 0.249991 0.634855 0.848605
C40   C     C_R   0.182147 0.249383 0.365435 0.831139
C41   C     C_R   0.317565 0.749713 0.634770 0.843369
C42   C     C_R   0.682134 0.749341 0.365385 0.835789
C43   C     C_R   0.559307 0.061582 0.501292 0.896795
C44   C     C_R   0.436980 0.058025 0.498914 0.892926
C45   C     C_R   0.059540 0.561372 0.501312 0.891029
C46   C     C_R   0.256246 0.139263 0.376334 -0.229223
C47   C     C_R   0.937289 0.558312 0.498941 0.883783
C48   C     C_R   0.625674 0.214082 0.252423 -0.189134
C49   C     C_R   0.356997 0.218896 0.746301 -0.176781
C50   C     C_R   0.125720 0.714133 0.252312 -0.189340
C51   C     C_R   0.857368 0.718704 0.746308 -0.171755
C52   C     C_R   0.588509 0.214387 0.180801 -0.138262
C53   C     C_R   0.392216 0.219692 0.817809 -0.160908
C54   C     C_R   0.088162 0.714492 0.180671 -0.139133
C55   C     C_R   0.891620 0.719821 0.817741 -0.160902
C56   C     C_R   0.573490 0.253785 0.146167 0.025018
C57   C     C_R   0.172697 0.696833 0.603911 -0.236121
C58   C     C_R   0.426165 0.256315 0.855813 0.010562
C59   C     C_R   0.072571 0.753946 0.146066 0.025172
C60   C     C_R   0.924338 0.756901 0.855677 0.009045
C61   C     C_R   0.595149 0.293896 0.183460 -0.197301
C62   C     C_R   0.423643 0.293583 0.821344 -0.084794
C63   C     C_R   0.094091 0.794045 0.183415 -0.197387
C64   C     C_R   0.921284 0.794359 0.821174 -0.090665
C65   C     C_R   0.631967 0.293731 0.256540 -0.118216
C66   C     C_R   0.388894 0.292299 0.748389 -0.111242
C67   C     C_R   0.131301 0.793817 0.256507 -0.118131
C68   C     C_R   0.754491 0.635839 0.379029 -0.229358
C69   C     C_R   0.887645 0.792751 0.748355 -0.113720
C70   C     C_2   0.829764 0.427771 0.329602 0.983280
C71   C     C_2   0.186031 0.476708 0.631299 0.952983
C72   C     C_2   0.329224 0.929012 0.329576 0.982987
C73   C     C_2   0.685735 0.977542 0.629897 0.954798
C74   C     C_2   0.910224 0.448888 0.592426 0.948725
C75   C     C_2   0.049568 0.422098 0.371106 0.964563
C76   C     C_2   0.411064 0.948556 0.593404 0.948830
C77   C     C_2   0.548279 0.920925 0.370544 0.964943
C78   C     C_2   0.579268 0.335775 0.146011 1.030961
C79   C     C_R   0.658270 0.202990 0.646503 -0.056797
C80   C     C_2   0.453528 0.334730 0.860915 0.920109
C81   C     C_2   0.077651 0.835987 0.146001 1.030642
C82   C     C_2   0.950928 0.835597 0.860673 0.937458
C83   C     C_2   0.654207 0.335595 0.296745 0.913981
C84   C     C_2   0.386132 0.331154 0.712068 0.976557
C85   C     C_2   0.153327 0.835680 0.296745 0.914346
C86   C     C_2   0.884842 0.831760 0.712247 0.984962
C87   C     C_2   0.682208 0.241556 0.694102 0.963564
C88   C     C_2   0.169775 0.124791 0.254802 0.951084
C89   C     C_2   0.187446 0.737785 0.700359 0.949692
C90   C     C_R   0.227658 0.112246 0.317366 -0.059889
C91   C     C_2   0.666353 0.618210 0.259859 0.948744
C92   C     C_2   0.602033 0.177783 0.683170 0.970012
C93   C     C_2   0.226018 0.042907 0.260417 1.036781
C94   C     C_2   0.095981 0.680507 0.676462 0.957091
C95   C     C_2   0.724790 0.537355 0.266948 1.045748
C96   C     C_R   0.158170 0.702657 0.646494 -0.044797
C97   C     C_R   0.310454 0.190207 0.500966 0.861403
C98   C     C_R   0.725500 0.607395 0.321657 -0.061851
C99   C     C_R   0.618461 0.174214 0.638997 -0.050452
C100  C     C_R   0.255343 0.074859 0.318796 -0.077350
C101  C     C_R   0.117915 0.674103 0.638432 -0.045500
C102  C     C_R   0.754019 0.570388 0.323723 -0.077402
C103  C     C_R   0.595418 0.139702 0.590443 -0.245093
C104  C     C_R   0.311720 0.066651 0.377986 -0.190982
C105  C     C_R   0.096075 0.639027 0.591009 -0.245295
C106  C     C_R   0.811360 0.563877 0.381771 -0.195683
C107  C     C_R   0.612396 0.132305 0.550204 0.077759
C108  C     C_R   0.191579 0.690106 0.503239 0.862646
C109  C     C_R   0.342014 0.095268 0.436467 0.082473
C110  C     C_R   0.112740 0.631948 0.550399 0.074517
C111  C     C_R   0.841900 0.594024 0.438272 0.086789
C112  C     C_R   0.649436 0.162413 0.554821 0.092474
C113  C     C_R   0.312639 0.130731 0.436203 0.083075
C114  C     C_R   0.148854 0.662564 0.554093 0.093820
C115  C     C_R   0.811981 0.629145 0.437687 0.082198
C116  C     C_R   0.661246 0.157346 0.508891 -0.092082
C117  C     C_R   0.340546 0.157245 0.496183 -0.078896
C118  C     C_R   0.160921 0.657408 0.508418 -0.090918
C119  C     C_R   0.810411 0.690217 0.500806 0.862781
C120  C     C_R   0.840604 0.657411 0.495837 -0.074515
C121  C     C_R   0.640952 0.121452 0.463887 -0.200523
C122  C     C_R   0.396171 0.149962 0.555060 -0.184585
C123  C     C_R   0.140953 0.621386 0.463700 -0.201389
C124  C     C_R   0.897930 0.653021 0.552189 -0.199665
C125  C     C_R   0.683306 0.250943 0.365610 0.898635
C126  C     C_R   0.317442 0.251331 0.634827 0.851579
C127  C     C_R   0.183298 0.750955 0.365596 0.895506
C128  C     C_R   0.817549 0.751264 0.634848 0.843930
C129  C     C_R   0.607271 0.090772 0.462001 -0.134056
C130  C     C_R   0.647028 0.253255 0.290513 -0.090369
C131  C     C_R   0.425701 0.116097 0.555316 -0.138435
C132  C     C_R   0.107435 0.590599 0.461939 -0.135745
C133  C     C_R   0.928041 0.619663 0.552408 -0.185370
C134  C     C_R   0.592848 0.095912 0.504425 -0.086917
C135  C     C_R   0.400183 0.089402 0.496430 -0.093971
C136  C     C_R   0.093172 0.595625 0.504531 -0.085420
C137  C     C_R   0.901087 0.590250 0.496331 -0.078233
C138  C     C_R   0.902907 0.220825 0.746703 -0.175371
C139  C     C_R   0.086225 0.237705 0.252034 -0.109661
C140  C     C_R   0.407392 0.726564 0.747173 -0.168515
C141  C     C_R   0.355282 0.254498 0.710831 -0.129271
C142  C     C_R   0.587072 0.733914 0.252406 -0.104405
C143  C     C_R   0.938698 0.219304 0.818539 -0.144364
C144  C     C_R   0.050151 0.235643 0.180055 -0.116853
C145  C     C_R   0.442629 0.724140 0.818850 -0.143768
C146  C     C_R   0.550849 0.731326 0.180466 -0.122770
C147  C     C_R   0.927950 0.245674 0.855147 0.076120
C148  C     C_R   0.072167 0.241696 0.145783 0.069410
C149  C     C_R   0.425542 0.742481 0.854514 0.075866
C150  C     C_R   0.571578 0.740787 0.145554 0.068563
C151  C     C_R   0.881771 0.274309 0.819252 -0.124120
C152  C     C_R   0.146904 0.753294 0.290464 -0.090130
C153  C     C_R   0.130587 0.249812 0.184209 -0.135689
C154  C     C_R   0.372937 0.763607 0.817611 -0.134750
C155  C     C_R   0.628916 0.752894 0.183424 -0.137686
C156  C     C_R   0.846625 0.276448 0.747490 -0.124702
C157  C     C_R   0.166373 0.252866 0.256040 -0.184804
C158  C     C_R   0.338134 0.766691 0.745983 -0.178932
C159  C     C_R   0.664827 0.756243 0.255238 -0.188338
C160  C     C_R   0.856363 0.249211 0.710617 -0.042983
C161  C     C_R   0.144314 0.246826 0.290161 -0.015233
C162  C     C_R   0.354974 0.747940 0.710291 -0.047107
C163  C     C_R   0.855389 0.754451 0.710860 -0.127573
C164  C     C_R   0.644072 0.746731 0.290009 -0.027916
C165  C     C_R   0.034154 0.241053 0.070168 0.284214
C166  C     C_R   0.965029 0.243537 0.930575 0.290488
C167  C     C_R   0.533278 0.739324 0.069858 0.288942
C168  C     C_R   0.463110 0.740433 0.930059 0.292018
C169  C     C_R   0.826300 0.306583 0.397140 -0.130219
C170  C     C_R   0.221941 0.343075 0.629950 -0.113934
C171  C     C_R   0.324629 0.807359 0.395858 -0.129002
C172  C     C_R   0.723528 0.844234 0.630337 -0.136706
C173  C     C_R   0.810445 0.309862 0.500387 0.922625
C174  C     C_R   0.465450 0.254046 0.931496 0.338288
C175  C     C_R   0.190250 0.310006 0.500793 0.875503
C176  C     C_R   0.310480 0.809878 0.500472 0.920336
C177  C     C_R   0.690370 0.810002 0.500993 0.869409
C178  C     C_R   0.824831 0.309207 0.340885 -0.174692
C179  C     C_R   0.245849 0.364889 0.692240 -0.095065
C180  C     C_R   0.322247 0.810323 0.338970 -0.174173
C181  C     C_R   0.747417 0.866377 0.692378 -0.082899
C182  C     C_R   0.834407 0.348944 0.324411 -0.182473
C183  C     C_R   0.230552 0.407707 0.692022 -0.167522
C184  C     C_R   0.331858 0.850140 0.322741 -0.181554
H1    H     H_    0.592465 0.062738 0.427307 0.192089
H2    H     H_    0.211345 0.259425 0.284990 0.156759
H3    H     H_    0.297949 0.783430 0.718524 0.202220
H4    H     H_    0.708933 0.765757 0.283630 0.161124
H5    H     H_    0.811470 0.281207 0.306623 0.160960
H6    H     H_    0.279025 0.349535 0.740798 0.166116
H7    H     H_    0.308256 0.782530 0.304172 0.160377
H8    H     H_    0.781057 0.851416 0.741106 0.169938
H9    H     H_    0.572173 0.183661 0.152183 0.150214
H10   H     H_    0.393786 0.191045 0.843691 0.159065
H11   H     H_    0.071955 0.683778 0.152007 0.149943
H12   H     H_    0.469167 0.111152 0.601735 0.202583
H13   H     H_    0.893593 0.691031 0.843660 0.158333
H14   H     H_    0.636886 0.183128 0.278327 0.151344
H15   H     H_    0.331779 0.189738 0.718659 0.170889
H16   H     H_    0.137315 0.683140 0.278185 0.151576
H17   H     H_    0.833028 0.689228 0.718701 0.169967
H18   H     H_    0.974150 0.196966 0.845328 0.159936
H19   H     H_    0.005200 0.229123 0.151239 0.155088
H20   H     H_    0.482988 0.707582 0.846262 0.158349
H21   H     H_    0.506805 0.721721 0.152227 0.156167
H22   H     H_    0.873214 0.295376 0.846689 0.151599
H23   H     H_    0.092676 0.562557 0.427271 0.192888
H24   H     H_    0.148360 0.254758 0.158699 0.158434
H25   H     H_    0.359089 0.778318 0.844141 0.162846
H26   H     H_    0.645754 0.760552 0.157522 0.158684
H27   H     H_    0.858140 0.377037 0.583718 0.184759
H28   H     H_    0.105314 0.349936 0.392776 0.170142
H29   H     H_    0.359098 0.876606 0.584653 0.186414
H30   H     H_    0.604366 0.848946 0.392812 0.170460
H31   H     H_    0.812758 0.275896 0.402808 0.172614
H32   H     H_    0.237503 0.310884 0.631874 0.130432
H33   H     H_    0.311140 0.776640 0.401538 0.171724
H34   H     H_    0.972951 0.617237 0.596418 0.197577
H35   H     H_    0.739594 0.812201 0.632623 0.124280
H36   H     H_    0.825324 0.351628 0.275213 0.189352
H37   H     H_    0.253923 0.425490 0.740890 0.191477
H38   H     H_    0.322262 0.853082 0.273275 0.188439
H39   H     H_    0.754870 0.927153 0.740243 0.191659
H40   H     H_    0.824437 0.465892 0.260809 0.361521
H41   H     H_    0.197039 0.531074 0.685219 0.357021
H42   H     H_    0.325918 0.967382 0.262429 0.362319
H43   H     H_    0.696393 0.032187 0.683109 0.354100
H44   H     H_    0.940372 0.468189 0.687815 0.352094
H45   H     H_    0.911583 0.199637 0.719508 0.168321
H46   H     H_    0.987985 0.415047 0.267691 0.352992
H47   H     H_    0.442093 0.967355 0.689336 0.351426
H48   H     H_    0.485758 0.913007 0.267476 0.353140
H49   H     H_    0.660815 0.352810 0.193276 0.301585
H50   H     H_    0.470050 0.378756 0.932508 0.376232
H51   H     H_    0.158920 0.853479 0.192563 0.301380
H52   H     H_    0.967998 0.879251 0.932967 0.376802
H53   H     H_    0.637185 0.396751 0.309296 0.367768
H54   H     H_    0.423378 0.366727 0.683537 0.352659
H55   H     H_    0.135924 0.896592 0.309644 0.366894
H56   H     H_    0.068704 0.232873 0.277871 0.151478
H57   H     H_    0.911876 0.861652 0.666746 0.350509
H58   H     H_    0.650381 0.117581 0.429097 0.163691
H59   H     H_    0.416492 0.170266 0.601256 0.158458
H60   H     H_    0.150472 0.617511 0.428999 0.163958
H61   H     H_    0.919194 0.675212 0.596493 0.164846
H62   H     H_    0.705000 0.218465 0.612490 0.183851
H63   H     H_    0.234411 0.167849 0.374312 0.160815
H64   H     H_    0.204541 0.718476 0.612099 0.172588
H65   H     H_    0.732133 0.664262 0.376366 0.166431
H66   H     H_    0.749841 0.281457 0.759062 0.344647
H67   H     H_    0.421334 0.711916 0.720710 0.164218
H68   H     H_    0.113126 0.128724 0.150705 0.358543
H69   H     H_    0.225076 0.756677 0.798549 0.356093
H70   H     H_    0.606407 0.618224 0.155726 0.358350
H71   H     H_    0.539306 0.174180 0.689166 0.345869
H72   H     H_    0.229957 0.004805 0.197442 0.359590
H73   H     H_    0.066134 0.652648 0.720188 0.348873
H74   H     H_    0.726538 0.500438 0.201187 0.360669
H75   H     H_    0.564357 0.118600 0.584990 0.176824
H76   H     H_    0.329969 0.036490 0.378337 0.222505
H77   H     H_    0.064244 0.618317 0.584468 0.178728
H78   H     H_    0.570447 0.726389 0.278605 0.157270
H79   H     H_    0.830528 0.534082 0.382728 0.220184
H80   H     H_    0.811579 0.299137 0.720885 0.175738
N1    N     N_R   0.552636 0.272398 0.038136 -0.147004
N2    N     N_R   0.054195 0.230349 0.036585 -0.159920
N3    N     N_R   0.441894 0.745072 0.963622 -0.159454
N4    N     N_R   0.554436 0.734491 0.036272 -0.160752
N5    N     N_R   0.978897 0.252785 0.032784 -0.159476
N6    N     N_R   0.020125 0.231350 0.967923 -0.162204
N7    N     N_R   0.476372 0.744392 0.032344 -0.161237
N8    N     N_R   0.519928 0.734872 0.967570 -0.163094
N9    N     N_R   0.517710 0.273128 0.969504 -0.127620
N10   N     N_R   0.051046 0.772967 0.037811 -0.147896
N11   N     N_R   0.015863 0.773857 0.969186 -0.130149
N12   N     N_R   0.450192 0.232579 0.964394 -0.158728
N13   N     N_R   0.485268 0.231643 0.033136 -0.144560
N14   N     N_R   0.948762 0.732909 0.964404 -0.158318
N15   N     N_R   0.984104 0.731818 0.033158 -0.144566
N16   N     N_R   0.944953 0.254148 0.964151 -0.154434
O1    O     O_R   0.678340 0.230070 0.500020 -0.621564
O2    O     O_R   0.482930 0.045810 0.557520 -0.608624
O3    O     O_R   0.017070 0.545810 0.442480 -0.606974
O4    O     O_R   0.982930 0.545810 0.557520 -0.594280
O5    O     O_R   0.574570 0.045820 0.557490 -0.622918
O6    O     O_R   0.425430 0.045820 0.442510 -0.638053
O7    O     O_R   0.074570 0.545820 0.557490 -0.614572
O8    O     O_R   0.925430 0.545820 0.442510 -0.640221
O9    O     O_R   0.730080 0.178340 0.500000 -0.613116
O10   O     O_R   0.269920 0.178340 0.500000 -0.607903
O11   O     O_R   0.230080 0.678340 0.500000 -0.614567
O12   O     O_R   0.321660 0.230070 0.499980 -0.609533
O13   O     O_R   0.769920 0.678340 0.500000 -0.608475
O14   O     O_R   0.673200 0.275870 0.398140 -0.592728
O15   O     O_R   0.326800 0.275870 0.601860 -0.597455
O16   O     O_R   0.173200 0.775870 0.398140 -0.592859
O17   O     O_R   0.826800 0.775870 0.601860 -0.590167
O18   O     O_R   0.724950 0.224150 0.398130 -0.631112
O19   O     O_R   0.275050 0.224150 0.601870 -0.624150
O20   O     O_R   0.224950 0.724150 0.398130 -0.631844
O21   O     O_R   0.775050 0.724150 0.601870 -0.622912
O22   O     O_R   0.769940 0.321680 0.500000 -0.585848
O23   O     O_R   0.178340 0.730070 0.500020 -0.614836
O24   O     O_R   0.230060 0.321680 0.500000 -0.590584
O25   O     O_R   0.269940 0.821680 0.500000 -0.583519
O26   O     O_R   0.730060 0.821680 0.500000 -0.599999
O27   O     O_R   0.821690 0.269960 0.499980 -0.648807
O28   O     O_R   0.178310 0.269960 0.500020 -0.623467
O29   O     O_R   0.321690 0.769960 0.499980 -0.649193
O30   O     O_R   0.678310 0.769960 0.500020 -0.620252
O31   O     O_R   0.775070 0.275880 0.601870 -0.629540
O32   O     O_R   0.224930 0.275880 0.398130 -0.620742
O33   O     O_R   0.275070 0.775880 0.601870 -0.620358
O34   O     O_R   0.821660 0.730070 0.499980 -0.608931
O35   O     O_R   0.724930 0.775880 0.398130 -0.619899
O36   O     O_R   0.826820 0.224150 0.601850 -0.620641
O37   O     O_R   0.173180 0.224150 0.398150 -0.605769
O38   O     O_R   0.326820 0.724150 0.601850 -0.620294
O39   O     O_R   0.673180 0.724150 0.398150 -0.608227
O40   O     O_R   0.017100 0.454190 0.442490 -0.591197
O41   O     O_R   0.982900 0.454190 0.557510 -0.594887
O42   O     O_R   0.517100 0.954190 0.442490 -0.590321
O43   O     O_R   0.482900 0.954190 0.557510 -0.595072
O44   O     O_2   0.807506 0.455053 0.341365 -0.625917
O45   O     O_R   0.074600 0.454200 0.557500 -0.627517
O46   O     O_R   0.837144 0.435730 0.281021 -0.802268
O47   O     O_2   0.173317 0.497872 0.582362 -0.635513
O48   O     O_R   0.200015 0.498198 0.690042 -0.795413
O49   O     O_2   0.307280 0.956555 0.341448 -0.624227
O50   O     O_R   0.337440 0.936953 0.281743 -0.802203
O51   O     O_2   0.672513 0.998423 0.580484 -0.636130
O52   O     O_R   0.699764 0.999351 0.688453 -0.797729
O53   O     O_2   0.908835 0.486419 0.575634 -0.625781
O54   O     O_R   0.928529 0.440621 0.658496 -0.801456
O55   O     O_2   0.049893 0.461844 0.367701 -0.610886
O56   O     O_R   0.925400 0.454200 0.442500 -0.628763
O57   O     O_R   0.012931 0.396726 0.310678 -0.800476
O58   O     O_2   0.409643 0.986189 0.576944 -0.628429
O59   O     O_R   0.429918 0.939933 0.659632 -0.799925
O60   O     O_2   0.548480 0.960598 0.366160 -0.609346
O61   O     O_R   0.511146 0.895063 0.310834 -0.800121
O62   O     O_2   0.529085 0.345067 0.102390 -0.516093
O63   O     O_R   0.620825 0.364705 0.159500 -0.724130
O64   O     O_2   0.483516 0.354275 0.852467 -0.558597
O65   O     O_R   0.447430 0.350847 0.908310 -0.763303
O66   O     O_2   0.027352 0.845072 0.102754 -0.515685
O67   O     O_R   0.574600 0.954200 0.557500 -0.626703
O68   O     O_R   0.118812 0.865206 0.159097 -0.724363
O69   O     O_2   0.979837 0.855753 0.851074 -0.571015
O70   O     O_R   0.945692 0.851191 0.909052 -0.760085
O71   O     O_2   0.705065 0.340143 0.345340 -0.638840
O72   O     O_R   0.616937 0.369943 0.278421 -0.748542
O73   O     O_2   0.345410 0.355550 0.683679 -0.635816
O74   O     O_R   0.430050 0.339417 0.709982 -0.729012
O75   O     O_2   0.204209 0.840448 0.345087 -0.638751
O76   O     O_R   0.115815 0.869765 0.278766 -0.749064
O77   O     O_2   0.855777 0.862798 0.703462 -0.632359
O78   O     O_R   0.425400 0.954200 0.442500 -0.628393
O79   O     O_R   0.916919 0.833301 0.690268 -0.734865
O80   O     O_2   0.652630 0.262518 0.702227 -0.578620
O81   O     O_R   0.738395 0.254696 0.728280 -0.817469
O82   O     O_2   0.137000 0.141995 0.261023 -0.614718
O83   O     O_R   0.153155 0.118138 0.188860 -0.772836
O84   O     O_2   0.197445 0.772944 0.687584 -0.635373
O85   O     O_R   0.205054 0.730380 0.766300 -0.762668
O86   O     O_2   0.634838 0.636664 0.267156 -0.618380
O87   O     O_R   0.647074 0.608604 0.193263 -0.772414
O88   O     O_2   0.638063 0.185765 0.745207 -0.577525
O89   O     O_R   0.517070 0.045810 0.442480 -0.605076
O90   O     O_R   0.545327 0.171034 0.653952 -0.826441
O91   O     O_2   0.177308 0.030951 0.232379 -0.563040
O92   O     O_R   0.254391 0.026204 0.237784 -0.797001
O93   O     O_2   0.089225 0.717275 0.689618 -0.579856
O94   O     O_R   0.081299 0.644233 0.695416 -0.811783
O95   O     O_2   0.678154 0.522846 0.243673 -0.562929
O96   O     O_R   0.750744 0.522791 0.240087 -0.791479
Zn1   Zn    Zn3+2 0.715460 0.284550 0.500010 1.019765
Zn2   Zn    Zn3+2 0.038380 0.500000 0.576800 1.059900
Zn3   Zn    Zn3+2 0.461620 0.000000 0.423200 1.059972
Zn4   Zn    Zn3+2 0.538380 0.000000 0.576800 1.039745
Zn5   Zn    Zn3+2 0.284540 0.284550 0.499990 1.028518
Zn6   Zn    Zn3+2 0.215460 0.784550 0.500010 1.040220
Zn7   Zn    Zn3+2 0.784540 0.784550 0.499990 1.025525
Zn8   Zn    Zn3+2 0.784560 0.215470 0.499990 0.974234
Zn9   Zn    Zn3+2 0.215440 0.215470 0.500010 1.001066
Zn10  Zn    Zn3+2 0.284560 0.715470 0.499990 0.973524
Zn11  Zn    Zn3+2 0.715440 0.715470 0.500010 1.000912
Zn12  Zn    Zn3+2 0.961620 0.500000 0.423200 1.057796

loop_
_geom_bond_atom_site_label_1
_geom_bond_atom_site_label_2
_ccdc_geom_bond_type
C68   H65   S    
C99   C103  A    
C21   C26   A    
C133  C137  A    
C45   O3    A    
C129  H1    S    
C94   O94   S    
C107  C112  A    
C142  C146  A    
C87   O81   S    
C14   C170  A    
C158  H3    S    
C2    N13   A    
C79   C87   S    
C144  C148  A    
C7    C73   S    
C13   C60   S    
O30   Zn11  S    
C124  C133  A    
H49   O63   S    
O28   Zn9   S    
C79   C99   A    
C154  C158  A    
C138  C143  A    
C23   H29   S    
C108  O11   A    
H70   O87   S    
C29   C33   A    
C100  C104  A    
N10   N11   A    
C166  N16   A    
O38   Zn10  S    
C167  N4    A    
C127  O20   A    
C146  C150  A    
C174  N12   A    
O10   Zn9   S    
C22   H28   S    
O22   Zn1   S    
C95   O96   S    
C95   C102  S    
C106  C111  A    
C44   C135  S    
C71   O48   S    
C41   C162  S    
C148  C165  S    
H41   O48   S    
C58   C174  S    
C140  H67   S    
O2    Zn4   S    
C27   C75   S    
C83   O72   S    
C17   C173  S    
C25   C29   A    
C67   C85   S    
C116  C121  A    
C27   C31   A    
C28   C32   A    
O33   Zn6   S    
C178  H5    S    
H44   O54   S    
C98   C102  A    
C42   O39   A    
C17   C21   A    
N5    N16   A    
C6    C184  A    
C19   C23   A    
C153  H24   S    
C156  C160  A    
C16   C20   A    
O16   Zn6   S    
C1    O9    A    
C157  H2    S    
C93   C100  S    
C178  C182  A    
H53   O72   S    
H55   O76   S    
C91   O86   D    
O21   Zn11  S    
O67   Zn4   S    
C148  C153  A    
O8    Zn12  S    
C111  C137  A    
C93   O91   D    
C80   O65   S    
C50   H16   S    
C39   O31   A    
C40   O32   A    
C140  C145  A    
C53   C58   A    
C122  H59   S    
C126  C141  S    
C59   C63   A    
C30   C36   S    
C60   C64   A    
C78   O62   D    
C89   C96   S    
C82   O69   D    
C1    O1    A    
C125  O18   A    
C128  O21   A    
C55   H13   S    
C52   C56   A    
C41   O38   A    
C49   C53   A    
C86   O79   S    
C51   C55   A    
C91   C98   S    
C97   C117  S    
C68   C98   A    
C13   N11   A    
C138  C160  A    
C48   C52   A    
H50   O65   S    
C72   O50   S    
C88   O83   S    
C75   O57   S    
C103  C107  A    
C180  C184  A    
C56   C61   A    
C158  C162  A    
C175  O28   A    
O56   Zn12  S    
C39   C160  S    
C109  C135  A    
C110  C136  A    
O12   Zn5   S    
C40   O37   A    
O43   Zn4   S    
C65   C130  A    
C66   C141  A    
C24   N10   A    
H40   O46   S    
C62   C80   S    
C107  C134  A    
C47   O8    A    
H43   O52   S    
C73   O52   S    
C42   C164  S    
C140  C162  A    
C176  O25   A    
O24   Zn5   S    
C19   C176  S    
C172  C181  A    
N4    N8    A    
C110  C114  A    
C8    C12   A    
C84   O74   S    
C41   O33   A    
O34   Zn7   S    
C85   O76   S    
C173  O22   A    
C43   O89   A    
C146  H21   S    
C13   N14   A    
C54   C59   A    
C169  H31   S    
C31   C34   S    
C62   C66   A    
C155  C159  A    
C87   O80   D    
C11   C33   A    
C74   O54   S    
C9    C14   A    
C126  O19   A    
C64   C69   A    
C86   O77   D    
C92   O90   S    
O9    Zn8   S    
C48   H14   S    
C147  C151  A    
C117  C122  A    
C5    C9    A    
C61   C65   A    
C132  C136  A    
C44   O2    A    
C119  O34   A    
H46   O57   S    
O41   Zn2   S    
C113  C117  A    
N1    N9    A    
C26   C30   A    
C150  C155  A    
C176  O29   A    
C94   O93   D    
C89   O85   S    
C122  C131  A    
C112  C116  A    
O23   Zn6   S    
C49   H15   S    
C91   O87   S    
C3    H39   S    
C46   C113  A    
C67   C152  A    
C18   C22   A    
C52   H9    S    
C180  H7    S    
C12   C169  A    
C133  H34   S    
C170  C179  A    
C165  N2    A    
C2    C56   S    
C24   C59   S    
C76   O59   S    
C35   C79   A    
H73   O94   S    
O14   Zn1   S    
C37   O67   A    
C29   C77   S    
N12   N13   A    
C132  H23   S    
C36   O56   A    
N14   N15   A    
O29   Zn10  S    
C95   O95   D    
C96   C101  A    
C35   C112  A    
C92   C99   S    
C58   C62   A    
O31   Zn1   S    
C71   O47   D    
C53   H10   S    
C88   O82   D    
C119  O13   A    
C83   O71   D    
C37   O42   A    
C4    C70   S    
C125  O14   A    
C128  O17   A    
C70   O46   S    
C6    C72   S    
O25   Zn6   S    
C149  C168  S    
C34   O45   A    
C50   C54   A    
C165  N5    A    
O15   Zn5   S    
C105  C110  A    
H48   O61   S    
C3    C7    A    
C142  C164  A    
C123  C132  A    
C170  H32   S    
C20   C25   A    
O20   Zn10  S    
O5    Zn4   S    
C177  O26   A    
C104  H76   S    
N3    N7    A    
C57   C96   A    
C49   C141  A    
C12   C17   A    
C51   C163  A    
O18   Zn8   S    
C139  H56   S    
C38   O78   A    
C55   C60   A    
C48   C130  A    
C57   H64   S    
H57   O79   S    
C143  C147  A    
C173  O27   A    
H51   O68   S    
C139  C161  A    
H54   O74   S    
C75   O55   D    
C33   C37   S    
O13   Zn11  S    
C78   O63   S    
C43   C134  S    
C184  H38   S    
C149  C154  A    
C82   O70   S    
C144  H19   S    
C11   C16   A    
O36   Zn8   S    
C183  H37   S    
C15   C171  A    
C151  C156  A    
C3    C181  A    
C171  H33   S    
C88   C90   S    
C81   O66   D    
O78   Zn3   S    
C28   C76   S    
C168  N3    A    
C157  C161  A    
C70   O44   D    
C126  O15   A    
C35   H62   S    
C54   H11   S    
H68   O83   S    
C103  H75   S    
C155  H26   S    
C121  C129  A    
C6    C10   A    
C145  H20   S    
C119  C120  S    
C46   C90   A    
C24   N15   A    
C44   O6    A    
C45   O7    A    
C8    C30   A    
C77   O61   S    
C40   C161  S    
C5    C71   S    
C73   O51   D    
H71   O90   S    
C150  C167  S    
C106  H79   S    
C181  H8    S    
C118  C123  A    
C153  C157  A    
C68   C115  A    
C129  C134  A    
C108  O23   A    
C50   C152  A    
H66   O81   S    
O6    Zn3   S    
C76   O58   D    
O42   Zn3   S    
O26   Zn7   S    
C142  H78   S    
C77   O60   D    
C4    C182  A    
O1    Zn1   S    
C5    C183  A    
C145  C149  A    
C51   H17   S    
C127  O16   A    
C93   O92   S    
C182  H36   S    
C85   O75   D    
H52   O70   S    
C14   C18   A    
C131  H12   S    
C4    C8    A    
C34   O40   A    
C7    C11   A    
C63   C81   S    
O27   Zn8   S    
C25   H30   S    
C167  N7    A    
C46   H63   S    
C154  H25   S    
C131  C135  A    
C10   C15   A    
C168  N8    A    
C104  C109  A    
H72   O92   S    
O4    Zn2   S    
C65   C83   S    
C174  N9    A    
O35   Zn7   S    
C97   O10   A    
C124  H61   S    
C15   C19   A    
C125  C130  S    
H42   O50   S    
O40   Zn12  S    
C94   C101  S    
C72   O49   D    
C42   O35   A    
C20   C177  S    
C1    C116  S    
C32   C38   S    
O37   Zn9   S    
C18   C175  S    
C80   O64   D    
C156  H80   S    
O3    Zn12  S    
C166  N6    A    
C39   O36   A    
C89   O84   D    
C90   C100  A    
C123  H60   S    
C179  C183  A    
C101  C105  A    
C121  H58   S    
C63   C67   A    
C177  O30   A    
C108  C118  S    
O19   Zn9   S    
C38   O43   A    
N2    N6    A    
H74   O96   S    
C2    N1    A    
C128  C163  S    
C21   H27   S    
C159  H4    S    
C147  C166  S    
C127  C152  S    
C139  C144  A    
C16   C172  A    
O89   Zn3   S    
C61   C78   S    
C47   C137  S    
O17   Zn7   S    
O32   Zn5   S    
O11   Zn10  S    
C64   C82   S    
C114  C118  A    
C172  H35   S    
C84   O73   D    
O39   Zn11  S    
C171  C180  A    
C23   C28   A    
C169  C178  A    
H69   O85   S    
C45   C136  S    
C159  C164  A    
C81   O68   S    
C138  H45   S    
C69   C163  A    
O7    Zn2   S    
C74   O53   D    
C57   C114  A    
C109  C113  A    
C175  O24   A    
C22   C27   A    
C97   O12   A    
C179  H6    S    
O45   Zn2   S    
C26   C74   S    
C102  C106  A    
C151  H22   S    
C47   O4    A    
C9    C31   A    
C66   C84   S    
C10   C32   A    
C143  H18   S    
C105  H77   S    
C115  C120  A    
H47   O59   S    
C36   O41   A    
C92   O88   D    
C111  C115  A    
C69   C86   S    
C120  C124  A    
C43   O5    A    
