data_mof_unit_41707.cif
_audit_creation_date              2012-12-11T14:50:46-0500
_audit_creation_method            fapswitch 2.2
_symmetry_space_group_name_H-M    P1
_symmetry_Int_Tables_number       1
_space_group_crystal_system       triclinic
_cell_length_a                    10.956868
_cell_length_b                    10.854314
_cell_length_c                    18.745601
_cell_angle_alpha                 90.282717
_cell_angle_beta                  89.741586
_cell_angle_gamma                 59.952922
_cell_volume                      1929.715034

loop_
_atom_site_label
_atom_site_type_symbol
_atom_type_description
_atom_site_fract_x
_atom_site_fract_y
_atom_site_fract_z
_atom_type_partial_charge
C1    C     C_R   0.236967 0.646733 0.610170 0.541276
C2    C     C_R   0.556589 0.244183 0.798066 -0.136981
C3    C     C_R   0.538140 0.260065 0.725431 -0.131229
C4    C     C_R   0.656520 0.625795 0.599461 0.531285
C5    C     C_R   0.653822 0.196383 0.678686 0.018862
C6    C     C_R   0.192936 0.555281 0.722982 -0.184316
C7    C     C_R   0.188532 0.558403 0.797168 -0.209090
C8    C     C_R   0.185204 0.672196 0.834918 0.004357
C9    C     C_R   0.204112 0.775204 0.797360 0.230699
C10   C     C_R   0.202370 0.773140 0.723595 -0.138345
C11   C     C_R   0.199036 0.663113 0.685772 -0.032668
C12   C     C_3   0.651037 0.608597 0.802249 -0.210059
C13   C     C_R   0.804492 0.602437 0.294829 -0.129680
C14   C     C_R   0.823530 0.620969 0.223521 -0.130833
C15   C     C_R   0.708793 0.714430 0.181850 0.023641
C16   C     C_R   0.626261 0.231395 0.603813 0.535874
C17   C     C_R   0.575677 0.797590 0.213757 -0.133291
C18   C     C_R   0.555924 0.777921 0.285447 -0.137264
C19   C     C_R   0.669358 0.675469 0.325417 0.026106
C20   C     C_R   0.558743 0.137886 0.290176 -0.137190
C21   C     C_R   0.555579 0.133211 0.217201 -0.136905
C22   C     C_R   0.650463 0.155507 0.176721 0.037000
C23   C     C_3   0.728770 0.694557 0.806679 0.033321
C24   C     C_R   0.745272 0.187751 0.209810 -0.141561
C25   C     C_R   0.746146 0.195944 0.283211 -0.142163
C26   C     C_R   0.650473 0.174103 0.323468 0.030961
C27   C     C_R   0.079423 0.801978 0.305682 -0.139538
C28   C     C_R   0.219342 0.649552 0.402388 0.550075
C29   C     C_R   0.057793 0.815184 0.233463 -0.122952
C30   C     C_R   0.110505 0.693004 0.189795 0.035013
C31   C     C_R   0.173326 0.557783 0.219147 -0.158374
C32   C     C_R   0.193942 0.544387 0.291904 -0.135659
C33   C     C_R   0.154017 0.666547 0.334364 0.032099
C34   C     C_3   0.682287 0.657757 0.673222 0.045499
C35   C     C_R   0.702543 0.102286 0.896401 0.530264
C36   C     C_R   0.756205 0.711672 0.882775 0.544471
C37   C     C_R   0.121064 0.705456 0.906149 0.556860
C38   C     C_R   0.674172 0.107552 0.103930 0.535963
C39   C     C_R   0.732501 0.719411 0.105438 0.565014
C40   C     C_R   0.644316 0.626234 0.393434 0.546551
C41   C     C_R   0.085410 0.713519 0.114829 0.545344
C42   C     C_R   0.618521 0.227400 0.395401 0.547070
C43   C     C_3   0.639852 0.840795 0.769063 -0.216886
C44   C     C_3   0.609993 0.819001 0.690509 -0.231114
C45   C     C_3   0.843258 0.590597 0.687111 -0.231770
C46   C     C_3   0.869440 0.614218 0.765203 -0.251576
C47   C     C_3   0.622290 0.588690 0.724362 -0.225134
C48   C     C_R   0.790323 0.118061 0.705511 -0.155561
C49   C     C_R   0.808643 0.095800 0.778785 -0.130126
C50   C     C_R   0.691288 0.158009 0.825174 0.020292
Cr1   Cr    Cr6+3 0.392930 0.397900 0.502230 1.010489
Cr2   Cr    Cr6+3 0.398240 0.708600 0.501260 1.016456
Cr3   Cr    Cr6+3 0.708800 0.393470 0.496460 1.012993
Cr4   Cr    Cr6+3 0.937620 0.938540 0.007640 1.065612
Cr5   Cr    Cr6+3 0.625150 0.937450 0.994520 1.057609
Cr6   Cr    Cr6+3 0.937990 0.625080 0.001190 1.009138
H1    H     H_    0.697965 0.900320 0.769956 0.108478
H2    H     H_    0.176893 0.477300 0.824658 0.142824
H3    H     H_    0.539566 0.907720 0.798120 0.220368
H4    H     H_    0.211588 0.854949 0.695459 0.182754
H5    H     H_    0.894116 0.524233 0.324729 0.130768
H6    H     H_    0.927145 0.557085 0.199958 0.135027
H7    H     H_    0.485883 0.871931 0.182735 0.132465
H8    H     H_    0.450616 0.835856 0.308083 0.132649
H9    H     H_    0.483787 0.120934 0.320276 0.129628
H10   H     H_    0.482897 0.105639 0.192866 0.130717
H11   H     H_    0.820984 0.202465 0.179097 0.131059
H12   H     H_    0.671001 0.472771 0.712514 0.141281
H13   H     H_    0.816876 0.225758 0.307977 0.136806
H14   H     H_    0.046571 0.896509 0.338163 0.123297
H15   H     H_    0.494346 0.870336 0.682261 0.178098
H16   H     H_    0.002577 0.921374 0.211578 0.141628
H17   H     H_    0.209613 0.463708 0.185897 0.121604
H18   H     H_    0.251518 0.438118 0.313700 0.142985
H19   H     H_    0.650604 0.871069 0.654015 0.113064
H20   H     H_    0.920924 0.679890 0.766576 0.122624
H21   H     H_    0.888821 0.638363 0.650867 0.117205
H22   H     H_    0.715552 0.502162 0.826970 0.146622
H23   H     H_    0.941019 0.509687 0.790127 0.147790
H24   H     H_    0.549933 0.664087 0.832171 0.200402
H25   H     H_    0.506693 0.636925 0.716573 0.143689
H26   H     H_    0.113484 0.111989 0.889162 0.360352
H27   H     H_    0.899832 0.473945 0.676310 0.154078
H28   H     H_    0.880857 0.069717 0.669940 0.126415
H29   H     H_    0.912086 0.021081 0.798207 0.189932
H30   H     H_    0.464644 0.290849 0.832773 0.139205
H31   H     H_    0.432774 0.322464 0.705441 0.149162
H32   H     H_    0.191233 0.468820 0.694795 0.138187
O1    O     O_R   0.507430 0.255570 0.581420 -0.524499
O2    O     O_R   0.837200 0.593290 0.915250 -0.512989
O3    O     O_R   0.065330 0.635370 0.931590 -0.534535
O4    O     O_R   0.280190 0.527390 0.578910 -0.504331
O5    O     O_R   0.068300 0.828790 0.091860 -0.513550
O6    O     O_R   0.798730 0.057480 0.079370 -0.513321
O7    O     O_R   0.584680 0.080480 0.076790 -0.532666
O8    O     O_R   0.626790 0.809640 0.067050 -0.482065
O9    O     O_R   0.816010 0.596460 0.076500 -0.505750
O10   O     O_R   0.045680 0.638310 0.081070 -0.529370
O11   O     O_3   0.833590 0.833690 0.001120 -0.307629
O12   O     O_R   0.524460 0.695920 0.424060 -0.503457
O13   O     O_R   0.260310 0.739740 0.584580 -0.529373
O14   O     O_R   0.532250 0.695150 0.573830 -0.506060
O15   O     O_R   0.744930 0.503430 0.576380 -0.524072
O16   O     O_R   0.699250 0.276390 0.571950 -0.500040
O17   O     O_R   0.499020 0.256400 0.419850 -0.527484
O18   O     O_R   0.272400 0.528160 0.429140 -0.509349
O19   O     O_R   0.251910 0.740570 0.423020 -0.519900
O20   O     O_2   0.333968 0.841253 0.900104 -0.282546
O21   O     O_2   0.300011 0.959554 0.784807 -0.366808
O22   O     O_3   0.084952 0.046431 0.868060 -0.513899
O23   O     O_R   0.736530 0.504260 0.414810 -0.524793
O24   O     O_R   0.691460 0.277160 0.422180 -0.506648
O25   O     O_3   0.499990 0.499990 0.499980 -0.242048
O26   O     O_R   0.089490 0.825610 0.930610 -0.414653
O27   O     O_R   0.818370 0.054540 0.929880 -0.475506
O28   O     O_R   0.605870 0.077310 0.915530 -0.525201
O29   O     O_R   0.646440 0.806700 0.917570 -0.458752
S1    S     S_3+6 0.235662 0.905884 0.838258 -0.029802

loop_
_geom_bond_atom_site_label_1
_geom_bond_atom_site_label_2
_ccdc_geom_bond_type
C21   H10   S    
C27   C29   A    
C1    C11   S    
Cr6   O10   S    
O22   S1    S    
C46   H20   S    
C6    H32   S    
C7    C8    A    
C45   C46   S    
C27   C33   A    
C12   C23   S    
Cr2   O14   S    
Cr1   O25   S    
H26   O22   S    
C32   H18   S    
C30   C31   A    
C31   H17   S    
Cr5   O28   S    
Cr3   O16   S    
C22   C38   S    
C4    O15   A    
C12   H24   S    
C23   C43   S    
C44   H15   S    
C18   C19   A    
C42   O24   A    
Cr4   O5    S    
C2    C50   A    
C24   H11   S    
C16   O16   A    
Cr6   O3    S    
C41   O5    A    
Cr2   O19   S    
C28   O18   A    
C8    C9    A    
C5    C16   S    
C12   H22   S    
C38   O7    A    
C30   C41   S    
C35   O27   A    
C9    C10   A    
C7    H2    S    
C43   H3    S    
C29   H16   S    
Cr3   O23   S    
Cr6   O2    S    
C16   O1    A    
C23   C46   S    
C21   C22   A    
C9    S1    S    
C45   H27   S    
Cr6   O9    S    
C12   C47   S    
Cr3   O25   S    
O21   S1    D    
C40   O23   A    
C5    C48   A    
C4    C34   S    
Cr2   O13   S    
C37   O3    A    
C3    H31   S    
O20   S1    D    
C20   H9    S    
C34   C44   S    
C24   C25   A    
Cr5   O7    S    
C10   C11   A    
C6    C11   A    
C13   C19   A    
C37   O26   A    
C25   C26   A    
Cr2   O25   S    
Cr2   O12   S    
C48   H28   S    
C4    O14   A    
C44   H19   S    
C10   H4    S    
C43   C44   S    
C29   C30   A    
C49   H29   S    
Cr1   O4    S    
C31   C32   A    
Cr1   O17   S    
Cr4   O27   S    
C38   O6    A    
C35   C50   S    
C17   C18   A    
C35   O28   A    
C34   C45   S    
C36   O29   A    
C15   C39   S    
C27   H14   S    
Cr3   O24   S    
C48   C49   A    
C28   C33   S    
C23   C36   S    
C1    O4    A    
C22   C24   A    
Cr4   O11   S    
C25   H13   S    
C8    C37   S    
C1    O13   A    
C47   H12   S    
C26   C42   S    
Cr5   O29   S    
C36   O2    A    
C15   C17   A    
C14   C15   A    
Cr5   O8    S    
C3    C5    A    
C40   O12   A    
C6    C7    A    
C32   C33   A    
C2    C3    A    
C17   H7    S    
C18   H8    S    
C46   H23   S    
C20   C26   A    
Cr3   O15   S    
Cr1   O18   S    
Cr4   O26   S    
C2    H30   S    
C47   H25   S    
C42   O17   A    
C39   O8    A    
Cr4   O6    S    
C39   O9    A    
C19   C40   S    
C43   H1    S    
C13   H5    S    
C20   C21   A    
C49   C50   A    
Cr5   O11   S    
C41   O10   A    
C45   H21   S    
C34   C47   S    
C28   O19   A    
Cr6   O11   S    
C13   C14   A    
Cr1   O1    S    
C14   H6    S    
