data_mof_unit_37418.cif
_audit_creation_date              2012-12-10T19:12:21-0500
_audit_creation_method            fapswitch 2.2
_symmetry_space_group_name_H-M    P1
_symmetry_Int_Tables_number       1
_space_group_crystal_system       triclinic
_cell_length_a                    7.772395
_cell_length_b                    9.07922
_cell_length_c                    17.130379
_cell_angle_alpha                 89.500237
_cell_angle_beta                  93.389089
_cell_angle_gamma                 90.005908
_cell_volume                      1206.68417075

loop_
_atom_site_label
_atom_site_type_symbol
_atom_type_description
_atom_site_fract_x
_atom_site_fract_y
_atom_site_fract_z
_atom_type_partial_charge
C1    C     C_R   0.499977 0.219998 0.500012 0.844245
C2    C     C_R   0.500023 0.780002 0.499989 0.844426
C3    C     C_R   0.520434 0.498316 0.651152 0.844241
C4    C     C_R   0.479596 0.501940 0.348848 0.844267
C5    C     C_R   0.531049 0.499998 0.736573 -0.142759
C6    C     C_R   0.469283 0.503938 0.263411 -0.142655
C7    C     C_R   0.394061 0.446651 0.777762 -0.346914
C8    C     C_R   0.606377 0.450087 0.222920 -0.347318
C9    C     C_R   0.404672 0.442780 0.859776 0.400575
C10   C     C_R   0.595760 0.444811 0.140960 0.400647
C11   C     C_R   0.548817 0.509951 0.900395 0.179039
C12   C     C_R   0.451522 0.511424 0.099472 0.178747
C13   C     C_R   0.683094 0.569711 0.858595 0.383331
C14   C     C_R   0.317221 0.571885 0.140484 0.383480
C15   C     C_R   0.676969 0.557032 0.776962 -0.337440
C16   C     C_R   0.323401 0.560647 0.222287 -0.337433
C17   C     C_1   0.499988 0.065390 0.500004 -0.189194
C18   C     C_1   0.500013 0.934609 0.499996 -0.189170
Cu1   Cu    Cu3+1 0.669080 0.500010 0.500000 0.983560
Cu2   Cu    Cu3+1 0.330920 0.499990 0.500000 0.983757
H1    H     H_    0.719773 0.407852 0.255299 0.172323
H2    H     H_    0.280577 0.404083 0.745996 0.172179
H3    H     H_    0.783743 0.596331 0.744767 0.171968
H4    H     H_    0.216525 0.600413 0.253931 0.171602
N1    N     N_1   0.076820 0.499970 0.500010 -0.056180
N2    N     N_1   0.923180 0.500030 0.499990 -0.056210
N3    N     N_2   0.569013 0.513570 0.983194 -0.158439
N4    N     N_2   0.431186 0.513561 0.016637 -0.158469
O1    O     O_R   0.642760 0.288400 0.500000 -0.579170
O2    O     O_R   0.357240 0.711600 0.500000 -0.579039
O3    O     O_R   0.357190 0.288380 0.500000 -0.579082
O4    O     O_R   0.642810 0.711620 0.500000 -0.579130
O5    O     O_R   0.658410 0.498660 0.613920 -0.588470
O6    O     O_R   0.341590 0.501340 0.386080 -0.588283
O7    O     O_R   0.372840 0.498650 0.613930 -0.588103
O8    O     O_R   0.627160 0.501350 0.386070 -0.588326
O9    O     O_3   0.729563 0.385463 0.100635 -0.557602
C19   C     C_3   0.775251 0.241446 0.127328 0.089815
H5    H     H_    0.767586 0.166636 0.076254 0.151335
H6    H     H_    0.685803 0.192834 0.169185 0.078676
C20   C     C_3   0.959680 0.240473 0.164754 -0.360526
H7    H     H_    0.979993 0.337006 0.203617 0.228119
H8    H     H_    0.979075 0.139561 0.201259 0.161164
C21   C     C_3   0.094714 0.242941 0.103631 -0.743437
H9    H     H_    0.083915 0.142488 0.067204 0.203434
H10   H     H_    0.225554 0.245163 0.133351 0.219205
H11   H     H_    0.078259 0.342189 0.065676 0.317695
O10   O     O_3   0.270492 0.384672 0.900754 -0.556874
C22   C     C_3   0.227485 0.239067 0.877265 0.090348
H12   H     H_    0.236972 0.166570 0.929930 0.149895
H13   H     H_    0.317238 0.189873 0.836143 0.078947
C23   C     C_3   0.042846 0.234265 0.840299 -0.364606
H14   H     H_    0.021509 0.327190 0.798250 0.226586
H15   H     H_    0.024045 0.130231 0.807358 0.162266
C24   C     C_3   0.908329 0.241610 0.901507 -0.739156
H16   H     H_    0.919662 0.144021 0.940948 0.203819
H17   H     H_    0.777265 0.241764 0.871967 0.218084
H18   H     H_    0.924868 0.343593 0.936368 0.318765
O11   O     O_3   0.824268 0.631777 0.899791 -0.567631
C25   C     C_3   0.865087 0.773136 0.869873 0.087986
H19   H     H_    0.865370 0.853274 0.918461 0.148407
H20   H     H_    0.768778 0.817603 0.824793 0.079751
C26   C     C_3   0.043596 0.770650 0.836265 -0.358747
H21   H     H_    0.057813 0.670403 0.800464 0.230356
H22   H     H_    0.057343 0.868016 0.797485 0.158981
C27   C     C_3   0.187593 0.774003 0.900626 -0.725544
H23   H     H_    0.181907 0.877870 0.934106 0.199201
H24   H     H_    0.314442 0.768492 0.874214 0.214406
H25   H     H_    0.175355 0.678704 0.940839 0.331416
O12   O     O_3   0.175618 0.632792 0.098518 -0.566831
C28   C     C_3   0.136336 0.775676 0.125550 0.088414
H26   H     H_    0.136904 0.853785 0.075335 0.146570
H27   H     H_    0.232909 0.820950 0.169851 0.080057
C29   C     C_3   0.957778 0.776270 0.159088 -0.362046
H28   H     H_    0.943474 0.678852 0.197876 0.228439
H29   H     H_    0.944061 0.876541 0.194813 0.159927
C30   C     C_3   0.813880 0.775266 0.094645 -0.720394
H30   H     H_    0.819154 0.876920 0.058358 0.199296
H31   H     H_    0.687014 0.771295 0.121150 0.213074
H32   H     H_    0.826587 0.677443 0.057098 0.332357

loop_
_geom_bond_atom_site_label_1
_geom_bond_atom_site_label_2
_ccdc_geom_bond_type
C27   H24   S    
C24   H16   S    
C26   H22   S    
C2    C18   S    
C14   O12   S    
C20   H7    S    
Cu1   Cu2   S    
C4    O8    A    
Cu2   O2    S    
C30   H30   S    
C23   H14   S    
C29   H29   S    
C12   N4    S    
C10   O9    S    
C25   H20   S    
Cu1   O8    S    
C19   H5    S    
C27   H25   S    
Cu2   N1    S    
C3    O5    A    
C1    O3    A    
C2    O4    A    
Cu1   N2    S    
Cu2   O7    S    
C23   H15   S    
C22   H13   S    
C29   C30   S    
O12   C28   S    
C3    O7    A    
C21   H11   S    
Cu2   O6    S    
C15   H3    S    
C27   H23   S    
C26   C27   S    
O11   C25   S    
C16   H4    S    
C20   H8    S    
Cu1   O4    S    
C21   H10   S    
C8    H1    S    
C30   H31   S    
C4    O6    A    
C29   H28   S    
C19   C20   S    
C4    C6    S    
Cu1   O5    S    
C5    C7    A    
C6    C8    A    
N1    N2    T    
C25   H19   S    
O9    C19   S    
C11   N3    S    
C22   C23   S    
C1    O1    A    
C17   C18   T    
C9    C11   A    
C10   C12   A    
O10   C22   S    
C12   C14   A    
C24   H17   S    
C20   C21   S    
C14   C16   A    
Cu1   O1    S    
C21   H9    S    
C28   H27   S    
C30   H32   S    
C7    C9    A    
C3    C5    S    
C28   C29   S    
C23   C24   S    
C13   O11   S    
C7    H2    S    
C1    C17   S    
C2    O2    A    
C13   C15   A    
C28   H26   S    
C19   H6    S    
C11   C13   A    
C5    C15   A    
C25   C26   S    
C6    C16   A    
C26   H21   S    
C9    O10   S    
C8    C10   A    
C22   H12   S    
C24   H18   S    
N3    N4    D    
Cu2   O3    S    
