data_mof_unit_22565.cif
_audit_creation_date              2012-12-10T17:07:45-0500
_audit_creation_method            fapswitch 2.2
_symmetry_space_group_name_H-M    P1
_symmetry_Int_Tables_number       1
_space_group_crystal_system       triclinic
_cell_length_a                    19.336121
_cell_length_b                    11.056259
_cell_length_c                    9.887331
_cell_angle_alpha                 112.708513
_cell_angle_beta                  98.777388
_cell_angle_gamma                 88.941524
_cell_volume                      1925.17480474

loop_
_atom_site_label
_atom_site_type_symbol
_atom_type_description
_atom_site_fract_x
_atom_site_fract_y
_atom_site_fract_z
_atom_type_partial_charge
C1    C     C_R   0.495201 0.252913 0.438101 0.851368
C2    C     C_R   0.632811 0.500462 0.500161 0.852178
C3    C     C_R   0.261297 0.421031 0.564878 0.137984
C4    C     C_R   0.738703 0.578979 0.435128 0.137984
C5    C     C_R   0.189274 0.424999 0.574625 0.092082
C6    C     C_R   0.810726 0.575017 0.425386 0.092089
C7    C     C_R   0.145772 0.496576 0.506905 -0.057536
C8    C     C_R   0.854229 0.503441 0.493106 -0.057540
C9    C     C_R   0.173241 0.560284 0.427022 0.133028
C10   C     C_R   0.826760 0.439730 0.572987 0.133029
C11   C     C_R   0.245252 0.557352 0.418913 0.108932
C12   C     C_R   0.504799 0.747087 0.561899 0.851367
C13   C     C_R   0.754749 0.442654 0.581090 0.108935
C14   C     C_R   0.290436 0.494721 0.496669 -0.196192
C15   C     C_R   0.709564 0.505283 0.503333 -0.196194
C16   C     C_R   0.929808 0.503126 0.492808 0.438203
C17   C     C_R   0.070193 0.496892 0.507203 0.438201
C18   C     C_3   0.160086 0.352065 0.656925 -0.682580
C19   C     C_3   0.839914 0.647957 0.343091 -0.682581
C20   C     C_3   0.409094 0.894170 0.428851 -0.766159
C21   C     C_3   0.590906 0.105829 0.571148 -0.766158
C22   C     C_3   0.545604 0.973734 0.760070 -0.793609
C23   C     C_2   0.487704 0.110518 0.397158 -0.012987
C24   C     C_3   0.454396 0.026266 0.239930 -0.793611
C25   C     C_2   0.512295 0.889482 0.602842 -0.012986
C26   C     C_2   0.516736 0.058322 0.494423 0.173552
C27   C     C_2   0.483264 0.941678 0.505576 0.173553
C28   C     C_2   0.503111 0.513169 0.082388 0.032413
C29   C     C_2   0.496887 0.486833 0.917613 0.032410
C30   C     C_R   0.367189 0.499538 0.499840 0.852175
Cu1   Cu    Cu3+1 0.512140 0.521810 0.644910 1.032584
Cu2   Cu    Cu3+1 0.487860 0.478190 0.355090 1.032585
H1    H     H_    0.462390 0.406494 0.839452 0.178381
H2    H     H_    0.409349 0.817373 0.316508 0.251662
H3    H     H_    0.382199 0.852844 0.494120 0.232143
H4    H     H_    0.622873 0.023339 0.577456 0.257912
H5    H     H_    0.617800 0.147153 0.505878 0.232144
H6    H     H_    0.590651 0.182627 0.683491 0.251663
H7    H     H_    0.523499 0.943622 0.840158 0.258348
H8    H     H_    0.603042 0.961911 0.774630 0.250804
H9    H     H_    0.533654 0.078530 0.790653 0.248419
H10   H     H_    0.476500 0.056378 0.159842 0.258350
H11   H     H_    0.466345 0.921470 0.209347 0.248416
H12   H     H_    0.537606 0.593512 0.160549 0.178378
H13   H     H_    0.396958 0.038088 0.225370 0.250804
H14   H     H_    0.104502 0.370975 0.669670 0.233461
H15   H     H_    0.164015 0.244776 0.596836 0.255553
H16   H     H_    0.190305 0.383014 0.770686 0.257810
H17   H     H_    0.895497 0.629046 0.330340 0.233460
H18   H     H_    0.809695 0.617015 0.229331 0.257810
H19   H     H_    0.835987 0.755246 0.403186 0.255552
H20   H     H_    0.377126 0.976659 0.422544 0.257912
I1    I     I_    0.323007 0.282645 0.627164 -0.353362
I2    I     I_    0.676991 0.717364 0.372847 -0.353366
I3    I     I_    0.103306 0.657287 0.313968 -0.205114
I4    I     I_    0.896696 0.342737 0.686051 -0.205114
I5    I     I_    0.281709 0.638165 0.276112 -0.272171
I6    I     I_    0.718291 0.361830 0.723881 -0.272168
I7    I     I_    0.592498 0.721989 0.996825 -0.230358
I8    I     I_    0.407511 0.277998 0.003171 -0.230369
N1    N     N_R   0.040460 0.606133 0.592710 -0.184579
N2    N     N_R   0.959541 0.393885 0.407302 -0.184580
N3    N     N_R   0.971262 0.608950 0.586169 -0.189214
N4    N     N_R   0.028739 0.391068 0.413843 -0.189214
N5    N     N_2   0.469620 0.445420 0.137370 -0.094465
N6    N     N_2   0.530380 0.554580 0.862630 -0.094467
O1    O     O_R   0.506480 0.332340 0.577400 -0.585399
O2    O     O_R   0.493520 0.667660 0.422600 -0.585400
O3    O     O_R   0.485980 0.295500 0.332650 -0.554007
O4    O     O_R   0.514020 0.704500 0.667350 -0.554009
O5    O     O_R   0.410390 0.518410 0.622410 -0.569418
O6    O     O_R   0.589610 0.481590 0.377590 -0.569415
O7    O     O_R   0.389900 0.481570 0.377660 -0.529656
O8    O     O_R   0.610100 0.518430 0.622340 -0.529655

loop_
_geom_bond_atom_site_label_1
_geom_bond_atom_site_label_2
_ccdc_geom_bond_type
Cu1   N6    S    
N2    N4    A    
C21   C26   S    
Cu2   O3    S    
C6    C19   S    
C20   C27   S    
C29   H1    S    
C25   C27   D    
C12   O2    A    
C19   H17   S    
Cu1   Cu2   S    
C2    O8    A    
Cu2   O2    S    
C12   C25   S    
C23   C24   S    
C22   H8    S    
C18   H15   S    
Cu1   O4    S    
C4    C15   A    
Cu1   O5    S    
C30   O5    A    
C20   H2    S    
Cu2   O6    S    
C21   H4    S    
C11   I5    S    
C3    I1    S    
Cu1   O1    S    
C2    C15   S    
C9    C11   A    
C19   H18   S    
C26   C27   S    
C3    C14   A    
C16   N2    A    
C14   C30   S    
C2    O6    A    
C24   H13   S    
C18   H14   S    
C8    C10   A    
C28   C29   S    
C16   N3    A    
I8    N5    S    
C1    C23   S    
C7    C9    A    
C13   C15   A    
I7    N6    S    
C13   I6    S    
C9    I3    S    
C24   H11   S    
C11   C14   A    
C17   N1    A    
C22   H9    S    
C22   H7    S    
C29   N6    D    
C19   H19   S    
C17   N4    A    
C24   H10   S    
C22   C25   S    
C21   H5    S    
C4    C6    A    
C10   I4    S    
C8    C16   S    
C23   C26   D    
Cu2   O7    S    
C5    C7    A    
C30   O7    A    
C12   O4    A    
C20   H20   S    
Cu1   O8    S    
C6    C8    A    
C5    C18   S    
C1    O1    A    
C4    I2    S    
C20   H3    S    
C28   N5    D    
C28   H12   S    
N1    N3    A    
C1    O3    A    
C21   H6    S    
C18   H16   S    
Cu2   N5    S    
C3    C5    A    
C10   C13   A    
C7    C17   S    
