data_mof_unit_51706.cif
_audit_creation_date              2013-03-05T15:56:11-0500
_audit_creation_method            fapswitch 2.2
_symmetry_space_group_name_H-M    P1
_symmetry_Int_Tables_number       1
_space_group_crystal_system       triclinic
_cell_length_a                    6.929713
_cell_length_b                    14.517241
_cell_length_c                    16.13168
_cell_angle_alpha                 89.999274
_cell_angle_beta                  89.996884
_cell_angle_gamma                 90.001175
_cell_volume                      1622.85206534

loop_
_atom_site_label
_atom_site_type_symbol
_atom_site_description
_atom_site_fract_x
_atom_site_fract_y
_atom_site_fract_z
_atom_type_partial_charge
O1    O     O_R   0.638140 0.833910 0.163320 -0.587190
O2    O     O_R   0.361860 0.166090 0.836680 -0.587219
O3    O     O_R   0.361860 0.166090 0.663320 -0.587175
O4    O     O_R   0.638140 0.833910 0.336680 -0.587202
O5    O     O_R   0.138140 0.666090 0.336680 -0.587179
O6    O     O_R   0.861860 0.333910 0.663320 -0.587210
O7    O     O_R   0.861860 0.333910 0.836680 -0.587200
O8    O     O_R   0.138140 0.666090 0.163320 -0.587224
O9    O     O_R   0.308390 0.844930 0.336080 -0.571556
O10   O     O_R   0.691610 0.155070 0.663920 -0.571459
O11   O     O_R   0.691610 0.155070 0.836080 -0.571738
O12   O     O_R   0.308390 0.844930 0.163920 -0.571588
O13   O     O_R   0.808390 0.655070 0.163920 -0.571613
O14   O     O_R   0.191610 0.344930 0.836080 -0.571487
O15   O     O_R   0.191610 0.344930 0.663920 -0.571574
O16   O     O_R   0.808390 0.655070 0.336080 -0.571440
C1    C     C_R   0.476729 0.867959 0.364339 0.992720
C2    C     C_R   0.523277 0.132040 0.635659 0.992727
C3    C     C_R   0.523257 0.132051 0.864346 0.992660
C4    C     C_R   0.476737 0.867960 0.135660 0.992592
C5    C     C_R   0.976734 0.632044 0.135659 0.992575
C6    C     C_R   0.023271 0.367963 0.864339 0.992547
C7    C     C_R   0.023273 0.367956 0.635659 0.992687
C8    C     C_R   0.976721 0.632036 0.364338 0.992657
O17   O     O_3   0.471620 0.691320 0.250000 -0.233440
O18   O     O_3   0.528380 0.308680 0.750000 -0.233448
O19   O     O_3   0.971620 0.808680 0.250000 -0.233491
O20   O     O_3   0.028380 0.191320 0.750000 -0.233523
V1    V     V_3+5 0.196770 0.760880 0.250000 1.317323
V2    V     V_3+5 0.803230 0.239120 0.750000 1.317311
V3    V     V_3+5 0.696770 0.739120 0.250000 1.317347
V4    V     V_3+5 0.303230 0.260880 0.750000 1.317341
C9    C     C_R   0.845431 0.493520 0.443703 0.384793
C10   C     C_R   0.154505 0.506464 0.556301 0.384808
C11   C     C_R   0.154551 0.506478 0.943692 0.384812
C12   C     C_R   0.845512 0.493532 0.056317 0.384812
C13   C     C_R   0.345517 0.006496 0.056341 0.384791
C14   C     C_R   0.654414 0.993529 0.943663 0.384797
C15   C     C_R   0.654574 0.993539 0.556285 0.384849
C16   C     C_R   0.345489 0.006466 0.443696 0.384809
C17   C     C_R   0.862496 0.430666 0.509401 -0.148608
C18   C     C_R   0.137479 0.569310 0.490597 -0.148688
C19   C     C_R   0.137511 0.569331 0.009391 -0.148731
C20   C     C_R   0.862515 0.430688 0.990610 -0.148774
C21   C     C_R   0.362511 0.069353 0.990641 -0.148660
C22   C     C_R   0.637466 0.930682 0.009370 -0.148751
C23   C     C_R   0.637515 0.930683 0.490590 -0.148662
C24   C     C_R   0.362514 0.069314 0.509399 -0.148659
H1    H     H_    0.755394 0.376659 0.515389 0.179998
H2    H     H_    0.244575 0.623321 0.484623 0.179929
H3    H     H_    0.244614 0.623337 0.015369 0.179945
H4    H     H_    0.755420 0.376676 0.984647 0.179878
H5    H     H_    0.255437 0.123374 0.984689 0.179792
H6    H     H_    0.744533 0.876656 0.015303 0.179711
H7    H     H_    0.744623 0.876682 0.484604 0.179993
H8    H     H_    0.255415 0.123321 0.515372 0.179942
C25   C     C_R   0.014927 0.436017 0.566552 -0.344649
C26   C     C_R   0.985041 0.563965 0.433442 -0.344595
C27   C     C_R   0.985091 0.563979 0.066556 -0.344587
C28   C     C_R   0.014940 0.436034 0.933442 -0.344538
C29   C     C_R   0.514874 0.063988 0.933450 -0.344554
C30   C     C_R   0.485092 0.936039 0.066562 -0.344490
C31   C     C_R   0.485075 0.936024 0.433442 -0.344636
C32   C     C_R   0.514954 0.063974 0.566551 -0.344613
N1    N     N_R   0.688535 0.482396 0.386865 0.239739
O21   O     O_R   0.540365 0.537087 0.391958 -0.373182
O22   O     O_R   0.671006 0.405261 0.346514 -0.313846
N2    N     N_R   0.311246 0.517623 0.613197 0.239660
O23   O     O_R   0.459807 0.463198 0.607988 -0.373232
O24   O     O_R   0.327975 0.594541 0.653920 -0.313799
N3    N     N_R   0.311414 0.517601 0.886835 0.239720
O25   O     O_R   0.459678 0.462977 0.891962 -0.373190
O26   O     O_R   0.328756 0.594680 0.846385 -0.313866
N4    N     N_R   0.688801 0.482370 0.113234 0.239640
O27   O     O_R   0.540166 0.536744 0.108005 -0.373221
O28   O     O_R   0.672217 0.405490 0.154027 -0.313831
N5    N     N_R   0.188781 0.017639 0.113249 0.239685
O29   O     O_R   0.040224 0.963210 0.108035 -0.373160
O30   O     O_R   0.172005 0.094570 0.153951 -0.313691
N6    N     N_R   0.810968 0.982342 0.886684 0.239603
O31   O     O_R   0.959988 0.036459 0.892032 -0.373217
O32   O     O_R   0.826792 0.905664 0.845544 -0.313562
N7    N     N_R   0.811456 0.982421 0.613122 0.239782
O33   O     O_R   0.959703 0.037056 0.607986 -0.373228
O34   O     O_R   0.828836 0.905336 0.653554 -0.313608
N8    N     N_R   0.188740 0.017620 0.386803 0.239681
O35   O     O_R   0.040202 0.963171 0.392005 -0.373236
O36   O     O_R   0.171958 0.094568 0.346104 -0.313636

loop_
_geom_bond_atom_site_label_1
_geom_bond_atom_site_label_2
_geom_bond_distance
_ccdc_geom_bond_type
O17   V3    1.707568 S    
O18   V4    1.707568 S    
C9    C26   1.417455 A    
O12   V1    2.003789 S    
O19   V1    1.707594 S    
C10   C18   1.403470 A    
C12   C27   1.417300 A    
C2    C32   1.490836 S    
C18   C26   1.404309 A    
C13   C30   1.417378 A    
C9    N1    1.431415 S    
O15   V4    2.003867 S    
N5    O29   1.300453 A    
O16   V3    2.003866 S    
C15   C32   1.417432 A    
O11   C3    1.296364 A    
C16   C31   1.417324 A    
N4    O28   1.300710 A    
C22   C30   1.404317 A    
O8    V1    2.003499 S    
O2    V4    2.003485 S    
O10   C2    1.296300 A    
C5    C27   1.490776 S    
C6    C28   1.490834 S    
C3    C29   1.490756 S    
N8    O36   1.300922 A    
C24   C32   1.404298 A    
O1    V3    2.003486 S    
O3    C2    1.301779 A    
C7    C25   1.490761 S    
C16   N8    1.431278 S    
C16   C24   1.403476 A    
O11   V2    2.003788 S    
N2    O23   1.300450 A    
N1    O22   1.300942 A    
C10   C25   1.417305 A    
C11   C19   1.403491 A    
O9    V1    2.003868 S    
C14   C29   1.417203 A    
C20   H4    1.083891 S    
O15   C7    1.296319 A    
C11   N3    1.431362 S    
O16   C8    1.296293 A    
O7    V2    2.003498 S    
C22   H6    1.083890 S    
C17   H1    1.083895 S    
O5    V1    2.003442 S    
N5    O30   1.300757 A    
O17   V1    2.155791 S    
N4    O27   1.300441 A    
O19   V3    2.155755 S    
O20   V4    2.155755 S    
N6    O32   1.300615 A    
C10   N2    1.431273 S    
N3    O26   1.300888 A    
N8    O35   1.300510 A    
C15   C23   1.403480 A    
C13   N5    1.431266 S    
C21   H5    1.083892 S    
C11   C28   1.417435 A    
O10   V2    2.003869 S    
N7    O33   1.300493 A    
O12   C4    1.296333 A    
O8    C5    1.301716 A    
O13   C5    1.296322 A    
C12   N4    1.431253 S    
C18   H2    1.083891 S    
O4    C1    1.301730 A    
O9    C1    1.296319 A    
N7    O34   1.300854 A    
O18   V2    2.155791 S    
C12   C20   1.403476 A    
C13   C21   1.403490 A    
C23   H7    1.083894 S    
C24   H8    1.083894 S    
O1    C4    1.301733 A    
O6    V2    2.003444 S    
O2    C3    1.301665 A    
O13   V3    2.003830 S    
O14   V4    2.003829 S    
N6    O31   1.300392 A    
C19   C27   1.404249 A    
O7    C6    1.301775 A    
C9    C17   1.403488 A    
O14   C6    1.296298 A    
O20   V2    1.707594 S    
C15   N7    1.431340 S    
N3    O25   1.300509 A    
C1    C31   1.490782 S    
C23   C31   1.404244 A    
C19   H3    1.083893 S    
O5    C8    1.301776 A    
C14   N6    1.431114 S    
C20   C28   1.404306 A    
O6    C7    1.301714 A    
C21   C29   1.404254 A    
C4    C30   1.490819 S    
O3    V4    2.003479 S    
C14   C22   1.403459 A    
O4    V3    2.003478 S    
C17   C25   1.404249 A    
C8    C26   1.490823 S    
N1    O21   1.300542 A    
N2    O24   1.300729 A    
