data_mof_unit_12280.cif
_audit_creation_date              2012-12-10T16:57:13-0500
_audit_creation_method            fapswitch 2.2
_symmetry_space_group_name_H-M    P1
_symmetry_Int_Tables_number       1
_space_group_crystal_system       triclinic
_cell_length_a                    15.872882
_cell_length_b                    10.890269
_cell_length_c                    9.724688
_cell_angle_alpha                 88.151139
_cell_angle_beta                  89.553225
_cell_angle_gamma                 90.504086
_cell_volume                      1680.01406273

loop_
_atom_site_label
_atom_site_type_symbol
_atom_type_description
_atom_site_fract_x
_atom_site_fract_y
_atom_site_fract_z
_atom_type_partial_charge
C1    C     C_R   0.496415 0.265446 0.502109 0.837480
C2    C     C_3   0.949928 0.388907 0.581088 -0.386024
C3    C     C_3   0.917261 0.502989 0.499187 0.272331
C4    C     C_3   0.951180 0.620205 0.566998 -0.425047
C5    C     C_3   0.049322 0.620295 0.570264 0.351789
C6    C     C_1   0.825055 0.502491 0.498496 -0.084042
C7    C     C_1   0.175026 0.501816 0.501265 -0.064090
C8    C     C_1   0.250595 0.500920 0.501303 -0.159866
C9    C     C_2   0.456610 0.935196 0.413592 -0.074394
C10   C     C_2   0.512226 0.868488 0.489431 0.252767
C11   C     C_2   0.465381 0.069142 0.400244 -0.158593
C12   C     C_R   0.340287 0.500158 0.500494 0.829264
C13   C     C_2   0.486577 0.133555 0.509601 -0.254216
C14   C     C_2   0.463549 0.413811 0.925922 0.566697
C15   C     C_2   0.448487 0.435357 0.078850 -0.074172
C16   C     C_R   0.503094 0.734694 0.497725 0.715329
C17   C     C_R   0.659728 0.500535 0.499465 0.808205
C18   C     C_3   0.047494 0.388452 0.581080 -0.488104
C19   C     C_3   0.049905 0.500353 0.350994 -0.354528
C20   C     C_3   0.952321 0.500421 0.350211 -0.382083
C21   C     C_1   0.749455 0.501653 0.498528 -0.166403
C22   C     C_3   0.082778 0.503252 0.500723 0.266422
Cu1   Cu    Cu3+1 0.500020 0.500020 0.638630 0.979202
Cu2   Cu    Cu3+1 0.499980 0.499980 0.361370 0.982062
H1    H     H_    0.926053 0.303369 0.534613 0.178281
H2    H     H_    0.070404 0.387040 0.689010 0.167101
H3    H     H_    0.926010 0.389283 0.688983 0.171310
H4    H     H_    0.928234 0.703087 0.509159 0.186598
H5    H     H_    0.450182 0.114980 0.302725 0.146742
H6    H     H_    0.493645 0.088230 0.609553 0.178902
H7    H     H_    0.506270 0.583844 0.887773 0.182027
H8    H     H_    0.394146 0.392696 0.129551 0.084022
H9    H     H_    0.070393 0.303269 0.533296 0.186927
H10   H     H_    0.074406 0.581154 0.289618 0.203065
H11   H     H_    0.073076 0.416664 0.300471 0.153233
H12   H     H_    0.928777 0.417071 0.298863 0.168988
H13   H     H_    0.929882 0.581885 0.289348 0.171585
H14   H     H_    0.069965 0.614929 0.680066 0.037527
H15   H     H_    0.926162 0.624928 0.673936 0.125021
N1    N     N_2   0.499090 0.498660 0.846910 -0.282376
N2    N     N_2   0.499070 0.498630 0.153040 -0.017026
O1    O     O_R   0.500010 0.321960 0.617040 -0.516949
O2    O     O_R   0.499990 0.321920 0.382900 -0.579928
O3    O     O_R   0.379450 0.500030 0.617120 -0.560387
O4    O     O_R   0.379420 0.499980 0.382980 -0.582725
O5    O     O_R   0.500010 0.678080 0.617100 -0.616485
O6    O     O_R   0.499990 0.678040 0.382960 -0.602399
O7    O     O_R   0.620580 0.500020 0.617020 -0.572551
O8    O     O_R   0.620550 0.499970 0.382880 -0.554721
C23   C     C_1   0.385136 0.879986 0.346208 0.172722
N3    N     N_1   0.328112 0.835879 0.292424 -0.281607
O9    O     O_3   0.586591 0.925550 0.531205 -0.584050
C24   C     C_3   0.616907 0.875251 0.656717 0.061559
H16   H     H_    0.646388 0.784537 0.640200 0.158000
H17   H     H_    0.565655 0.866122 0.735509 0.147902
C25   C     C_3   0.683964 0.960899 0.711677 -0.801109
H18   H     H_    0.656350 0.052279 0.730544 0.251258
H19   H     H_    0.709163 0.922110 0.809802 0.202097
H20   H     H_    0.736519 0.972103 0.636106 0.252189
O10   O     O_3   0.435407 0.306899 0.864708 -0.552450
C26   C     C_3   0.422147 0.208062 0.960832 0.028843
H21   H     H_    0.360199 0.218278 0.013196 0.137003
H22   H     H_    0.473449 0.201613 0.038378 0.147163
C27   C     C_3   0.420657 0.087476 0.886352 -0.788974
H23   H     H_    0.484615 0.067715 0.846356 0.234524
H24   H     H_    0.401428 0.011451 0.959114 0.206194
H25   H     H_    0.375261 0.092261 0.800028 0.249281
O11   O     O_3   0.575112 0.522987 0.094426 -0.498325
C28   C     C_3   0.593291 0.648828 0.110446 0.212926
H26   H     H_    0.615935 0.665825 0.215365 0.189131
H27   H     H_    0.537297 0.707274 0.088650 0.111638
C29   C     C_3   0.663654 0.688519 0.010990 -0.906269
H28   H     H_    0.643885 0.676258 0.903030 0.246876
H29   H     H_    0.679298 0.786915 0.024704 0.207899
H30   H     H_    0.720820 0.632968 0.031484 0.261891
O12   O     O_3   0.081921 0.726749 0.499452 -0.570468
C30   C     C_3   0.090987 0.824605 0.590232 0.059948
H31   H     H_    0.140873 0.803383 0.667040 0.142851
H32   H     H_    0.030594 0.842885 0.644663 0.131479
C31   C     C_3   0.117090 0.940352 0.508502 -0.771563
H33   H     H_    0.068270 0.964260 0.431184 0.243060
H34   H     H_    0.124474 0.017934 0.578928 0.189048
H35   H     H_    0.178021 0.925612 0.454856 0.263564

loop_
_geom_bond_atom_site_label_1
_geom_bond_atom_site_label_2
_ccdc_geom_bond_type
C2    C18   S    
C19   C20   S    
C18   H2    S    
C17   O7    A    
C3    C6    S    
C10   O9    S    
C7    C8    T    
C24   H16   S    
C25   H18   S    
Cu1   O1    S    
Cu2   O4    S    
C31   H35   S    
C31   H33   S    
C30   C31   S    
Cu1   N1    S    
H7    N1    S    
C28   H27   S    
C26   H22   S    
C1    O2    A    
C5    C22   S    
O11   C28   S    
Cu1   Cu2   S    
C2    H3    S    
C9    C10   D    
C30   H32   S    
Cu1   O5    S    
C5    H14   S    
Cu2   N2    S    
C28   H26   S    
C29   H30   S    
C16   O6    A    
C4    H4    S    
N2    O11   S    
C24   H17   S    
C27   H25   S    
C13   H6    S    
C15   H8    S    
C19   C22   S    
O12   C30   S    
C15   N2    D    
C29   H29   S    
C17   O8    A    
C29   H28   S    
C30   H31   S    
C6    C21   T    
C17   C21   S    
Cu1   O3    S    
O10   C26   S    
C27   H24   S    
C28   C29   S    
C4    H15   S    
C8    C12   S    
C23   N3    T    
C3    C20   S    
C9    C11   S    
C31   H34   S    
C1    C13   S    
C16   O5    A    
C3    C4    S    
O9    C24   S    
C24   C25   S    
Cu2   O8    S    
Cu1   O7    S    
C18   C22   S    
Cu2   O6    S    
C9    C23   S    
C12   O4    A    
C19   H10   S    
C7    C22   S    
C14   O10   S    
C25   H20   S    
C27   H23   S    
C5    O12   S    
C2    C3    S    
C12   O3    A    
C19   H11   S    
C26   C27   S    
C20   H13   S    
C11   C13   D    
C25   H19   S    
C2    H1    S    
C26   H21   S    
C18   H9    S    
C14   N1    D    
C20   H12   S    
C1    O1    A    
C4    C5    S    
C11   H5    S    
Cu2   O2    S    
C14   C15   S    
C10   C16   S    
