data_mof_unit_29326.cif
_audit_creation_date              2012-12-11T15:21:38-0500
_audit_creation_method            fapswitch 2.2
_symmetry_space_group_name_H-M    P1
_symmetry_Int_Tables_number       1
_space_group_crystal_system       triclinic
_cell_length_a                    19.148896
_cell_length_b                    7.149815
_cell_length_c                    17.676347
_cell_angle_alpha                 90.042329
_cell_angle_beta                  108.99465
_cell_angle_gamma                 89.960551
_cell_volume                      2288.31033934

loop_
_atom_site_label
_atom_site_type_symbol
_atom_type_description
_atom_site_fract_x
_atom_site_fract_y
_atom_site_fract_z
_atom_type_partial_charge
O1    O     O_R   0.562310 0.505770 0.439670 -0.533532
O2    O     O_R   0.437690 0.005770 0.560330 -0.527443
O3    O     O_R   0.411650 0.169150 0.405330 -0.531034
O4    O     O_R   0.588350 0.669150 0.594670 -0.537739
C1    C     C_R   0.385190 0.345853 0.382154 0.633444
C2    C     C_R   0.614991 0.845420 0.617368 0.637620
O5    O     O_R   0.560140 0.175610 0.430010 -0.539117
O6    O     O_R   0.439860 0.675610 0.569990 -0.544609
O7    O     O_R   0.587240 0.012100 0.585200 -0.539446
O8    O     O_R   0.412760 0.512100 0.414800 -0.541783
C3    C     C_R   0.580762 0.344629 0.414547 0.706726
C4    C     C_R   0.418909 0.844668 0.585055 0.707327
O9    O     O_3   0.508720 0.341420 0.550890 -0.374837
O10   O     O_3   0.491280 0.841420 0.449110 -0.373165
V1    V     V_3+5 0.498380 0.063930 0.490560 1.437125
V2    V     V_3+5 0.501620 0.563930 0.509440 1.412031
C5    C     C_R   0.176996 0.066040 0.862967 -0.223316
C6    C     C_R   0.822823 0.566570 0.136900 -0.223777
C7    C     C_R   0.129827 0.916115 0.864563 -0.080967
C8    C     C_R   0.870007 0.416502 0.135255 -0.081328
C9    C     C_R   0.130659 0.754513 0.819180 -0.215102
C10   C     C_R   0.868972 0.254698 0.180332 -0.216327
C11   C     C_R   0.177497 0.742358 0.772499 0.087359
C12   C     C_R   0.821897 0.242381 0.226707 0.088249
C13   C     C_R   0.225318 0.892212 0.772190 0.056714
C14   C     C_R   0.774084 0.392375 0.227096 0.057029
C15   C     C_R   0.225228 0.054288 0.817832 0.093274
C16   C     C_R   0.774374 0.554701 0.181785 0.093222
C17   C     C_R   0.177444 0.582833 0.726120 -0.188629
C18   C     C_R   0.821689 0.082494 0.272679 -0.195222
C19   C     C_R   0.224954 0.570748 0.680554 -0.175347
C20   C     C_R   0.773805 0.070015 0.317769 -0.165078
C21   C     C_R   0.273592 0.717654 0.680717 0.087457
C22   C     C_R   0.725172 0.217047 0.317650 0.081421
C23   C     C_R   0.273442 0.879789 0.726308 0.056180
C24   C     C_R   0.725758 0.379797 0.272721 0.052417
C25   C     C_R   0.321307 0.029587 0.726072 0.092019
C26   C     C_R   0.678082 0.529949 0.273319 0.093434
C27   C     C_R   0.321270 0.189249 0.772326 -0.195125
C28   C     C_R   0.678239 0.689774 0.227299 -0.195153
C29   C     C_R   0.273766 0.201335 0.817880 -0.190865
C30   C     C_R   0.725793 0.701804 0.181793 -0.192212
C31   C     C_R   0.322080 0.705611 0.635873 -0.214397
C32   C     C_R   0.676302 0.204553 0.361963 -0.205788
C33   C     C_R   0.369474 0.855274 0.634596 -0.067358
C34   C     C_R   0.629696 0.355158 0.364399 -0.090525
C35   C     C_R   0.368388 0.017141 0.679708 -0.187052
C36   C     C_R   0.631149 0.517705 0.319888 -0.202461
H1    H     H_    0.177257 0.190524 0.898131 0.122273
H2    H     H_    0.822716 0.691225 0.101966 0.122746
H3    H     H_    0.094281 0.638627 0.819557 0.132180
H4    H     H_    0.905334 0.138675 0.179905 0.131720
H5    H     H_    0.140900 0.466697 0.725414 0.138703
H6    H     H_    0.858262 0.966308 0.273364 0.138340
H7    H     H_    0.223922 0.445785 0.645478 0.152655
H8    H     H_    0.774619 0.944778 0.352539 0.161041
H9    H     H_    0.321927 0.581055 0.600783 0.138828
H10   H     H_    0.675461 0.078731 0.395674 0.177010
H11   H     H_    0.404838 0.132955 0.679460 0.123769
H12   H     H_    0.595106 0.634140 0.320740 0.128862
H13   H     H_    0.357814 0.305385 0.773032 0.129981
H14   H     H_    0.641764 0.806088 0.226754 0.130034
H15   H     H_    0.274799 0.326308 0.852946 0.132481
H16   H     H_    0.724832 0.826876 0.146885 0.133134
C37   C     C_3   0.786060 0.701361 0.800487 -0.278530
C38   C     C_3   0.236986 0.250307 0.171941 -0.290539
H17   H     H_    0.828886 0.613250 0.787740 0.166790
H18   H     H_    0.206188 0.115700 0.162717 0.161124
H19   H     H_    0.779254 0.648245 0.856863 0.126277
H20   H     H_    0.250134 0.279357 0.116221 0.116570
C39   C     C_3   0.712240 0.676149 0.731670 -0.320595
C40   C     C_3   0.309876 0.225513 0.242903 -0.320757
H21   H     H_    0.669397 0.624603 0.756608 0.129569
H22   H     H_    0.357729 0.249257 0.221466 0.120969
H23   H     H_    0.718215 0.566303 0.689780 0.179057
H24   H     H_    0.314614 0.079082 0.264869 0.178549
H25   H     H_    0.869774 0.893825 0.723526 0.150734
H26   H     H_    0.137427 0.233107 0.255383 0.160064
C41   C     C_3   0.823057 0.973720 0.732241 -0.369608
C42   C     C_3   0.171024 0.363374 0.265246 -0.363394
C43   C     C_3   0.748275 0.027495 0.823607 -0.332588
C44   C     C_3   0.235079 0.592761 0.202347 -0.335969
C45   C     C_3   0.811995 0.910721 0.811393 0.092511
C46   C     C_3   0.188236 0.411927 0.187519 0.094491
H27   H     H_    0.763714 0.178120 0.830177 0.142364
H28   H     H_    0.203215 0.710831 0.216050 0.174968
H29   H     H_    0.738749 0.983336 0.879794 0.129059
H30   H     H_    0.248097 0.630894 0.147390 0.131097
C47   C     C_3   0.686891 0.864325 0.687924 0.043110
C48   C     C_3   0.313335 0.365564 0.311047 0.036020
C49   C     C_3   0.750409 0.947311 0.659857 -0.096600
C50   C     C_3   0.243611 0.342454 0.338139 -0.107303
C51   C     C_3   0.675786 0.002262 0.751699 -0.338503
C52   C     C_3   0.307860 0.565725 0.272911 -0.316777
H31   H     H_    0.631245 0.949817 0.773809 0.129882
H32   H     H_    0.355736 0.589712 0.251512 0.137155
H33   H     H_    0.657710 0.141618 0.724299 0.151026
H34   H     H_    0.310303 0.675441 0.318327 0.172281
H35   H     H_    0.839516 0.123670 0.736826 0.138280
H36   H     H_    0.136262 0.475771 0.278166 0.124840
H37   H     H_    0.732398 0.089284 0.635012 0.111429
H38   H     H_    0.244673 0.459852 0.380091 0.094890
O11   O     O_R   0.087220 0.271820 0.085230 -0.541841
O12   O     O_R   0.912780 0.771820 0.914770 -0.543143
O13   O     O_R   0.939860 0.595540 0.069990 -0.539774
O14   O     O_R   0.060140 0.095540 0.930010 -0.539961
C53   C     C_R   0.919127 0.426635 0.085327 0.700647
C54   C     C_R   0.080831 0.926492 0.914632 0.700801
O15   O     O_R   0.088340 0.601930 0.094680 -0.537679
O16   O     O_R   0.911660 0.101930 0.905320 -0.537320
O17   O     O_R   0.062310 0.765410 0.939660 -0.537856
O18   O     O_R   0.937690 0.265410 0.060340 -0.537541
C55   C     C_R   0.116513 0.431886 0.117055 0.653556
C56   C     C_R   0.883715 0.931535 0.882367 0.651984
O19   O     O_3   0.991270 0.429630 0.949130 -0.373112
O20   O     O_3   0.008730 0.929630 0.050870 -0.371323
V3    V     V_3+5 0.001620 0.707150 0.009440 1.387158
V4    V     V_3+5 0.998380 0.207150 0.990560 1.385654
C57   C     C_2   0.764413 0.833845 0.593738 0.725012
O21   O     O_2   0.747713 0.898629 0.526213 -0.583077
O22   O     O_R   0.797401 0.657305 0.609754 -0.673785
H39   H     H_    0.803461 0.596354 0.560456 0.297716
C58   C     C_2   0.243706 0.162654 0.383551 0.745189
O23   O     O_2   0.252843 0.168757 0.455299 -0.568420
O24   O     O_R   0.232470 0.990576 0.343799 -0.683091
H40   H     H_    0.233449 0.881740 0.380871 0.280189

loop_
_geom_bond_atom_site_label_1
_geom_bond_atom_site_label_2
_ccdc_geom_bond_type
C38   H18   S    
O4    V2    S    
C46   C55   S    
C44   C52   S    
C51   H33   S    
C53   O18   A    
O1    C3    A    
C40   H24   S    
O2    C4    A    
O16   V4    S    
C2    O7    A    
O15   V3    S    
C58   O23   D    
C27   C29   A    
O5    C3    A    
O13   C53   A    
C17   H5    S    
C11   C17   A    
C10   C12   A    
C41   H35   S    
C26   C28   A    
C12   C14   A    
O12   V3    S    
H26   C42   S    
C58   O24   S    
C52   H34   S    
C28   H14   S    
O20   V3    S    
C33   C35   A    
C51   H31   S    
C5    C7    A    
C38   C40   S    
C32   H10   S    
C37   H17   S    
C19   C21   A    
C36   H12   S    
C25   C35   A    
O16   C56   A    
C41   C49   S    
C1    C48   S    
O15   C55   A    
C8    C53   S    
C7    C54   S    
C18   H6    S    
H25   C41   S    
O6    V2    S    
C42   H36   S    
C28   C30   A    
C45   C56   S    
O13   V3    S    
C49   H37   S    
C43   C45   S    
C32   C34   A    
C43   H27   S    
C48   C52   S    
C57   O22   S    
C27   H13   S    
C34   C36   A    
C42   C46   S    
C5    C15   A    
C6    C16   A    
C40   H22   S    
C50   C58   S    
C5    H1    S    
C39   H21   S    
O5    V1    S    
C44   H28   S    
C35   H11   S    
C20   C22   A    
C42   C50   S    
C18   C20   A    
O18   V4    S    
C43   C51   S    
C15   C29   A    
C48   C50   S    
C39   C47   S    
O6    C4    A    
O19   V4    S    
C22   C32   A    
O1    V2    S    
C52   H32   S    
O2    V1    S    
C31   C33   A    
O22   H39   S    
C43   H29   S    
C13   C23   A    
O12   C56   A    
O4    C2    A    
C8    C10   A    
C44   C46   S    
C9    C11   A    
O24   H40   S    
C49   C57   S    
O11   V4    S    
C47   C49   S    
C29   H15   S    
C30   H16   S    
C9    H3    S    
O3    V1    S    
C6    H2    S    
C10   H4    S    
C40   C48   S    
C14   C24   A    
C37   H19   S    
O11   C55   A    
C26   C36   A    
C4    C33   S    
O3    C1    A    
C57   O21   D    
C50   H38   S    
C13   C15   A    
C2    C47   S    
C14   C16   A    
C54   O17   A    
O17   V3    S    
C24   C26   A    
O7    V1    S    
C23   C25   A    
C17   C19   A    
C37   C39   S    
C39   H23   S    
C38   H20   S    
O14   C54   A    
C44   H30   S    
C16   C30   A    
C21   C23   A    
C22   C24   A    
C6    C8    A    
C11   C13   A    
C47   C51   S    
C12   C18   A    
C37   C45   S    
C31   H9    S    
C38   C46   S    
C41   C45   S    
C1    O8    A    
C25   C27   A    
O9    V2    S    
O10   V1    S    
C3    C34   S    
O8    V2    S    
C19   H7    S    
C21   C31   A    
C20   H8    S    
O14   V4    S    
C7    C9    A    
