data_mof_unit_54571.cif
_audit_creation_date              2012-12-11T15:44:56-0500
_audit_creation_method            fapswitch 2.2
_symmetry_space_group_name_H-M    P1
_symmetry_Int_Tables_number       1
_space_group_crystal_system       triclinic
_cell_length_a                    19.137855
_cell_length_b                    10.991792
_cell_length_c                    18.741706
_cell_angle_alpha                 89.987889
_cell_angle_beta                  90.190316
_cell_angle_gamma                 89.989922
_cell_volume                      3942.47065877

loop_
_atom_site_label
_atom_site_type_symbol
_atom_type_description
_atom_site_fract_x
_atom_site_fract_y
_atom_site_fract_z
_atom_type_partial_charge
C1    C     C_R   0.760945 0.534781 0.646917 0.533768
C2    C     C_R   0.176284 0.086371 0.552264 -0.173096
C3    C     C_R   0.475483 0.948932 0.969599 0.041433
C4    C     C_R   0.977132 0.230272 0.969467 -0.160919
C5    C     C_R   0.982062 0.230932 0.044065 -0.166761
C6    C     C_R   0.477086 0.730279 0.969489 -0.160994
C7    C     C_R   0.482025 0.730934 0.044086 -0.166548
C8    C     C_3   0.021512 0.567208 0.040223 -0.269689
C9    C     C_3   0.015209 0.564331 0.959964 -0.280610
C10   C     C_3   0.521441 0.067228 0.040253 -0.269523
C11   C     C_3   0.515133 0.064353 0.959994 -0.280387
C12   C     C_R   0.762291 0.526410 0.854472 0.544625
C13   C     C_R   0.323697 0.586358 0.447733 -0.172981
C14   C     C_R   0.240082 0.533568 0.148409 0.541999
C15   C     C_R   0.262288 0.026418 0.854471 0.543124
C16   C     C_R   0.740079 0.033558 0.148406 0.543492
C17   C     C_R   0.774513 0.131697 0.855253 0.552916
C18   C     C_R   0.227879 0.124239 0.147709 0.551744
C19   C     C_R   0.274505 0.631677 0.855247 0.552421
C20   C     C_R   0.727874 0.624251 0.147702 0.552037
C21   C     C_R   0.966413 0.346925 0.855784 0.543412
C22   C     C_R   0.028582 0.347106 0.147453 0.547780
C23   C     C_R   0.466387 0.846929 0.855799 0.547597
C24   C     C_R   0.681371 0.588498 0.551028 -0.169424
C25   C     C_R   0.528572 0.847106 0.147461 0.543303
C26   C     C_R   0.751994 0.096800 0.419564 0.001595
C27   C     C_R   0.241494 0.106274 0.584148 -0.002968
C28   C     C_R   0.258483 0.606256 0.415847 -0.002743
C29   C     C_R   0.747969 0.596815 0.580434 0.001400
C30   C     C_R   0.696017 0.130027 0.463077 0.027902
C31   C     C_R   0.292539 0.167735 0.545763 0.036132
C32   C     C_R   0.207429 0.667716 0.454225 0.036340
C33   C     C_R   0.803934 0.630219 0.536951 0.027713
C34   C     C_R   0.707097 0.153154 0.535201 -0.005819
C35   C     C_3   0.649155 0.238915 0.455999 -0.045946
C36   C     C_R   0.281308 0.191623 0.472816 0.000922
C37   C     C_R   0.218661 0.691621 0.527168 0.000847
C38   C     C_R   0.792860 0.653340 0.464824 -0.005820
C39   C     C_3   0.312864 0.297570 0.559216 -0.039315
C40   C     C_3   0.187067 0.797547 0.440736 -0.039283
C41   C     C_3   0.850679 0.739233 0.544029 -0.045970
C42   C     C_3   0.660800 0.262265 0.534873 -0.213457
C43   C     C_3   0.299797 0.321574 0.481340 -0.209933
C44   C     C_3   0.200142 0.821569 0.518604 -0.210116
C45   C     C_R   0.240316 0.537023 0.352126 0.526408
C46   C     C_3   0.839029 0.762585 0.465150 -0.213199
C47   C     C_R   0.774280 0.142600 0.564562 0.012685
C48   C     C_R   0.220628 0.151431 0.438059 0.025933
C49   C     C_R   0.279351 0.651435 0.561932 0.025745
C50   C     C_R   0.725708 0.642554 0.435422 0.012778
C51   C     C_R   0.006364 0.341754 0.430669 -0.033025
C52   C     C_R   0.013763 0.330455 0.581375 -0.041210
C53   C     C_R   0.486214 0.830456 0.418608 -0.040865
C54   C     C_R   0.493596 0.841769 0.569311 -0.033400
C55   C     C_R   0.987510 0.119417 0.428192 -0.114855
C56   C     C_R   0.259680 0.037022 0.647872 0.526957
C57   C     C_R   0.009445 0.106404 0.574923 -0.109829
C58   C     C_R   0.490541 0.606423 0.425108 -0.109737
C59   C     C_R   0.512494 0.619404 0.571833 -0.114859
C60   C     C_R   0.986940 0.007334 0.462525 -0.155766
C61   C     C_R   0.999726 0.000115 0.535467 -0.146564
C62   C     C_R   0.500224 0.500117 0.464587 -0.146685
C63   C     C_R   0.513017 0.507312 0.537526 -0.155878
C64   C     C_R   0.008087 0.221656 0.541422 0.002076
C65   C     C_R   0.001218 0.227807 0.466006 -0.002488
C66   C     C_R   0.498775 0.727813 0.533999 -0.002499
C67   C     C_R   0.739047 0.034771 0.353086 0.533240
C68   C     C_R   0.491908 0.721665 0.458586 0.002316
C69   C     C_R   0.030524 0.438010 0.545857 0.009397
C70   C     C_R   0.013540 0.449082 0.473130 0.022406
C71   C     C_R   0.486367 0.949095 0.526820 0.022266
C72   C     C_R   0.469409 0.938009 0.454090 0.009495
C73   C     C_R   0.789576 0.168107 0.638626 0.563848
C74   C     C_R   0.209114 0.170340 0.361499 0.573639
C75   C     C_R   0.290878 0.670348 0.638489 0.573578
C76   C     C_R   0.710419 0.668088 0.361362 0.563850
C77   C     C_R   0.055601 0.539541 0.583992 -0.066981
C78   C     C_R   0.829362 0.110390 0.520658 -0.139048
C79   C     C_R   0.004652 0.568317 0.446128 -0.074765
C80   C     C_R   0.495197 0.068345 0.553789 -0.074964
C81   C     C_R   0.444319 0.039527 0.415911 -0.066906
C82   C     C_R   0.051297 0.654657 0.554611 -0.119534
C83   C     C_R   0.024789 0.669028 0.486149 -0.153120
C84   C     C_R   0.475055 0.169045 0.513724 -0.153248
C85   C     C_R   0.448588 0.154653 0.445251 -0.119487
C86   C     C_R   0.755568 0.090362 0.080045 0.015784
C87   C     C_R   0.257531 0.052129 0.930319 0.015589
C88   C     C_R   0.255573 0.590379 0.080049 0.015279
C89   C     C_R   0.167169 0.102999 0.479404 -0.137400
C90   C     C_R   0.757534 0.552124 0.930319 0.015614
C91   C     C_R   0.815272 0.053097 0.042860 0.030342
C92   C     C_R   0.204716 0.994134 0.968176 0.041345
C93   C     C_R   0.315277 0.553122 0.042861 0.030131
C94   C     C_R   0.704705 0.494161 0.968172 0.040938
C95   C     C_R   0.818590 0.063809 0.970170 0.040138
C96   C     C_R   0.200190 0.003668 0.040830 0.029515
C97   C     C_R   0.318583 0.563802 0.970168 0.040226
C98   C     C_R   0.700174 0.503705 0.040823 0.029773
C99   C     C_R   0.709285 0.171150 0.968735 -0.160361
C100  C     C_R   0.332813 0.602994 0.520590 -0.137456
C101  C     C_R   0.309454 0.112177 0.043981 -0.166755
C102  C     C_R   0.209279 0.671132 0.968732 -0.160341
C103  C     C_R   0.809456 0.612160 0.043981 -0.166439
C104  C     C_R   0.705676 0.160849 0.043387 -0.165249
C105  C     C_R   0.313517 0.102859 0.969308 -0.160328
C106  C     C_R   0.205679 0.660857 0.043388 -0.165410
C107  C     C_R   0.813527 0.602825 0.969310 -0.160362
C108  C     C_3   0.852387 0.932906 0.040664 -0.269409
C109  C     C_3   0.127614 0.998712 0.957181 -0.280331
C110  C     C_3   0.352420 0.432957 0.040679 -0.269320
C111  C     C_R   0.670650 0.610066 0.479281 -0.139070
C112  C     C_3   0.627604 0.498780 0.957170 -0.280310
C113  C     C_3   0.855788 0.945900 0.960520 -0.279952
C114  C     C_3   0.121937 0.009769 0.037301 -0.269877
C115  C     C_3   0.355797 0.445906 0.960530 -0.279970
C116  C     C_3   0.621922 0.509850 0.037289 -0.269976
C117  C     C_R   0.763450 0.112715 0.931063 0.014151
C118  C     C_R   0.248704 0.073172 0.079322 0.014101
C119  C     C_R   0.263440 0.612690 0.931058 0.013878
C120  C     C_R   0.748696 0.573187 0.079316 0.014766
C121  C     C_R   0.974323 0.344353 0.649063 0.526972
C122  C     C_R   0.818621 0.088750 0.448919 -0.169268
C123  C     C_R   0.029921 0.346753 0.354750 0.525315
C124  C     C_R   0.470065 0.846758 0.645240 0.525965
C125  C     C_R   0.525673 0.844354 0.350933 0.526214
C126  C     C_R   0.991762 0.341922 0.079952 0.016495
C127  C     C_R   0.980175 0.340751 0.931468 0.017376
C128  C     C_R   0.491725 0.841923 0.079975 0.016768
C129  C     C_R   0.480119 0.840760 0.931491 0.016549
C130  C     C_R   0.980731 0.450372 0.042240 0.030088
C131  C     C_R   0.975548 0.448925 0.969572 0.042026
C132  C     C_R   0.480675 0.950375 0.042268 0.030025
Cr1   Cr    Cr6+3 0.885860 0.491680 0.749630 1.003402
Cr2   Cr    Cr6+3 0.112430 0.179310 0.249850 0.997183
Cr3   Cr    Cr6+3 0.387570 0.679310 0.750150 1.000100
Cr4   Cr    Cr6+3 0.612430 0.679310 0.249850 0.998197
Cr5   Cr    Cr6+3 0.114140 0.491680 0.250370 1.000229
Cr6   Cr    Cr6+3 0.385860 0.991680 0.749630 1.003268
Cr7   Cr    Cr6+3 0.614140 0.991680 0.250370 1.000358
Cr8   Cr    Cr6+3 0.730490 0.332970 0.748720 0.998911
Cr9   Cr    Cr6+3 0.269510 0.332970 0.251280 0.993288
Cr10  Cr    Cr6+3 0.230490 0.832970 0.748720 0.996309
Cr11  Cr    Cr6+3 0.769510 0.832970 0.251280 0.995907
Cr12  Cr    Cr6+3 0.887570 0.179310 0.750150 1.001045
H1    H     H_    0.880411 0.102132 0.542748 0.181069
H2    H     H_    0.350790 0.158058 0.072878 0.121587
H3    H     H_    0.168880 0.720760 0.940651 0.131517
H4    H     H_    0.850796 0.658030 0.072879 0.121928
H5    H     H_    0.661520 0.199557 0.071244 0.121238
H6    H     H_    0.358841 0.138623 0.942206 0.131472
H7    H     H_    0.161526 0.699574 0.071245 0.121152
H8    H     H_    0.858863 0.638555 0.942212 0.131554
H9    H     H_    0.818155 0.856977 0.057365 0.167249
H10   H     H_    0.106145 0.911854 0.936225 0.133951
H11   H     H_    0.318217 0.357010 0.057403 0.167504
H12   H     H_    0.119618 0.072929 0.454645 0.170076
H13   H     H_    0.606122 0.411929 0.936216 0.133994
H14   H     H_    0.904511 0.936336 0.066957 0.126853
H15   H     H_    0.110456 0.081838 0.928153 0.136125
H16   H     H_    0.404550 0.436451 0.066956 0.126628
H17   H     H_    0.610461 0.581912 0.928138 0.136754
H18   H     H_    0.909859 0.957589 0.940330 0.133357
H19   H     H_    0.101764 0.099740 0.054067 0.166760
H20   H     H_    0.409861 0.457604 0.940320 0.133388
H21   H     H_    0.601766 0.599835 0.054051 0.166904
H22   H     H_    0.823760 0.877419 0.931459 0.137830
H23   H     H_    0.380373 0.572930 0.545353 0.169965
H24   H     H_    0.096649 0.929796 0.062768 0.127566
H25   H     H_    0.323770 0.377396 0.931492 0.137380
H26   H     H_    0.596618 0.429895 0.062757 0.127644
H27   H     H_    0.973584 0.144235 0.941737 0.131733
H28   H     H_    0.984879 0.145302 0.072465 0.122202
H29   H     H_    0.473548 0.644244 0.941757 0.131663
H30   H     H_    0.484857 0.645303 0.072483 0.122035
H31   H     H_    0.076245 0.555444 0.058254 0.168437
H32   H     H_    0.982506 0.639167 0.938189 0.134100
H33   H     H_    0.576179 0.055495 0.058275 0.168735
H34   H     H_    0.619631 0.601503 0.457149 0.181403
H35   H     H_    0.482427 0.139186 0.938223 0.133999
H36   H     H_    0.992777 0.644157 0.065053 0.126137
H37   H     H_    0.065998 0.550412 0.932463 0.136508
H38   H     H_    0.492696 0.144162 0.065087 0.125844
H39   H     H_    0.565924 0.050451 0.932492 0.137292
H40   H     H_    0.861015 0.057220 0.416551 0.145201
H41   H     H_    0.135756 0.041631 0.581896 0.141987
H42   H     H_    0.364233 0.541628 0.418107 0.142005
H43   H     H_    0.638991 0.556757 0.583351 0.145225
H44   H     H_    0.131777 0.808869 0.424099 0.153098
H45   H     H_    0.065195 0.732532 0.586652 0.100463
H46   H     H_    0.905145 0.715116 0.558504 0.167810
H47   H     H_    0.594719 0.214645 0.441533 0.168012
H48   H     H_    0.368151 0.308902 0.575868 0.153024
H49   H     H_    0.690231 0.346512 0.546794 0.174360
H50   H     H_    0.253707 0.380300 0.470890 0.156962
H51   H     H_    0.246218 0.880301 0.529030 0.156887
H52   H     H_    0.809501 0.846752 0.453220 0.174523
H53   H     H_    0.613370 0.248324 0.567764 0.108339
H54   H     H_    0.347607 0.345150 0.451665 0.122242
H55   H     H_    0.152334 0.845153 0.548286 0.122136
H56   H     H_    0.019377 0.758230 0.463991 0.088149
H57   H     H_    0.886483 0.748794 0.432273 0.108448
H58   H     H_    0.973846 0.927527 0.431918 0.103462
H59   H     H_    0.999276 0.913024 0.562139 0.118226
H60   H     H_    0.500636 0.413027 0.437932 0.118346
H61   H     H_    0.526064 0.427461 0.568148 0.103420
H62   H     H_    0.972914 0.119836 0.372475 0.135575
H63   H     H_    0.020375 0.096993 0.631310 0.133696
H64   H     H_    0.479611 0.597033 0.368721 0.133832
H65   H     H_    0.527098 0.619804 0.627547 0.135457
H66   H     H_    0.979773 0.585876 0.395321 0.138261
H67   H     H_    0.480459 0.258264 0.535845 0.088162
H68   H     H_    0.074423 0.530447 0.638345 0.130416
H69   H     H_    0.425526 0.030419 0.361551 0.130532
H70   H     H_    0.520061 0.085938 0.604593 0.138176
H71   H     H_    0.730608 0.350045 0.422825 0.245981
H72   H     H_    0.675081 0.306238 0.357754 0.248646
H73   H     H_    0.212621 0.349286 0.590070 0.237384
H74   H     H_    0.270196 0.330082 0.657575 0.243751
H75   H     H_    0.287290 0.849212 0.409811 0.237420
H76   H     H_    0.229682 0.830109 0.342349 0.244027
H77   H     H_    0.769096 0.850135 0.577167 0.245874
H78   H     H_    0.434698 0.232521 0.413171 0.100593
H79   H     H_    0.824652 0.806444 0.642258 0.248475
H80   H     H_    0.668888 0.220788 0.940654 0.131589
N1    N     N_3   0.677810 0.335483 0.410762 -0.613389
N2    N     N_3   0.264501 0.363963 0.605750 -0.606111
N3    N     N_3   0.235405 0.863928 0.394172 -0.606102
N4    N     N_3   0.821906 0.835705 0.589247 -0.613244
O1    O     O_R   0.957020 0.451640 0.669920 -0.513491
O2    O     O_R   0.168040 0.093290 0.169870 -0.519456
O3    O     O_R   0.331960 0.593290 0.830130 -0.515626
O4    O     O_R   0.668040 0.593290 0.169870 -0.519365
O5    O     O_R   0.945600 0.250580 0.824860 -0.511791
O6    O     O_R   0.054400 0.250580 0.175140 -0.510898
O7    O     O_R   0.445600 0.750580 0.824860 -0.509602
O8    O     O_R   0.554400 0.750580 0.175140 -0.512826
O9    O     O_3   0.834640 0.334650 0.749500 -0.265470
O10   O     O_3   0.165360 0.334650 0.250500 -0.263058
O11   O     O_3   0.334640 0.834650 0.749500 -0.267947
O12   O     O_R   0.042980 0.451640 0.330080 -0.522385
O13   O     O_3   0.665360 0.834650 0.250500 -0.260564
O14   O     O_R   0.821450 0.543440 0.674610 -0.497941
O15   O     O_R   0.178550 0.543440 0.325390 -0.494808
O16   O     O_R   0.321450 0.043440 0.674610 -0.494657
O17   O     O_R   0.678550 0.043440 0.325390 -0.498137
O18   O     O_R   0.715320 0.458650 0.668100 -0.545144
O19   O     O_R   0.284680 0.458650 0.331900 -0.544845
O20   O     O_R   0.215320 0.958650 0.668100 -0.544873
O21   O     O_R   0.784680 0.958650 0.331900 -0.545093
O22   O     O_R   0.737170 0.209590 0.674530 -0.502248
O23   O     O_R   0.457020 0.951640 0.669920 -0.522198
O24   O     O_R   0.262830 0.209590 0.325470 -0.499487
O25   O     O_R   0.237170 0.709590 0.674530 -0.499028
O26   O     O_R   0.762830 0.709590 0.325470 -0.502648
O27   O     O_R   0.832710 0.092740 0.669580 -0.500696
O28   O     O_R   0.167290 0.092740 0.330420 -0.500636
O29   O     O_R   0.332710 0.592740 0.669580 -0.500452
O30   O     O_R   0.667290 0.592740 0.330420 -0.501033
O31   O     O_R   0.946290 0.250060 0.676040 -0.523600
O32   O     O_R   0.053710 0.250060 0.323960 -0.523556
O33   O     O_R   0.446290 0.750060 0.676040 -0.523196
O34   O     O_R   0.542980 0.951640 0.330080 -0.513657
O35   O     O_R   0.553710 0.750060 0.323960 -0.523880
O36   O     O_R   0.956270 0.452200 0.830470 -0.520466
O37   O     O_R   0.043730 0.452200 0.169530 -0.522564
O38   O     O_R   0.456270 0.952200 0.830470 -0.517565
O39   O     O_R   0.543730 0.952200 0.169530 -0.525271
O40   O     O_R   0.820760 0.543950 0.823440 -0.508637
O41   O     O_R   0.179240 0.543950 0.176560 -0.510069
O42   O     O_R   0.320760 0.043950 0.823440 -0.508930
O43   O     O_R   0.679240 0.043950 0.176560 -0.509905
O44   O     O_R   0.714570 0.459210 0.828640 -0.518919
O45   O     O_R   0.736470 0.210100 0.823360 -0.503636
O46   O     O_R   0.285430 0.459210 0.171360 -0.523270
O47   O     O_R   0.214570 0.959210 0.828640 -0.519558
O48   O     O_R   0.785430 0.959210 0.171360 -0.522695
O49   O     O_R   0.263530 0.210100 0.176640 -0.505880
O50   O     O_R   0.236470 0.710100 0.823360 -0.504074
O51   O     O_R   0.763530 0.710100 0.176640 -0.505494
O52   O     O_R   0.831960 0.093290 0.830130 -0.515514

loop_
_geom_bond_atom_site_label_1
_geom_bond_atom_site_label_2
_ccdc_geom_bond_type
C58   C62   A    
C79   H66   S    
C66   C68   A    
Cr9   O10   S    
C20   O4    A    
C4    H27   S    
Cr1   O36   S    
C51   C123  S    
Cr4   O30   S    
C69   C77   A    
C103  C120  A    
C34   C42   S    
C20   O51   A    
C20   C120  S    
C80   C84   A    
C86   C104  A    
Cr10  O50   S    
C84   H67   S    
C110  H16   S    
C9    H37   S    
C40   N3    S    
C95   C117  A    
C112  H17   S    
Cr4   O4    S    
H77   N4    S    
C10   C11   S    
C110  C115  S    
Cr10  O25   S    
Cr12  O5    S    
C57   C64   A    
C24   H43   S    
Cr8   O18   S    
C26   C67   S    
C124  O33   A    
C96   C118  A    
C25   C128  S    
C90   C107  A    
C73   O22   A    
C124  O23   A    
C86   C91   A    
C59   C66   A    
Cr1   O14   S    
C92   C109  S    
C22   C126  S    
Cr2   O28   S    
C108  H14   S    
C94   C98   A    
C7    H30   S    
C29   C33   A    
C92   C96   A    
C88   C106  A    
C23   C129  S    
C9    H32   S    
C51   C65   A    
C94   C112  S    
C115  H20   S    
C53   C68   A    
Cr12  O31   S    
C8    H36   S    
C24   C29   A    
Cr8   O9    S    
C39   N2    S    
C54   C124  S    
C110  H11   S    
C78   H1    S    
C55   C65   A    
C113  H18   S    
C73   O27   A    
Cr5   O37   S    
C46   H57   S    
C21   O5    A    
C108  H9    S    
C75   O29   A    
C25   O8    A    
C31   C39   S    
C8    C9    S    
Cr11  O26   S    
C5    C126  A    
C111  H34   S    
C35   H47   S    
C41   C46   S    
Cr11  O13   S    
C13   C28   A    
C102  C106  A    
C2    C27   A    
C52   C69   A    
C51   C70   A    
C7    C128  A    
C21   C127  S    
C15   O42   A    
C76   O26   A    
C85   H78   S    
C45   O15   A    
C40   C44   S    
C72   C81   A    
C77   H68   S    
C16   O48   A    
C93   C110  S    
C23   O7    A    
C44   H55   S    
C122  H40   S    
C99   C104  A    
C56   O16   A    
C41   N4    S    
C19   C119  S    
C98   C120  A    
Cr3   O3    S    
C87   C92   A    
C88   C93   A    
Cr4   O35   S    
C16   C86   S    
Cr2   O10   S    
Cr5   O12   S    
C96   C114  S    
C24   C111  A    
Cr1   O9    S    
Cr9   O46   S    
C74   O28   A    
C6    C129  A    
C78   C122  A    
C128  C132  A    
C1    C29   S    
C71   C80   A    
C25   O39   A    
C103  H4    S    
C90   C94   A    
C10   C132  S    
C9    C131  S    
C101  C105  A    
Cr10  O11   S    
C101  H2    S    
Cr12  O27   S    
C81   H69   S    
C28   C45   S    
Cr3   O29   S    
C121  O1    A    
C112  H13   S    
C54   C71   A    
C27   C31   A    
C3    C132  A    
C48   C74   S    
C35   N1    S    
C28   C32   A    
C42   H49   S    
Cr8   O22   S    
C84   C85   A    
C47   C73   S    
Cr6   O23   S    
C18   O2    A    
C113  H22   S    
C30   C34   A    
H79   N4    S    
C89   H12   S    
C80   H70   S    
C17   O45   A    
Cr6   O38   S    
C104  H5    S    
Cr4   O13   S    
Cr7   O43   S    
Cr8   O44   S    
H76   N3    S    
C60   C61   A    
H71   N1    S    
C3    C129  A    
Cr8   O45   S    
C97   C119  A    
C2    C89   A    
C8    H31   S    
C12   O40   A    
C62   C63   A    
C105  H6    S    
C50   C76   S    
C102  H3    S    
C99   C117  A    
C18   O49   A    
C37   C49   A    
C52   C121  S    
C14   O46   A    
C21   O36   A    
C14   O41   A    
C87   C105  A    
C58   H64   S    
C125  O35   A    
Cr11  O51   S    
Cr2   O6    S    
C11   H39   S    
Cr6   O11   S    
Cr12  O52   S    
C32   C37   A    
C27   C56   S    
C57   C61   A    
C109  H10   S    
C62   H60   S    
C49   C75   S    
C6    C7    A    
C53   C125  S    
C109  C114  S    
C121  O31   A    
C98   C116  S    
C107  H8    S    
C41   H46   S    
C60   H58   S    
C57   H63   S    
Cr3   O33   S    
C8    C130  S    
Cr10  O20   S    
C48   C89   A    
C43   H50   S    
C82   H45   S    
C52   C64   A    
Cr11  O48   S    
C10   H38   S    
C125  O34   A    
Cr3   O7    S    
C116  H21   S    
C56   O20   A    
Cr9   O19   S    
C97   C115  S    
C101  C118  A    
H72   N1    S    
C109  H15   S    
C93   C97   A    
C112  C116  S    
C16   O43   A    
Cr6   O16   S    
Cr1   O40   S    
C15   C87   S    
C123  O12   A    
Cr6   O42   S    
C58   C68   A    
C55   H62   S    
Cr7   O39   S    
C99   H80   S    
C32   C40   S    
C44   H51   S    
Cr5   O41   S    
C13   H42   S    
Cr11  O21   S    
C4    C127  A    
C70   C79   A    
Cr5   O10   S    
C10   H33   S    
C40   H44   S    
C91   C108  S    
C42   H53   S    
C12   O44   A    
C4    C5    A    
C75   O25   A    
Cr1   O1    S    
C12   C90   S    
C74   O24   A    
C114  H24   S    
C18   C118  S    
C54   C66   A    
C6    H29   S    
C17   C117  S    
C123  O32   A    
C108  C113  S    
C30   C35   S    
H73   N2    S    
C23   O38   A    
C59   C63   A    
C33   C38   A    
C38   C50   A    
C1    O18   A    
C33   C41   S    
C64   C65   A    
C13   C100  A    
C130  C131  A    
C83   H56   S    
C2    H41   S    
C14   C88   S    
C71   C72   A    
C61   H59   S    
C49   C100  A    
C79   C83   A    
C39   H48   S    
C67   O17   A    
C22   O37   A    
C114  H19   S    
C76   O30   A    
C77   C82   A    
C95   C113  S    
Cr4   O8    S    
C100  H23   S    
C50   C111  A    
C35   C42   S    
C5    H28   S    
Cr3   O11   S    
Cr12  O9    S    
C36   C48   A    
C43   H54   S    
Cr2   O2    S    
C22   O6    A    
C69   C70   A    
Cr7   O13   S    
C127  C131  A    
C38   C46   S    
C17   O52   A    
C3    C11   S    
C1    O14   A    
Cr9   O49   S    
Cr5   O15   S    
C37   C44   S    
C59   H65   S    
C106  H7    S    
C19   O50   A    
C11   H35   S    
C45   O19   A    
C39   C43   S    
C91   C95   A    
Cr2   O32   S    
C82   C83   A    
C63   H61   S    
Cr7   O34   S    
C46   H52   S    
Cr9   O24   S    
C126  C130  A    
C31   C36   A    
C36   C43   S    
C103  C107  A    
C34   C47   A    
C26   C122  A    
C47   C78   A    
H75   N3    S    
C15   O47   A    
C55   C60   A    
C53   C72   A    
C19   O3    A    
Cr10  O47   S    
H74   N2    S    
C81   C85   A    
C102  C119  A    
C116  H26   S    
C115  H25   S    
C67   O21   A    
C26   C30   A    
Cr7   O17   S    
