data_mof_unit_12130.cif
_audit_creation_date              2012-12-10T16:44:41-0500
_audit_creation_method            fapswitch 2.2
_symmetry_space_group_name_H-M    P1
_symmetry_Int_Tables_number       1
_space_group_crystal_system       triclinic
_cell_length_a                    15.056668
_cell_length_b                    8.664516
_cell_length_c                    7.452335
_cell_angle_alpha                 102.878481
_cell_angle_beta                  94.115836
_cell_angle_gamma                 92.065962
_cell_volume                      943.966388644

loop_
_atom_site_label
_atom_site_type_symbol
_atom_type_description
_atom_site_fract_x
_atom_site_fract_y
_atom_site_fract_z
_atom_type_partial_charge
C1    C     C_R   0.496323 0.199764 0.453397 0.909191
C2    C     C_R   0.503679 0.800236 0.546603 0.909259
C3    C     C_R   0.037587 0.211529 0.423962 -0.148204
C4    C     C_R   0.962410 0.788462 0.576155 -0.148289
C5    C     C_2   0.494654 0.031792 0.427155 -0.278914
C6    C     C_2   0.505348 0.968208 0.572844 -0.278821
C7    C     C_R   0.329497 0.501204 0.502762 0.846179
C8    C     C_R   0.670502 0.498794 0.497238 0.846232
C9    C     C_R   0.816638 0.644942 0.541942 -0.106616
C10   C     C_R   0.183363 0.355043 0.458034 -0.106684
C11   C     C_R   0.766712 0.499054 0.492535 -0.150923
C12   C     C_R   0.233287 0.500936 0.507471 -0.150902
C13   C     C_R   0.808091 0.353665 0.447653 -0.031685
C14   C     C_R   0.191909 0.646329 0.552406 -0.031686
C15   C     C_R   0.901697 0.354080 0.452702 0.044428
C16   C     C_R   0.098303 0.645913 0.547388 0.044424
C17   C     C_R   0.952874 0.499945 0.498277 0.047832
C18   C     C_R   0.047127 0.500045 0.501809 0.047815
C19   C     C_R   0.910280 0.645634 0.540517 0.096949
C20   C     C_R   0.089720 0.354354 0.459542 0.097005
C21   C     C_R   0.945605 0.211347 0.419212 -0.205530
C22   C     C_R   0.054392 0.788647 0.580917 -0.205486
Cu1   Cu    Cu3+1 0.510010 0.517380 0.684380 0.997079
Cu2   Cu    Cu3+1 0.489990 0.482620 0.315620 0.997038
H1    H     H_    0.909666 0.097108 0.391019 0.138895
H2    H     H_    0.090327 0.902889 0.609142 0.138886
H3    H     H_    0.066804 0.097508 0.401520 0.185560
H4    H     H_    0.933188 0.902480 0.598639 0.185552
H5    H     H_    0.485042 0.960187 0.286743 0.174000
H6    H     H_    0.514961 0.039812 0.713257 0.174007
H7    H     H_    0.430381 0.378085 0.948553 0.226392
H8    H     H_    0.569619 0.621915 0.051447 0.226393
N1    N     N_2   0.474890 0.456420 0.038520 -0.210791
N2    N     N_2   0.525110 0.543580 0.961480 -0.210788
O1    O     O_R   0.506510 0.286130 0.619770 -0.579940
O2    O     O_R   0.493490 0.713870 0.380230 -0.579954
O3    O     O_R   0.489600 0.256770 0.308360 -0.589078
O4    O     O_R   0.510400 0.743230 0.691640 -0.589048
O5    O     O_R   0.378710 0.514640 0.655720 -0.604794
O6    O     O_R   0.621290 0.485360 0.344280 -0.604823
O7    O     O_R   0.361800 0.485290 0.344300 -0.550350
O8    O     O_R   0.638200 0.514710 0.655700 -0.550299
C23   C     C_2   0.768863 0.794223 0.595420 0.362661
H9    H     H_    0.708374 0.811164 0.515399 0.065869
O9    O     O_2   0.793657 0.894658 0.734552 -0.525030
C24   C     C_2   0.231140 0.205752 0.404363 0.362810
H10   H     H_    0.291738 0.188816 0.484159 0.065776
O10   O     O_2   0.206224 0.105293 0.265286 -0.525056
C25   C     C_2   0.753607 0.201202 0.398728 0.347575
H11   H     H_    0.765513 0.111997 0.276672 0.083459
O11   O     O_2   0.697452 0.172166 0.498351 -0.544294
C26   C     C_2   0.246391 0.798794 0.601299 0.347598
H12   H     H_    0.234480 0.888016 0.723309 0.083487
O12   O     O_2   0.302547 0.827822 0.501691 -0.544362

loop_
_geom_bond_atom_site_label_1
_geom_bond_atom_site_label_2
_ccdc_geom_bond_type
C10   C24   S    
C16   C22   A    
Cu1   Cu2   S    
H7    N1    S    
C10   C20   A    
Cu1   O5    S    
Cu1   O4    S    
C4    C22   A    
C2    O4    A    
Cu1   O1    S    
Cu2   N1    S    
C1    C5    S    
C13   C15   A    
C1    O3    A    
C23   H9    S    
Cu1   N2    S    
C26   O12   D    
C3    H3    S    
Cu2   O3    S    
C5    H5    S    
C3    C20   A    
C2    C6    S    
C6    H6    S    
Cu2   O7    S    
C23   O9    D    
Cu2   O2    S    
Cu1   O8    S    
C10   C12   A    
C8    C11   S    
C13   C25   S    
C17   C19   A    
C12   C14   A    
C17   C18   A    
C18   C20   A    
C9    C11   A    
C5    C6    D    
C14   C16   A    
C7    C12   S    
C9    C23   S    
C11   C13   A    
C3    C21   A    
C24   O10   D    
C15   C21   A    
N1    N2    D    
C26   H12   S    
C1    O1    A    
C16   C18   A    
C25   H11   S    
C22   H2    S    
C2    O2    A    
C15   C17   A    
C21   H1    S    
C24   H10   S    
C7    O5    A    
C8    O6    A    
Cu2   O6    S    
C4    C19   A    
C4    H4    S    
C9    C19   A    
C14   C26   S    
C7    O7    A    
C8    O8    A    
C25   O11   D    
H8    N2    S    
