data_mof_unit_63807.cif
_audit_creation_date              2012-10-26T17:27:19-0400
_audit_creation_method            fapswitch 2.2
_symmetry_space_group_name_H-M    P1
_symmetry_Int_Tables_number       1
_space_group_crystal_system       triclinic
_cell_length_a                    18.882038
_cell_length_b                    18.785878
_cell_length_c                    18.796452
_cell_angle_alpha                 109.354587
_cell_angle_beta                  109.645266
_cell_angle_gamma                 109.429329
_cell_volume                      5131.55372636

loop_
_atom_site_label
_atom_site_type_symbol
_atom_type_description
_atom_site_fract_x
_atom_site_fract_y
_atom_site_fract_z
_atom_type_partial_charge
C1    C     C_R   0.118510 0.000045 0.618817 0.553269
C2    C     C_R   0.230562 0.973691 0.806659 -0.165239
C3    C     C_R   0.314909 0.005166 0.818514 0.006684
C4    C     C_R   0.121717 0.118856 0.503131 0.530849
C5    C     C_R   0.334809 0.044342 0.771066 0.016134
C6    C     C_3   0.379846 0.030692 0.720130 -0.242685
C7    C     C_3   0.308665 0.028011 0.648102 -0.143988
C8    C     C_R   0.743703 0.745967 0.427282 -0.021736
C9    C     C_R   0.818108 0.815459 0.503598 0.032939
C10   C     C_R   0.828526 0.820466 0.583853 0.253747
C11   C     C_R   0.761000 0.754633 0.581939 -0.151738
C12   C     C_R   0.260744 0.262189 0.586597 0.002334
C13   C     C_R   0.685756 0.686308 0.502250 -0.024540
C14   C     C_R   0.680078 0.685235 0.426690 -0.010436
C15   C     C_3   0.623112 0.637389 0.330200 -0.236522
C16   C     C_R   0.881801 0.000716 0.381099 0.547751
C17   C     C_3   0.695476 0.707668 0.330797 -0.141284
C18   C     C_R   0.746390 0.922900 0.239312 -0.033598
C19   C     C_R   0.813908 0.000578 0.315158 -0.000706
C20   C     C_R   0.810603 0.077696 0.330442 -0.150039
C21   C     C_R   0.746488 0.077790 0.265676 -0.165264
C22   C     C_R   0.683748 0.000195 0.186629 -0.006806
C23   C     C_R   0.192246 0.186134 0.507055 -0.020319
C24   C     C_R   0.681256 0.922378 0.176810 0.088210
C25   C     C_3   0.676032 0.853195 0.103601 0.143536
C26   C     C_3   0.748499 0.854296 0.172659 -0.240902
C27   C     C_R   0.500451 0.619171 0.619047 0.548754
C28   C     C_R   0.882021 0.881363 0.500673 0.585227
C29   C     C_R   0.381337 0.382244 0.501124 0.544927
C30   C     C_R   0.500215 0.381490 0.381220 0.551753
C31   C     C_R   0.618620 0.618867 0.500216 0.558839
C32   C     C_R   0.500005 0.118694 0.118372 0.547883
C33   C     C_R   0.381196 0.000661 0.881544 0.541289
C34   C     C_R   0.188306 0.174503 0.428249 -0.129782
C35   C     C_R   0.500150 0.881133 0.881655 0.585653
C36   C     C_R   0.618466 0.999583 0.118447 0.562294
C37   C     C_R   0.423566 0.679104 0.681350 -0.001587
C38   C     C_R   0.501042 0.684944 0.687245 -0.032795
C39   C     C_R   0.579568 0.750555 0.764528 -0.154261
C40   C     C_R   0.272956 0.271423 0.668354 -0.085698
C41   C     C_R   0.581010 0.817285 0.828946 0.229109
C42   C     C_R   0.501954 0.813611 0.817822 0.028907
C43   C     C_R   0.423970 0.741566 0.746242 -0.023979
C44   C     C_3   0.348645 0.738746 0.682213 -0.279599
C45   C     C_R   0.249651 0.238138 0.425571 -0.027225
C46   C     C_3   0.348502 0.670186 0.610813 -0.254962
C47   C     C_R   0.429081 0.256699 0.233018 0.018028
C48   C     C_R   0.501744 0.316019 0.315178 0.011104
C49   C     C_R   0.577455 0.309312 0.332278 -0.154065
C50   C     C_R   0.577669 0.244856 0.267191 -0.154744
C51   C     C_R   0.501552 0.185170 0.185481 0.026503
C52   C     C_R   0.337849 0.349234 0.746012 0.010593
C53   C     C_R   0.428645 0.193365 0.171790 0.015206
C54   C     C_3   0.336948 0.157202 0.105844 -0.279564
C55   C     C_3   0.336980 0.229075 0.175866 -0.268119
C56   C     C_R   0.315042 0.316936 0.503575 0.021621
C57   C     C_R   0.391121 0.418796 0.742681 -0.103951
C58   C     C_R   0.382599 0.409639 0.663130 -0.115547
C59   C     C_R   0.320006 0.330136 0.584358 0.007665
C60   C     C_3   0.340344 0.104070 0.631762 -0.408059
C61   C     C_3   0.926823 0.875145 0.730255 -0.134193
C62   C     C_3   0.669693 0.767839 0.304426 -0.400586
C63   C     C_3   0.587942 0.714798 0.984741 -0.118997
C64   C     C_3   0.712684 0.935228 0.885739 -0.110429
C65   C     C_3   0.350581 0.358852 0.832614 -0.407973
C66   C     C_3   0.245377 0.219632 0.339216 -0.385630
C67   C     C_R   0.270684 0.042435 0.706010 0.015736
C68   C     C_R   0.184908 0.001586 0.686631 0.015421
C69   C     C_R   0.165965 0.972804 0.741376 -0.156981
Cu1   Cu    Cu3+1 0.000020 0.938200 0.438210 0.907581
Cu2   Cu    Cu3+1 0.999980 0.061800 0.561790 0.957718
Cu3   Cu    Cu3+1 0.438170 0.500030 0.438220 0.906111
Cu4   Cu    Cu3+1 0.561770 0.500000 0.561810 0.909388
Cu5   Cu    Cu3+1 0.561810 0.061820 0.000030 0.929456
Cu6   Cu    Cu3+1 0.438190 0.938280 0.000080 0.955336
H1    H     H_    0.136190 0.115277 0.367973 0.132945
H2    H     H_    0.746697 0.138237 0.276554 0.120509
H3    H     H_    0.693913 0.876752 0.061567 0.142081
H4    H     H_    0.728217 0.793206 0.175816 0.151501
H5    H     H_    0.810341 0.879155 0.171826 0.109045
H6    H     H_    0.639753 0.751839 0.773242 0.128117
H7    H     H_    0.290197 0.712871 0.688437 0.146957
H8    H     H_    0.366111 0.800871 0.681017 0.123439
H9    H     H_    0.289907 0.604843 0.575812 0.141591
H10   H     H_    0.366171 0.692615 0.568288 0.148668
H11   H     H_    0.636332 0.354133 0.395009 0.134454
H12   H     H_    0.378189 0.967194 0.701359 0.115186
H13   H     H_    0.636353 0.240976 0.280896 0.115086
H14   H     H_    0.331475 0.165980 0.048939 0.135342
H15   H     H_    0.294038 0.090285 0.089859 0.140134
H16   H     H_    0.330941 0.278992 0.159058 0.144684
H17   H     H_    0.294019 0.203429 0.200144 0.128831
H18   H     H_    0.440383 0.480044 0.802097 0.103386
H19   H     H_    0.425399 0.465730 0.664372 0.136785
H20   H     H_    0.100685 0.946177 0.731014 0.137852
H21   H     H_    0.213904 0.947534 0.845770 0.130665
H22   H     H_    0.445466 0.087986 0.752301 0.145093
H23   H     H_    0.266137 0.963235 0.587563 0.154010
H24   H     H_    0.283601 0.102724 0.586279 0.148033
H25   H     H_    0.379245 0.167733 0.693374 0.149126
H26   H     H_    0.380906 0.097601 0.601565 0.139540
H27   H     H_    0.994273 0.927102 0.781762 0.131683
H28   H     H_    0.926073 0.811948 0.709886 0.109581
H29   H     H_    0.885196 0.878270 0.759860 0.114145
H30   H     H_    0.636561 0.790803 0.337829 0.150642
H31   H     H_    0.728864 0.825333 0.322549 0.152733
H32   H     H_    0.625503 0.732708 0.232852 0.156067
H33   H     H_    0.642827 0.701564 0.001704 0.104567
H34   H     H_    0.765102 0.756950 0.641523 0.112514
H35   H     H_    0.583371 0.737352 0.936510 0.147498
H36   H     H_    0.527122 0.652469 0.953475 0.136360
H37   H     H_    0.767404 0.994488 0.947751 0.139755
H38   H     H_    0.678390 0.957040 0.844327 0.125215
H39   H     H_    0.740915 0.901029 0.854284 0.101398
H40   H     H_    0.303700 0.298483 0.825234 0.131946
H41   H     H_    0.417333 0.373463 0.873463 0.130566
H42   H     H_    0.341492 0.413127 0.866404 0.136551
H43   H     H_    0.308565 0.228318 0.345012 0.137045
H44   H     H_    0.194470 0.151864 0.286692 0.110075
H45   H     H_    0.615525 0.571604 0.299345 0.125080
H46   H     H_    0.229983 0.264257 0.318992 0.155917
H47   H     H_    0.561361 0.638927 0.310503 0.149826
H48   H     H_    0.728502 0.682479 0.298711 0.149214
H49   H     H_    0.859698 0.138382 0.390483 0.135632
H50   H     H_    0.233973 0.217908 0.672949 0.137762
O1    O     O_R   0.090180 0.947810 0.537990 -0.513972
O2    O     O_R   0.447830 0.038100 0.090230 -0.512249
O3    O     O_R   0.462030 0.052220 0.909860 -0.514446
O4    O     O_R   0.090150 0.052180 0.642350 -0.507328
O5    O     O_R   0.357640 0.947890 0.909900 -0.522144
O6    O     O_R   0.552170 0.962000 0.909870 -0.493389
O7    O     O_R   0.447780 0.857670 0.909910 -0.504214
O8    O     O_R   0.642360 0.052210 0.090200 -0.510291
O9    O     O_R   0.537970 0.947880 0.090240 -0.484518
O10   O     O_R   0.090190 0.037990 0.447830 -0.517225
O11   O     O_R   0.090170 0.142360 0.552190 -0.516479
O12   O     O_R   0.552150 0.590170 0.642370 -0.524479
O13   O     O_R   0.909850 0.947820 0.357650 -0.516977
O14   O     O_R   0.909820 0.052190 0.462010 -0.512735
O15   O     O_R   0.909830 0.857640 0.447810 -0.524038
O16   O     O_R   0.909810 0.962010 0.552170 -0.464364
O17   O     O_R   0.447770 0.590190 0.538000 -0.506774
O18   O     O_3   0.902588 0.891980 0.660621 -0.551108
O19   O     O_3   0.595708 0.775607 0.059467 -0.545551
O20   O     O_3   0.657914 0.882727 0.905175 -0.577546
O21   O     O_R   0.357600 0.409850 0.447820 -0.514196
O22   O     O_R   0.461980 0.409830 0.552180 -0.512855
O23   O     O_R   0.447790 0.409860 0.357660 -0.513001
O24   O     O_R   0.552170 0.409840 0.462020 -0.510447
O25   O     O_R   0.537960 0.590200 0.447840 -0.505932
O26   O     O_R   0.642340 0.590180 0.552210 -0.516356
O27   O     O_R   0.552220 0.142430 0.090190 -0.515243

loop_
_geom_bond_atom_site_label_1
_geom_bond_atom_site_label_2
_ccdc_geom_bond_type
C33   O5    A    
Cu1   O15   S    
C7    H23   S    
C64   O20   S    
C11   H34   S    
C41   C42   A    
C19   C20   A    
C28   O15   A    
C5    C67   A    
C60   H24   S    
C36   O8    A    
C1    C68   S    
Cu6   O9    S    
C39   C41   A    
C62   H30   S    
C53   C54   S    
Cu3   O17   S    
C12   C23   A    
C37   C38   A    
Cu4   O22   S    
C18   C24   A    
C32   O2    A    
C30   C48   S    
C61   H28   S    
C54   H15   S    
C44   H7    S    
C38   C39   A    
C64   H37   S    
C3    C33   S    
C15   H47   S    
Cu5   O8    S    
C27   O17   A    
C15   H45   S    
C15   C17   S    
C18   C19   A    
C35   C42   S    
C55   H16   S    
C12   C59   A    
C17   H48   S    
Cu5   O3    S    
C45   C56   A    
C68   C69   A    
C18   C26   S    
C63   O19   S    
Cu1   Cu2   S    
C2    C69   A    
C9    C10   A    
Cu6   O5    S    
C50   H13   S    
C47   C53   A    
C46   H10   S    
Cu1   O1    S    
C57   H18   S    
C21   C22   A    
Cu4   O26   S    
C63   H36   S    
C65   H40   S    
Cu5   O27   S    
C44   H8    S    
C44   C46   S    
Cu5   O6    S    
C64   H39   S    
Cu5   Cu6   S    
C67   C68   A    
C6    H22   S    
C61   H29   S    
C1    O1    A    
C39   H6    S    
C54   H14   S    
C52   C57   A    
C29   O21   A    
C31   O25   A    
C8    C9    A    
C30   O24   A    
Cu2   O14   S    
C62   H32   S    
C3    C5    A    
C25   C26   S    
C40   C52   A    
C33   O3    A    
C26   H5    S    
C6    H12   S    
C25   H3    S    
C51   C53   A    
C12   C40   A    
C43   C44   S    
C32   C51   S    
C55   H17   S    
C17   C62   S    
Cu2   O4    S    
C31   O26   A    
C47   C48   A    
C32   O27   A    
C23   C34   A    
C50   C51   A    
C66   H46   S    
C34   C45   A    
C27   O12   A    
C24   C25   S    
C4    O10   A    
C46   H9    S    
C48   C49   A    
Cu1   O13   S    
Cu3   O25   S    
C66   H44   S    
C63   H33   S    
Cu1   O10   S    
C65   H41   S    
C22   C24   A    
C37   C43   A    
C16   O14   A    
C42   C43   A    
C60   H26   S    
C35   O6    A    
C7    C60   S    
Cu2   O11   S    
Cu6   O7    S    
C47   C55   S    
C4    C23   S    
C54   C55   S    
C8    C14   A    
C64   H38   S    
Cu4   O24   S    
C49   H11   S    
C13   C31   S    
C16   O13   A    
C8    C17   S    
Cu3   Cu4   S    
C60   H25   S    
C36   O9    A    
C29   O22   A    
C30   O23   A    
C6    C7    S    
C62   H31   S    
C29   C56   S    
C22   C36   S    
C1    O4    A    
C26   H4    S    
C56   C59   A    
Cu2   O16   S    
C63   H35   S    
C61   O18   S    
C61   H27   S    
C58   C59   A    
Cu3   O23   S    
C11   C13   A    
C57   C58   A    
C5    C6    S    
Cu4   O12   S    
C16   C19   S    
Cu3   O21   S    
C40   H50   S    
C2    H21   S    
C2    C3    A    
Cu6   O2    S    
C10   O18   S    
C58   H19   S    
C20   H49   S    
C10   C11   A    
C7    C67   S    
C25   O19   S    
C4    O11   A    
C41   O20   S    
C20   C21   A    
C49   C50   A    
C66   H43   S    
C69   H20   S    
C21   H2    S    
C45   C66   S    
C65   H42   S    
C14   C15   S    
C28   O16   A    
C27   C38   S    
C37   C46   S    
C13   C14   A    
C35   O7    A    
C52   C65   S    
C9    C28   S    
C34   H1    S    
