data_mof_unit_53707.cif
_audit_creation_date              2012-10-26T20:21:33-0400
_audit_creation_method            fapswitch 2.2
_symmetry_space_group_name_H-M    P1
_symmetry_Int_Tables_number       1
_space_group_crystal_system       triclinic
_cell_length_a                    10.877626
_cell_length_b                    9.608519
_cell_length_c                    11.675221
_cell_angle_alpha                 91.142698
_cell_angle_beta                  94.265561
_cell_angle_gamma                 89.827514
_cell_volume                      1216.64574957

loop_
_atom_site_label
_atom_site_type_symbol
_atom_type_description
_atom_site_fract_x
_atom_site_fract_y
_atom_site_fract_z
_atom_type_partial_charge
C1    C     C_R   0.262786 0.499903 0.509747 0.561748
C2    C     C_R   0.937402 0.623278 0.475748 0.002743
C3    C     C_R   0.935690 0.368926 0.479417 -0.027011
C4    C     C_R   0.060383 0.623840 0.522358 -0.000961
C5    C     C_R   0.871019 0.496941 0.475004 -0.071161
C6    C     C_R   0.127592 0.497578 0.520110 -0.075323
C7    C     C_R   0.415558 0.072849 0.430835 0.334093
C8    C     C_R   0.592307 0.928917 0.563692 0.329805
C9    C     C_R   0.588510 0.079457 0.565341 0.363996
C10   C     C_R   0.409095 0.924541 0.437604 0.331968
C11   C     C_2   0.124867 0.236131 0.542746 0.646766
C12   C     C_R   0.736676 0.499308 0.488768 0.565551
C13   C     C_2   0.890538 0.741870 0.402825 0.645207
C14   C     C_2   0.872676 0.237000 0.440149 0.658571
C15   C     C_2   0.105553 0.743679 0.598425 0.628350
C16   C     C_3   0.359245 0.144374 0.247925 0.012511
C17   C     C_3   0.274669 0.245345 0.180785 -0.342717
C18   C     C_3   0.687725 0.797981 0.714092 0.013571
C19   C     C_3   0.796128 0.820908 0.803790 -0.429826
C20   C     C_3   0.724744 0.130576 0.726383 0.024735
C21   C     C_3   0.772865 0.261833 0.789329 -0.367619
C22   C     C_3   0.296772 0.800898 0.290863 0.039320
C23   C     C_R   0.500687 0.499004 0.284224 0.526796
C24   C     C_3   0.178915 0.842507 0.220616 -0.379735
C25   C     C_R   0.498513 0.501141 0.715727 0.523325
C26   C     C_1   0.500480 0.497780 0.162468 -0.024866
C27   C     C_1   0.497777 0.503204 0.837457 -0.022305
C28   C     C_1   0.499565 0.499323 0.059877 -0.042975
C29   C     C_1   0.498307 0.502075 0.940039 -0.040475
C30   C     C_R   0.063057 0.369124 0.509666 -0.021687
Cu1   Cu    Cu3+1 0.500000 0.640660 0.500000 1.052396
Cu2   Cu    Cu3+1 0.500000 0.359340 0.500000 1.079270
H1    H     H_    0.162059 0.037394 0.501112 0.393146
H2    H     H_    0.695367 0.685427 0.696909 0.188342
H3    H     H_    0.600558 0.824844 0.754182 0.127489
H4    H     H_    0.780042 0.911154 0.861347 0.107822
H5    H     H_    0.806523 0.729192 0.860343 0.114083
H6    H     H_    0.883394 0.833637 0.762274 0.208911
H7    H     H_    0.806082 0.062450 0.721538 0.212168
H8    H     H_    0.651105 0.084789 0.775324 0.103212
H9    H     H_    0.696591 0.335376 0.801809 0.150253
H10   H     H_    0.816451 0.234584 0.875026 0.102950
H11   H     H_    0.842611 0.313197 0.739577 0.165973
H12   H     H_    0.922435 0.930659 0.338346 0.346919
H13   H     H_    0.292055 0.686249 0.296230 0.161971
H14   H     H_    0.379498 0.825738 0.244282 0.103205
H15   H     H_    0.153703 0.952257 0.238839 0.210382
H16   H     H_    0.191566 0.829029 0.127544 0.092679
H17   H     H_    0.101625 0.774822 0.241758 0.166218
H18   H     H_    0.759655 0.139610 0.319361 0.324524
H19   H     H_    0.070088 0.932114 0.668644 0.339760
H20   H     H_    0.346465 0.042055 0.205489 0.099415
H21   H     H_    0.457197 0.172064 0.239848 0.144031
H22   H     H_    0.277070 0.349518 0.223598 0.157292
H23   H     H_    0.304013 0.254895 0.092198 0.104508
H24   H     H_    0.178309 0.206562 0.176050 0.157361
N1    N     N_R   0.500000 0.852070 0.500000 -0.263309
N2    N     N_R   0.500000 0.147930 0.500000 -0.257521
O1    O     O_R   0.319640 0.618740 0.499990 -0.440606
O2    O     O_R   0.118767 0.121861 0.466862 -0.602317
O3    O     O_2   0.796045 0.729177 0.339882 -0.509119
O4    O     O_R   0.960754 0.862474 0.395843 -0.613764
O5    O     O_2   0.882769 0.132847 0.498475 -0.421279
O6    O     O_R   0.800003 0.233545 0.336134 -0.691545
O7    O     O_2   0.201636 0.734266 0.659189 -0.502332
O8    O     O_R   0.031909 0.861662 0.610802 -0.633856
O9    O     O_3   0.327356 0.143600 0.363288 -0.492288
O10   O     O_3   0.701520 0.866375 0.608712 -0.506528
O11   O     O_3   0.683466 0.162708 0.613522 -0.483866
O12   O     O_R   0.680360 0.381260 0.500010 -0.438194
O13   O     O_3   0.297882 0.860033 0.402971 -0.510811
O14   O     O_R   0.680360 0.618740 0.500010 -0.448885
O15   O     O_R   0.319640 0.381260 0.499990 -0.445376
O16   O     O_R   0.500010 0.618790 0.337200 -0.508447
O17   O     O_R   0.499990 0.381210 0.662800 -0.471552
O18   O     O_R   0.499990 0.618790 0.662800 -0.521413
O19   O     O_R   0.500010 0.381210 0.337200 -0.495361
O20   O     O_2   0.180494 0.226943 0.637296 -0.518308

loop_
_geom_bond_atom_site_label_1
_geom_bond_atom_site_label_2
_ccdc_geom_bond_type
C7    C10   A    
C27   C29   T    
H18   O6    S    
Cu2   N2    S    
Cu2   O17   S    
C28   C29   S    
C11   O20   D    
C9    O11   S    
C9    N2    A    
C19   H4    S    
C1    O1    A    
C20   H8    S    
C18   O10   S    
C15   O7    D    
C18   C19   S    
C23   C26   S    
Cu1   O1    S    
C2    C13   S    
C16   H21   S    
C19   H5    S    
Cu2   O19   S    
C21   H11   S    
C13   O4    S    
C11   C30   S    
C8    C9    A    
C18   H3    S    
C17   H23   S    
C7    N2    A    
C10   O13   S    
C12   O14   A    
C1    C6    S    
C24   H16   S    
C10   N1    A    
C5    C12   S    
C4    C6    A    
Cu2   O15   S    
C20   H7    S    
C16   C17   S    
Cu1   O16   S    
Cu2   O12   S    
H12   O4    S    
C15   O8    S    
C25   O17   A    
H19   O8    S    
C3    C30   A    
C2    C4    A    
C19   H6    S    
C8    N1    A    
Cu1   Cu2   S    
C14   O6    S    
C16   O9    S    
C23   O19   A    
C18   H2    S    
C17   H24   S    
C3    C14   S    
C21   H9    S    
Cu1   O14   S    
C22   H14   S    
C8    O10   S    
H1    O2    S    
C22   C24   S    
C20   O11   S    
C2    C5    A    
C23   O16   A    
C11   O2    S    
C22   O13   S    
C24   H17   S    
C12   O12   A    
C6    C30   A    
C24   H15   S    
C16   H20   S    
C3    C5    A    
C25   C27   S    
C26   C28   T    
C25   O18   A    
C1    O15   A    
Cu1   N1    S    
C4    C15   S    
Cu1   O18   S    
C14   O5    D    
C7    O9    S    
C21   H10   S    
C22   H13   S    
C13   O3    D    
C20   C21   S    
C17   H22   S    
