data_mof_unit_41848.cif
_audit_creation_date              2013-03-05T15:57:25-0500
_audit_creation_method            fapswitch 2.2
_symmetry_space_group_name_H-M    P1
_symmetry_Int_Tables_number       1
_space_group_crystal_system       triclinic
_cell_length_a                    12.983695
_cell_length_b                    13.091698
_cell_length_c                    15.429261
_cell_angle_alpha                 116.775281
_cell_angle_beta                  63.120161
_cell_angle_gamma                 97.376668
_cell_volume                      2079.11324551

loop_
_atom_site_label
_atom_site_type_symbol
_atom_site_description
_atom_site_fract_x
_atom_site_fract_y
_atom_site_fract_z
_atom_type_partial_charge
C1    C     C_R   0.006637 0.833988 0.046781 0.335457
N1    N     N_R   0.037320 0.720000 0.995830 -0.088667
C2    C     C_R   0.677546 0.477001 0.220817 -0.118760
H1    H     H_    0.607331 0.444402 0.199500 0.093771
N2    N     N_R   0.790770 0.446140 0.151990 -0.039008
C3    C     C_R   0.755305 0.521065 0.894674 -0.144542
H2    H     H_    0.777240 0.552693 0.835395 0.149392
N3    N     N_R   0.824900 0.517970 0.936430 -0.044117
C4    C     C_R   0.018693 0.696802 0.299730 -0.180274
H3    H     H_    0.002133 0.659465 0.353233 0.123441
N4    N     N_R   0.003190 0.648180 0.211390 -0.044774
C5    C     C_R   0.676645 0.421290 0.989916 -0.140713
H4    H     H_    0.630466 0.357872 0.016044 0.103024
N5    N     N_R   0.774330 0.457010 0.995830 -0.045762
C6    C     C_R   0.096296 0.799027 0.208239 -0.060026
H5    H     H_    0.150942 0.857449 0.180136 0.173789
N6    N     N_R   0.053760 0.709130 0.151980 -0.058037
C7    C     C_R   0.781254 0.573546 0.309764 -0.134408
H6    H     H_    0.808469 0.638869 0.366294 0.133705
N7    N     N_R   0.853840 0.498830 0.211390 -0.043728
C8    C     C_R   0.902996 0.747919 0.954371 -0.220648
H7    H     H_    0.840543 0.731646 0.922493 0.116734
N8    N     N_R   0.974250 0.667320 0.936430 -0.056438
C9    C     C_R   0.918190 0.853421 0.026065 0.008071
C10   C     C_R   0.668952 0.556205 0.322422 0.042700
C11   C     C_R   0.662829 0.459569 0.925978 0.159905
C12   C     C_R   0.074929 0.791734 0.300310 0.018232
C13   C     C_R   0.338928 0.514594 0.948518 -0.104516
H8    H     H_    0.397823 0.551174 0.896401 0.098186
N9    N     N_R   0.225670 0.542990 0.004170 -0.045621
C14   C     C_R   0.976838 0.180184 0.782375 -0.103947
H9    H     H_    0.954406 0.112028 0.806037 0.105908
N10   N     N_R   0.946240 0.290870 0.848020 -0.038793
C15   C     C_R   0.203560 0.501545 0.692843 -0.134323
H10   H     H_    0.178239 0.456895 0.629735 0.128498
N11   N     N_R   0.146160 0.501170 0.788610 -0.046817
C16   C     C_R   0.050486 0.256198 0.088708 -0.139936
H11   H     H_    0.087352 0.275832 0.144125 0.120606
N12   N     N_R   0.025750 0.332680 0.063570 -0.050024
C17   C     C_R   0.949533 0.173086 0.995766 -0.215718
H12   H     H_    0.892778 0.116348 0.965947 0.115821
N13   N     N_R   0.962680 0.280000 0.004170 -0.040406
C18   C     C_R   0.294518 0.600671 0.792748 -0.125963
H13   H     H_    0.341019 0.666144 0.829835 0.121584
N14   N     N_R   0.209230 0.553860 0.848010 -0.044091
C19   C     C_R   0.259452 0.416296 0.046703 -0.156075
H14   H     H_    0.248731 0.362546 0.085942 0.105258
N15   N     N_R   0.175100 0.482030 0.063570 -0.043479
C20   C     C_R   0.050390 0.278245 0.683959 -0.067341
H15   H     H_    0.088082 0.299638 0.616744 0.112525
N16   N     N_R   0.996810 0.351820 0.788610 -0.042452
Ni1   Ni    Ni4+2 0.130310 0.630310 0.000000 0.252345
Ni2   Ni    Ni4+2 0.869690 0.369690 0.000000 0.229094
Ni3   Ni    Ni4+2 0.985660 0.509480 0.863750 0.228614
Ni4   Ni    Ni4+2 0.014340 0.490520 0.136250 0.204860
C21   C     C_R   0.362655 0.433651 0.972911 0.148949
C22   C     C_R   0.038208 0.170026 0.679263 0.024498
C23   C     C_R   0.291942 0.571940 0.695202 0.062571
C24   C     C_R   0.005542 0.153732 0.046074 0.241642
H16   H     H_    0.605170 0.775008 0.075232 0.102611
C25   C     C_R   0.443470 0.731817 0.174163 -0.098206
H17   H     H_    0.472733 0.641707 0.136460 0.120443
C26   C     C_R   0.331517 0.773178 0.258441 -0.146291
H18   H     H_    0.275853 0.714068 0.285709 0.113699
C27   C     C_R   0.292745 0.890366 0.308456 0.110660
C28   C     C_R   0.368475 0.965145 0.272728 -0.132034
H19   H     H_    0.340727 0.055637 0.309786 0.117882
C29   C     C_R   0.480514 0.923399 0.188581 -0.098322
H20   H     H_    0.538406 0.981553 0.161763 0.127684
C30   C     C_R   0.518069 0.806929 0.139553 -0.094625
C31   C     C_R   0.161085 0.030621 0.496222 -0.245876
H21   H     H_    0.235562 0.075040 0.502997 0.131234
C32   C     C_R   0.051122 0.067670 0.584942 0.092661
C33   C     C_R   0.952347 0.011744 0.579854 0.063977
C34   C     C_R   0.965621 0.921336 0.483937 -0.239233
H22   H     H_    0.889194 0.880989 0.477454 0.141354
C35   C     C_R   0.074828 0.882813 0.395836 0.084008
C36   C     C_R   0.174931 0.935193 0.400200 0.028486
C37   C     C_R   0.797515 0.006795 0.749521 -0.389629
H23   H     H_    0.861278 0.959836 0.748180 0.114701
C38   C     C_R   0.682560 0.032693 0.832259 0.649936
C39   C     C_R   0.604124 0.097941 0.833333 -0.232492
H24   H     H_    0.516151 0.120971 0.897442 0.145558
C40   C     C_R   0.638250 0.133728 0.752206 -0.192435
H25   H     H_    0.576169 0.181787 0.752491 0.164932
C41   C     C_R   0.752461 0.108367 0.671073 -0.091222
H26   H     H_    0.777860 0.136663 0.608762 0.173817
C42   C     C_R   0.833187 0.045933 0.670059 0.077918
H27   H     H_    0.993418 0.594718 0.480976 0.127925
C43   C     C_R   0.848699 0.502421 0.465682 -0.015331
H28   H     H_    0.897503 0.418867 0.417158 0.138606
C44   C     C_R   0.734257 0.512533 0.484488 -0.105286
H29   H     H_    0.694860 0.436111 0.450753 0.119049
C45   C     C_R   0.676990 0.622175 0.533284 0.093494
C46   C     C_R   0.727894 0.720490 0.578306 -0.168462
H30   H     H_    0.684131 0.805396 0.616969 0.123002
C47   C     C_R   0.840150 0.709007 0.564879 -0.152795
H31   H     H_    0.882777 0.783824 0.594520 0.131852
C48   C     C_R   0.901928 0.600903 0.504125 -0.146017
C49   C     C_R   0.469944 0.652678 0.619646 -0.226197
H32   H     H_    0.479684 0.676901 0.691995 0.133617
C50   C     C_R   0.367910 0.612279 0.613430 0.061306
C51   C     C_R   0.355236 0.590743 0.519786 0.043663
C52   C     C_R   0.454164 0.587592 0.428251 -0.245932
H33   H     H_    0.447069 0.565669 0.354681 0.124200
C53   C     C_R   0.563641 0.597679 0.427395 0.071319
C54   C     C_R   0.569873 0.632910 0.526409 0.020488
C55   C     C_R   0.248683 0.443281 0.430396 -0.230912
H34   H     H_    0.330392 0.395078 0.364830 0.139593
C56   C     C_R   0.146986 0.388328 0.442497 -0.270182
H35   H     H_    0.152253 0.300833 0.383331 0.185168
C57   C     C_R   0.041627 0.442261 0.534597 0.383505
C58   C     C_R   0.037612 0.557496 0.608233 -0.272821
H36   H     H_    0.957252 0.602107 0.678865 0.162249
C59   C     C_R   0.138854 0.614514 0.593297 -0.215018
H37   H     H_    0.135326 0.700069 0.654790 0.143191
C60   C     C_R   0.246565 0.553681 0.509796 0.135496
C61   C     C_2   0.476210 0.393319 0.946033 -0.255798
H38   H     H_    0.478263 0.348749 0.989824 0.138431
C62   C     C_2   0.569612 0.437063 0.895065 -0.162128
H39   H     H_    0.568718 0.477480 0.847696 0.155245
C63   C     C_2   0.843690 0.959410 0.075467 -0.207582
H40   H     H_    0.813727 0.974457 0.026754 0.132567
C64   C     C_2   0.798873 0.029742 0.181452 -0.087348
H41   H     H_    0.818470 0.014552 0.236222 0.171896
N17   N     N_R   0.079624 0.918072 0.080826 0.212738
O1    O     O_R   0.191706 0.895300 0.025963 -0.453653
O2    O     O_R   0.036634 0.021068 0.157551 -0.433496
O3    O     O_3   0.647964 0.009696 0.920627 -0.678313
C65   C     C_3   0.671034 0.892098 0.889054 0.147740
H42   H     H_    0.673298 0.886311 0.957735 0.119837
H43   H     H_    0.756823 0.852439 0.819252 0.090428
C66   C     C_3   0.574471 0.822168 0.866727 -0.275368
H44   H     H_    0.491011 0.854066 0.941855 0.228820
H45   H     H_    0.564346 0.832546 0.803403 0.189209
C67   C     C_3   0.602474 0.695094 0.828815 -1.011499
H46   H     H_    0.688216 0.662309 0.756640 0.299031
H47   H     H_    0.535984 0.644546 0.806115 0.257738
H48   H     H_    0.603400 0.682434 0.894907 0.254323
N18   N     N_R   0.940735 0.379422 0.554378 0.218696
O4    O     O_R   0.840908 0.430489 0.635148 -0.454412
O5    O     O_R   0.947925 0.270113 0.492049 -0.426845

loop_
_geom_bond_atom_site_label_1
_geom_bond_atom_site_label_2
_geom_bond_distance
_ccdc_geom_bond_type
C25   C30   1.396819 A    
N15   Ni4   1.859380 S    
C28   C29   1.399098 A    
C26   C27   1.408197 A    
N17   O1    1.301273 A    
C32   C33   1.408930 A    
C57   N18   1.440105 S    
C52   H33   1.083338 S    
C46   H30   1.082842 S    
C18   H13   1.079000 S    
C52   C53   1.405147 A    
C47   H31   1.077461 S    
C13   C21   1.381123 A    
N2    N7    1.396547 A    
C3    C11   1.378703 A    
C35   C36   1.404534 A    
H27   C48   1.077115 S    
N9    N15   1.374155 A    
C13   H8    1.075918 S    
C11   C62   1.443233 S    
C15   H10   1.060737 S    
N7    Ni4   1.859697 S    
N13   Ni2   1.828366 S    
C41   C42   1.400189 A    
C53   C54   1.421444 A    
C59   H37   1.083159 S    
C20   C22   1.377622 A    
C55   H34   1.083225 S    
C1    N1    1.347641 A    
C22   C32   1.421852 S    
C25   C26   1.398400 A    
C56   H35   1.082428 S    
C57   C58   1.411314 A    
C58   H36   1.082692 S    
C18   C23   1.392861 A    
C61   H38   1.083138 S    
C43   C44   1.391265 A    
N12   Ni4   1.841206 S    
C29   H20   1.082353 S    
C59   C60   1.407904 A    
C66   C67   1.525840 S    
N17   O2    1.299501 A    
C14   N10   1.321024 A    
C23   C50   1.478144 S    
C4    H3    1.068967 S    
C15   N11   1.322352 A    
C25   H17   1.082302 S    
C17   N13   1.341715 A    
C28   H19   1.083164 S    
C17   C24   1.389417 A    
C8    H7    1.080131 S    
C51   C60   1.484398 S    
C7    C10   1.383161 A    
C67   H48   1.109673 S    
N6    Ni1   1.878069 S    
C44   C45   1.405071 A    
C37   C42   1.404215 A    
C47   C48   1.393327 A    
C10   C53   1.477650 S    
C38   C39   1.400869 A    
N12   N13   1.396531 A    
C56   C57   1.405486 A    
N10   Ni2   1.878070 S    
C19   N15   1.338017 A    
C45   C54   1.470480 S    
C33   C34   1.365409 A    
C2    C10   1.397219 A    
C1    N17   1.430724 S    
C67   H47   1.106222 S    
N3    Ni3   1.859381 S    
C31   C32   1.399945 A    
C41   H26   1.083096 S    
C7    H6    1.070524 S    
C3    N3    1.338855 A    
N14   Ni1   1.878011 S    
C20   N16   1.331915 A    
C37   H23   1.080502 S    
C5    C11   1.372967 A    
C65   H43   1.109101 S    
C34   H22   1.086847 S    
C16   H11   1.080171 S    
C34   C35   1.391289 A    
C6    C12   1.364980 A    
C14   H9    1.070000 S    
H16   C30   1.082263 S    
C9    C63   1.472085 S    
N11   N14   1.396548 A    
C40   H25   1.081718 S    
C15   C23   1.379657 A    
C18   N14   1.331009 A    
C16   C24   1.387006 A    
N1    Ni1   1.828366 S    
C17   H12   1.079131 S    
C5    N5    1.322704 A    
C27   C28   1.406410 A    
C45   C46   1.402552 A    
C39   C40   1.398653 A    
C4    N4    1.317954 A    
C38   O3    1.390218 S    
C20   H15   1.077516 S    
C65   C66   1.529816 S    
C63   C64   1.334569 D    
C2    H1    1.079900 S    
C2    N2    1.344010 A    
C43   C48   1.394480 A    
N1    N8    1.396532 A    
N4    Ni4   1.842352 S    
C62   H39   1.082574 S    
C4    C12   1.356711 A    
N8    Ni3   1.841206 S    
C37   C38   1.410449 A    
C49   C50   1.390418 A    
N2    Ni2   1.878010 S    
C6    N6    1.337816 A    
N9    Ni1   1.829118 S    
C19   H14   1.078681 S    
N4    N6    1.374157 A    
C49   C54   1.372184 A    
N3    N5    1.374156 A    
C27   C36   1.487321 S    
C21   C61   1.440231 S    
C55   C60   1.405339 A    
C40   C41   1.396296 A    
C67   H46   1.111181 S    
C12   C35   1.417520 S    
C46   C47   1.394625 A    
C3    H2    1.079138 S    
N18   O5    1.301766 A    
N10   N16   1.374159 A    
N16   Ni3   1.842352 S    
C14   C22   1.368944 A    
C8    N8    1.342325 A    
C65   H42   1.109330 S    
O3    C65   1.417053 S    
C31   H21   1.084626 S    
C16   N12   1.342101 A    
C43   H28   1.081540 S    
C66   H44   1.112002 S    
N18   O4    1.300473 A    
C13   N9    1.322467 A    
C44   H29   1.083380 S    
C55   C56   1.396447 A    
C7    N7    1.324522 A    
C50   C51   1.424848 A    
C61   C62   1.334967 D    
N11   Ni3   1.859697 S    
C26   H18   1.083021 S    
N5    Ni2   1.829118 S    
C5    H4    1.080038 S    
C1    C9    1.402082 A    
C29   C30   1.397547 A    
C39   H24   1.082620 S    
C8    C9    1.386028 A    
C19   C21   1.385199 A    
C51   C52   1.402477 A    
C66   H45   1.109369 S    
C49   H32   1.077534 S    
C33   C42   1.483420 S    
C63   H40   1.082836 S    
C31   C36   1.391859 A    
C6    H5    1.075950 S    
C64   H41   1.084997 S    
C58   C59   1.402617 A    
