data_mof_unit_23512.cif
_audit_creation_date              2012-12-10T18:53:42-0500
_audit_creation_method            fapswitch 2.2
_symmetry_space_group_name_H-M    P1
_symmetry_Int_Tables_number       1
_space_group_crystal_system       triclinic
_cell_length_a                    10.656134
_cell_length_b                    9.783773
_cell_length_c                    19.10889
_cell_angle_alpha                 89.970941
_cell_angle_beta                  89.891336
_cell_angle_gamma                 89.408916
_cell_volume                      1992.12945925

loop_
_atom_site_label
_atom_site_type_symbol
_atom_type_description
_atom_site_fract_x
_atom_site_fract_y
_atom_site_fract_z
_atom_type_partial_charge
C1    C     C_R   0.258867 0.500684 0.493878 0.912679
C2    C     C_R   0.739208 0.499425 0.510087 0.904464
C3    C     C_R   0.414566 0.501831 0.929655 0.288170
C4    C     C_R   0.410082 0.502128 0.070883 0.287380
C5    C     C_R   0.497334 0.500051 0.365180 0.853418
C6    C     C_R   0.498267 0.499996 0.634850 0.836602
C7    C     C_R   0.058994 0.375669 0.491008 0.093782
C8    C     C_R   0.936556 0.624176 0.526757 0.101008
C9    C     C_R   0.939184 0.373572 0.520047 0.093567
C10   C     C_R   0.058290 0.627607 0.500054 0.077566
C11   C     C_R   0.872681 0.498529 0.524222 -0.133748
C12   C     C_R   0.123033 0.501902 0.490090 -0.172405
C13   C     C_R   0.463389 0.072460 0.558112 -0.085798
C14   C     C_R   0.537589 0.927556 0.442083 -0.100500
C15   C     C_R   0.537750 0.071709 0.442116 -0.091828
C16   C     C_R   0.464402 0.928327 0.558315 -0.095167
C17   C     C_R   0.469489 0.624645 0.253552 -0.201690
C18   C     C_R   0.469813 0.376451 0.746621 -0.198656
C19   C     C_R   0.472559 0.624521 0.746605 -0.200253
C20   C     C_R   0.459995 0.376851 0.254272 -0.205926
C21   C     C_R   0.443042 0.625439 0.182541 -0.163933
C22   C     C_R   0.444669 0.377000 0.817847 -0.163539
C23   C     C_R   0.447412 0.625102 0.817814 -0.163125
C24   C     C_R   0.433585 0.377615 0.183243 -0.160804
C25   C     C_R   0.425752 0.501880 0.146774 0.089177
C26   C     C_R   0.433104 0.501348 0.853932 0.088893
C27   C     C_R   0.478544 0.500345 0.289751 -0.034685
C28   C     C_R   0.483156 0.500225 0.710555 -0.027812
H1    H     H_    0.482131 0.721361 0.280056 0.147076
H2    H     H_    0.477168 0.279219 0.719770 0.146583
H3    H     H_    0.482151 0.721396 0.719758 0.146859
H4    H     H_    0.464832 0.279681 0.281387 0.149924
H5    H     H_    0.437982 0.722777 0.155642 0.148541
H6    H     H_    0.435027 0.280006 0.844539 0.148440
H7    H     H_    0.439933 0.722500 0.844467 0.148420
H8    H     H_    0.420869 0.280787 0.156900 0.148253
H9    H     H_    0.433152 0.127374 0.604330 0.129447
H10   H     H_    0.567861 0.872621 0.395871 0.130630
H11   H     H_    0.568222 0.126055 0.395943 0.130859
H12   H     H_    0.434814 0.874042 0.604675 0.130001
N1    N     N_R   0.500000 0.857200 0.500000 -0.074521
N2    N     N_R   0.500000 0.142800 0.500000 -0.074927
N3    N     N_R   0.407770 0.382705 0.035026 -0.179794
N4    N     N_R   0.412734 0.621340 0.965473 -0.179962
N5    N     N_R   0.409923 0.382559 0.965615 -0.179782
N6    N     N_R   0.410598 0.621484 0.034874 -0.180066
O1    O     O_R   0.316770 0.614620 0.500000 -0.598326
O2    O     O_R   0.683230 0.385380 0.500000 -0.611224
O3    O     O_R   0.683230 0.614620 0.500000 -0.614124
O4    O     O_R   0.316770 0.385380 0.500000 -0.611380
O5    O     O_R   0.499990 0.614700 0.398140 -0.626723
O6    O     O_R   0.500010 0.385300 0.601860 -0.629567
O7    O     O_R   0.500010 0.614700 0.601860 -0.628770
O8    O     O_R   0.499990 0.385300 0.398140 -0.627905
Zn1   Zn    Zn3+2 0.500000 0.653120 0.500000 0.930724
Zn2   Zn    Zn3+2 0.500000 0.346880 0.500000 0.931873
C29   C     C_3   0.108974 0.247757 0.453308 -0.385600
C30   C     C_3   0.149166 0.277726 0.377902 -0.835078
H13   H     H_    0.069875 0.324649 0.348488 0.250357
H14   H     H_    0.230445 0.347319 0.375765 0.259241
H15   H     H_    0.176870 0.180707 0.351672 0.241113
H16   H     H_    0.186013 0.197518 0.482931 0.231161
H17   H     H_    0.034749 0.169578 0.448466 0.188327
C31   C     C_3   0.878996 0.751850 0.560872 -0.366256
C32   C     C_3   0.826384 0.722293 0.633857 -0.842566
H18   H     H_    0.748041 0.648920 0.631833 0.259570
H19   H     H_    0.901454 0.679620 0.667981 0.254036
H20   H     H_    0.790489 0.818709 0.657559 0.239777
H21   H     H_    0.950366 0.830679 0.569203 0.215919
H22   H     H_    0.807181 0.801146 0.527124 0.224083
C33   C     C_3   0.889064 0.241306 0.552101 -0.388905
C34   C     C_3   0.839244 0.262450 0.626546 -0.828613
H23   H     H_    0.913563 0.306372 0.660184 0.252806
H24   H     H_    0.756179 0.331524 0.627366 0.260549
H25   H     H_    0.810943 0.162515 0.648843 0.238986
H26   H     H_    0.816685 0.194350 0.518413 0.227773
H27   H     H_    0.965385 0.163838 0.557233 0.184324
C35   C     C_3   0.101676 0.757110 0.462572 -0.361360
C36   C     C_3   0.167296 0.861258 0.509562 -0.813002
H28   H     H_    0.201513 0.814155 0.558940 0.270781
H29   H     H_    0.247488 0.905587 0.480655 0.256482
H30   H     H_    0.103571 0.948003 0.522454 0.202693
H31   H     H_    0.165146 0.728877 0.418496 0.205032
H32   H     H_    0.020055 0.807971 0.436881 0.180978

loop_
_geom_bond_atom_site_label_1
_geom_bond_atom_site_label_2
_ccdc_geom_bond_type
C17   H1    S    
C19   H3    S    
C4    C25   S    
C10   C35   S    
C29   H16   S    
C4    N6    A    
C24   H8    S    
C33   H26   S    
C21   H5    S    
C30   H14   S    
O2    Zn2   S    
C23   C26   A    
N1    Zn1   S    
N2    Zn2   S    
C5    C27   S    
C35   H31   S    
C6    C28   S    
C20   C24   A    
C32   H19   S    
C18   H2    S    
C31   H22   S    
C1    O4    A    
C13   H9    S    
C30   H15   S    
C1    C12   S    
C34   H25   S    
C2    C11   S    
C13   N2    A    
N4    N6    A    
C29   H17   S    
O7    Zn1   S    
C7    C12   A    
C22   H6    S    
O8    Zn2   S    
C3    N4    A    
C17   C27   A    
C5    O8    A    
C18   C28   A    
C24   C25   A    
C34   H24   S    
C36   H29   S    
C35   C36   S    
C1    O1    A    
C2    O2    A    
C30   H13   S    
O3    Zn1   S    
C3    N5    A    
O4    Zn2   S    
C19   C23   A    
C2    O3    A    
C14   H10   S    
C9    C11   A    
C32   H20   S    
C31   H21   S    
C19   C28   A    
N3    N5    A    
C15   H11   S    
C10   C12   A    
C8    C31   S    
C14   N1    A    
C4    N3    A    
C16   H12   S    
C23   H7    S    
C6    O7    A    
C33   H27   S    
O1    Zn1   S    
C20   H4    S    
C7    C9    A    
C21   C25   A    
C18   C22   A    
C3    C26   S    
C9    C33   S    
C15   N2    A    
C34   H23   S    
C36   H30   S    
C20   C27   A    
C31   C32   S    
C33   C34   S    
C29   C30   S    
C8    C11   A    
O5    Zn1   S    
C17   C21   A    
C36   H28   S    
C35   H32   S    
C8    C10   A    
C32   H18   S    
C22   C26   A    
C13   C16   A    
C14   C15   A    
C5    O5    A    
C6    O6    A    
C16   N1    A    
C7    C29   S    
O6    Zn2   S    
