data_mof_unit_25176.cif
_audit_creation_date              2012-12-11T14:08:42-0500
_audit_creation_method            fapswitch 2.2
_symmetry_space_group_name_H-M    P1
_symmetry_Int_Tables_number       1
_space_group_crystal_system       triclinic
_cell_length_a                    28.215501
_cell_length_b                    7.193693
_cell_length_c                    17.198488
_cell_angle_alpha                 89.920477
_cell_angle_beta                  101.911605
_cell_angle_gamma                 90.012563
_cell_volume                      3415.66906064

loop_
_atom_site_label
_atom_site_type_symbol
_atom_type_description
_atom_site_fract_x
_atom_site_fract_y
_atom_site_fract_z
_atom_type_partial_charge
O1    O     O_R   0.000700 0.436510 0.857920 -0.533033
O2    O     O_R   0.999300 0.563490 0.142080 -0.533033
O3    O     O_R   0.999300 0.936510 0.642080 -0.533029
O4    O     O_R   0.000700 0.063490 0.357920 -0.533028
O5    O     O_R   0.930080 0.766380 0.721890 -0.542496
O6    O     O_R   0.069920 0.233620 0.278110 -0.542495
O7    O     O_R   0.069920 0.266380 0.778110 -0.542397
O8    O     O_R   0.930080 0.733620 0.221890 -0.542399
C1    C     C_R   0.910566 0.597628 0.708996 0.696253
C2    C     C_R   0.089433 0.402372 0.291005 0.696254
C3    C     C_R   0.089431 0.097592 0.791011 0.696332
C4    C     C_R   0.910569 0.902408 0.208987 0.696329
O9    O     O_R   0.996180 0.766230 0.862310 -0.543033
O10   O     O_R   0.003820 0.233770 0.137690 -0.543034
O11   O     O_R   0.003820 0.266230 0.637690 -0.543329
O12   O     O_R   0.996180 0.733770 0.362310 -0.543328
O13   O     O_R   0.065870 0.936460 0.783500 -0.539555
O14   O     O_R   0.934130 0.063540 0.216500 -0.539556
O15   O     O_R   0.934130 0.436460 0.716500 -0.539414
O16   O     O_R   0.065870 0.563540 0.283500 -0.539416
C5    C     C_R   0.998484 0.596389 0.894470 0.761738
C6    C     C_R   0.001516 0.403611 0.105530 0.761735
C7    C     C_R   0.001514 0.096502 0.605498 0.760338
C8    C     C_R   0.998486 0.903498 0.394502 0.760343
O17   O     O_3   0.022790 0.603020 0.723980 -0.378393
O18   O     O_3   0.977210 0.396980 0.276020 -0.378392
O19   O     O_3   0.977210 0.103020 0.776020 -0.377870
O20   O     O_3   0.022790 0.896980 0.223980 -0.377872
V1    V     V_3+5 0.995770 0.877900 0.754830 1.411618
V2    V     V_3+5 0.004230 0.122100 0.245170 1.411614
V3    V     V_3+5 0.004230 0.377900 0.745170 1.411249
V4    V     V_3+5 0.995770 0.622100 0.254830 1.411243
C9    C     C_2   0.001699 0.082678 0.519535 -0.330457
C10   C     C_2   0.998301 0.917322 0.480465 -0.330458
C11   C     C_2   0.998291 0.582611 0.980391 -0.330106
C12   C     C_2   0.001709 0.417389 0.019609 -0.330107
H1    H     H_    0.004476 0.211536 0.487787 0.153552
H2    H     H_    0.995523 0.788464 0.512212 0.153552
H3    H     H_    0.995493 0.711456 0.011992 0.153823
H4    H     H_    0.004507 0.288544 0.988008 0.153823
C13   C     C_R   0.684195 0.023087 0.032669 0.578363
C14   C     C_R   0.315805 0.976620 0.967265 0.578361
C15   C     C_R   0.318709 0.367808 0.464815 0.580062
C16   C     C_R   0.681279 0.632424 0.535262 0.580070
O21   O     O_2   0.714275 0.085247 0.986697 -0.515361
O22   O     O_2   0.285724 0.914192 0.013184 -0.515385
O23   O     O_2   0.291243 0.283735 0.510117 -0.513541
O24   O     O_2   0.708736 0.716711 0.490003 -0.513562
N1    N     N_R   0.702967 0.944402 0.105114 -0.558651
N2    N     N_R   0.297034 0.055584 0.894878 -0.558627
N3    N     N_R   0.297205 0.442973 0.392899 -0.558439
N4    N     N_R   0.702793 0.557035 0.607128 -0.558423
C17   C     C_R   0.672992 0.878008 0.152138 0.577351
C18   C     C_R   0.327011 0.122258 0.847913 0.577346
C19   C     C_R   0.324450 0.530581 0.346423 0.576429
C20   C     C_R   0.675556 0.469209 0.653557 0.576431
C21   C     C_R   0.778170 0.760002 0.144491 -0.079566
C22   C     C_R   0.221826 0.239995 0.855579 -0.079549
C23   C     C_R   0.222045 0.259538 0.351092 -0.079906
C24   C     C_R   0.777950 0.740453 0.648998 -0.079890
C25   C     C_R   0.828579 0.749537 0.169804 -0.193696
C26   C     C_R   0.171417 0.250462 0.830266 -0.193699
C27   C     C_R   0.171601 0.249429 0.326347 -0.193293
C28   C     C_R   0.828394 0.750560 0.673735 -0.193300
C29   C     C_R   0.833118 0.085812 0.171668 -0.193205
C30   C     C_R   0.166886 0.914185 0.828245 -0.193216
C31   C     C_R   0.166773 0.585226 0.331523 -0.193416
C32   C     C_R   0.833230 0.414786 0.668412 -0.193424
C33   C     C_R   0.782770 0.095844 0.146483 -0.084631
C34   C     C_R   0.217234 0.904150 0.853426 -0.084611
C35   C     C_R   0.217159 0.594901 0.356280 -0.084500
C36   C     C_R   0.782844 0.405113 0.643662 -0.084493
C37   C     C_R   0.754894 0.933215 0.132402 0.375311
C38   C     C_R   0.245106 0.066778 0.867588 0.375273
C39   C     C_R   0.245210 0.432306 0.366392 0.374353
C40   C     C_R   0.754789 0.567697 0.633628 0.374316
C41   C     C_R   0.602237 0.971198 0.052821 -0.043626
C42   C     C_R   0.397764 0.028788 0.947172 -0.043621
C43   C     C_R   0.397884 0.470203 0.445808 -0.044070
C44   C     C_R   0.602112 0.529816 0.554224 -0.044076
C45   C     C_R   0.633688 0.038333 0.005431 -0.033182
C46   C     C_R   0.366312 0.961367 0.994501 -0.033167
C47   C     C_R   0.369266 0.379650 0.492370 -0.032375
C48   C     C_R   0.630722 0.620587 0.507710 -0.032357
C49   C     C_R   0.614195 0.119054 0.931888 -0.125974
C50   C     C_R   0.385804 0.880325 0.067978 -0.125997
C51   C     C_R   0.391550 0.303857 0.565604 -0.125406
C52   C     C_R   0.608429 0.696632 0.434532 -0.125414
C53   C     C_R   0.622257 0.889795 0.126835 -0.029978
C54   C     C_R   0.377746 0.110475 0.873218 -0.029952
C55   C     C_R   0.375082 0.546123 0.372044 -0.030252
C56   C     C_R   0.624923 0.453674 0.627938 -0.030236
C57   C     C_R   0.856822 0.912455 0.183499 -0.052163
C58   C     C_R   0.143178 0.087544 0.816495 -0.052163
C59   C     C_R   0.143198 0.412262 0.316337 -0.052624
C60   C     C_R   0.856802 0.587737 0.683668 -0.052631
H5    H     H_    0.853392 0.214426 0.181666 0.135414
H6    H     H_    0.146616 0.785572 0.818184 0.135426
H7    H     H_    0.146362 0.713758 0.324673 0.135470
H8    H     H_    0.853645 0.286262 0.675201 0.135472
H9    H     H_    0.765363 0.230617 0.137826 0.124269
H10   H     H_    0.234644 0.769374 0.862017 0.124326
H11   H     H_    0.234422 0.729290 0.368188 0.125996
H12   H     H_    0.765584 0.270733 0.631697 0.126054
H13   H     H_    0.637520 0.171745 0.894123 0.175939
H14   H     H_    0.362479 0.827326 0.105679 0.175945
H15   H     H_    0.370447 0.233405 0.602703 0.177399
H16   H     H_    0.629522 0.767330 0.397487 0.177363
C61   C     C_R   0.480212 0.083271 0.924916 0.038962
C62   C     C_R   0.519790 0.916843 0.075104 0.038956
C63   C     C_R   0.522633 0.422548 0.574956 0.038547
C64   C     C_R   0.477366 0.577379 0.425056 0.038540
C65   C     C_R   0.468528 0.931308 0.048619 0.037129
C66   C     C_R   0.531473 0.068552 0.951347 0.037125
C67   C     C_R   0.528556 0.592632 0.452305 0.037813
C68   C     C_R   0.471437 0.407488 0.547750 0.037809
C69   C     C_R   0.449063 0.014420 0.973690 0.062429
C70   C     C_R   0.550939 0.985567 0.026302 0.062427
C71   C     C_R   0.550871 0.514986 0.527054 0.062152
C72   C     C_R   0.449125 0.485036 0.472980 0.062152
C73   C     C_R   0.458681 0.164898 0.850971 -0.173389
C74   C     C_R   0.541323 0.835641 0.149137 -0.173332
C75   C     C_R   0.546920 0.348207 0.648864 -0.173534
C76   C     C_R   0.453092 0.651393 0.351077 -0.173485
C77   C     C_R   0.408663 0.177841 0.825883 -0.133745
C78   C     C_R   0.591341 0.822753 0.174237 -0.133704
C79   C     C_R   0.596843 0.363663 0.674563 -0.132996
C80   C     C_R   0.403172 0.635889 0.325366 -0.132983
O25   O     O_2   0.307860 0.197908 0.776497 -0.515783
O26   O     O_2   0.692145 0.802627 0.223608 -0.515750
O27   O     O_2   0.697300 0.398091 0.724632 -0.518096
O28   O     O_2   0.302713 0.601480 0.275301 -0.518078
C81   C     C_R   0.564333 0.134030 0.905329 -0.174570
C82   C     C_R   0.435667 0.865406 0.094548 -0.174588
C83   C     C_R   0.441400 0.317132 0.592781 -0.177105
C84   C     C_R   0.558580 0.683316 0.407347 -0.177119
H17   H     H_    0.154636 0.386389 0.822080 0.133298
H18   H     H_    0.845357 0.613612 0.178054 0.133299
H19   H     H_    0.845045 0.886188 0.684846 0.134509
H20   H     H_    0.154948 0.113792 0.315292 0.134483
H21   H     H_    0.242785 0.366892 0.866540 0.126923
H22   H     H_    0.757207 0.633105 0.133593 0.126858
H23   H     H_    0.756816 0.867285 0.641813 0.128777
H24   H     H_    0.243177 0.132699 0.358340 0.128708
H25   H     H_    0.479307 0.220995 0.810359 0.109980
H26   H     H_    0.520700 0.779958 0.189837 0.109913
H27   H     H_    0.528596 0.276365 0.688971 0.109582
H28   H     H_    0.471428 0.722913 0.310899 0.109540
H29   H     H_    0.552979 0.198194 0.847991 0.113484
H30   H     H_    0.447018 0.800830 0.151800 0.113517
H31   H     H_    0.455020 0.254395 0.649802 0.114102
H32   H     H_    0.544947 0.746381 0.350398 0.114120
H33   H     H_    0.394304 0.241443 0.768725 0.160918
H34   H     H_    0.605701 0.759462 0.231461 0.160930
H35   H     H_    0.613389 0.303908 0.731586 0.160305
H36   H     H_    0.386635 0.695398 0.268289 0.160311

loop_
_geom_bond_atom_site_label_1
_geom_bond_atom_site_label_2
_ccdc_geom_bond_type
O17   V3    S    
C47   C51   A    
N1    C17   A    
C22   C26   A    
O1    C5    A    
O19   V1    S    
O13   V1    S    
C27   H20   S    
O3    C7    A    
C11   C12   D    
C14   C46   A    
C44   C48   A    
O4    V2    S    
O15   V3    S    
C62   C70   A    
C61   C69   A    
C68   C83   A    
C42   C54   A    
O7    C3    A    
C76   H28   S    
C41   C53   A    
C32   C60   A    
C21   H22   S    
C63   C71   A    
N3    C39   S    
C18   C54   A    
N2    C38   S    
C24   H23   S    
C52   H16   S    
C25   C57   A    
C25   H18   S    
C31   C35   A    
C67   C84   A    
C82   H30   S    
C27   C59   A    
O1    V3    S    
C15   C47   A    
O2    V4    S    
C14   O22   S    
C21   C37   A    
O3    V1    S    
C34   C38   A    
C19   C55   A    
C73   C77   A    
C1    O15   A    
C2    O16   A    
C7    C9    S    
C50   C82   A    
O2    C6    A    
C33   C37   A    
C63   C68   A    
O14   V2    S    
C43   C55   A    
C31   H7    S    
C76   C80   A    
C16   N4    A    
O11   C7    A    
C44   C71   A    
O12   C8    A    
C31   C59   A    
C50   H14   S    
O10   V2    S    
C49   H13   S    
C13   N1    A    
C84   H32   S    
C77   H33   S    
O5    V1    S    
C53   C78   A    
O7    V3    S    
C55   C80   A    
C63   C75   A    
O8    V4    S    
C51   C83   A    
C12   H4    S    
C42   C69   A    
C81   H29   S    
C28   C60   A    
C41   C70   A    
C79   H35   S    
C64   C72   A    
O18   V4    S    
C36   H12   S    
N4    C40   S    
C46   C50   A    
O11   V3    S    
C24   C40   A    
C8    C10   S    
C68   C72   A    
C32   C36   A    
C74   C78   A    
C11   H3    S    
C32   H8    S    
O5    C1    A    
C54   C77   A    
C42   C46   A    
C75   C79   A    
C1    C60   S    
C41   C45   A    
O8    C4    A    
C13   C45   A    
C43   C72   A    
C9    C10   D    
O9    C5    A    
C36   C40   A    
N2    C18   A    
C21   C25   A    
C44   C56   A    
C62   C65   A    
C52   C84   A    
C66   C70   A    
C61   C66   A    
C14   N2    A    
C65   C69   A    
C78   H34   S    
C3    C58   S    
O6    V2    S    
C75   H27   S    
C23   H24   S    
C67   C71   A    
C65   C82   A    
C26   C58   A    
C17   C53   A    
O10   C6    A    
C73   H25   S    
N1    C37   S    
C4    C57   S    
C56   C79   A    
C23   C39   A    
C22   C38   A    
O16   V4    S    
O9    V1    S    
C83   H31   S    
C18   O25   S    
C35   H11   S    
C3    O13   A    
C10   H2    S    
C48   C52   A    
C17   O26   S    
C16   C48   A    
O6    C2    A    
C34   H10   S    
C64   C76   A    
C5    C11   S    
C33   H9    S    
O12   V4    S    
C6    C12   S    
C23   C27   A    
C30   C58   A    
C24   C28   A    
C30   H6    S    
O20   V2    S    
C29   H5    S    
C62   C74   A    
C35   C39   A    
C22   H21   S    
C15   N3    A    
C30   C34   A    
C2    C59   S    
O4    C8    A    
C29   C33   A    
C29   C57   A    
C66   C81   A    
N3    C19   A    
C74   H26   S    
C26   H17   S    
C9    H1    S    
C20   O27   S    
C80   H36   S    
C43   C47   A    
N4    C20   A    
C20   C56   A    
C51   H15   S    
C19   O28   S    
C4    O14   A    
C13   O21   S    
C61   C73   A    
C15   O23   S    
C64   C67   A    
C45   C49   A    
C16   O24   S    
C49   C81   A    
C28   H19   S    
