data_mof_unit_43565.cif
_audit_creation_date              2013-03-05T15:41:02-0500
_audit_creation_method            fapswitch 2.2
_symmetry_space_group_name_H-M    P1
_symmetry_Int_Tables_number       1
_space_group_crystal_system       triclinic
_cell_length_a                    28.042536
_cell_length_b                    18.437229
_cell_length_c                    16.920686
_cell_angle_alpha                 89.83723
_cell_angle_beta                  61.502945
_cell_angle_gamma                 90.137181
_cell_volume                      7688.39736679

loop_
_atom_site_label
_atom_site_type_symbol
_atom_site_description
_atom_site_fract_x
_atom_site_fract_y
_atom_site_fract_z
_atom_type_partial_charge
O1    O     O_R   0.746490 0.236330 0.638080 -0.628998
O2    O     O_R   0.253510 0.763670 0.361920 -0.629189
O3    O     O_R   0.253510 0.236330 0.361920 -0.587450
O4    O     O_R   0.746490 0.763670 0.638080 -0.626590
O5    O     O_R   0.246490 0.736330 0.638080 -0.624934
O6    O     O_R   0.753510 0.263670 0.361920 -0.628897
O7    O     O_R   0.753510 0.736330 0.361920 -0.582975
O8    O     O_R   0.246490 0.263670 0.638080 -0.614561
O9    O     O_R   0.674170 0.186160 0.516270 -0.561269
O10   O     O_R   0.325830 0.813840 0.483730 -0.599378
O11   O     O_R   0.325830 0.186160 0.483730 -0.584194
O12   O     O_R   0.674170 0.813840 0.516270 -0.631290
O13   O     O_R   0.174170 0.686160 0.516270 -0.560116
O14   O     O_R   0.825830 0.313840 0.483730 -0.600644
O15   O     O_R   0.825830 0.686160 0.483730 -0.639371
O16   O     O_R   0.174170 0.313840 0.516270 -0.627649
O17   O     O_R   0.739960 0.127620 0.525000 -0.602800
O18   O     O_R   0.260040 0.872380 0.475000 -0.628338
O19   O     O_R   0.260040 0.127620 0.475000 -0.615726
O20   O     O_R   0.739960 0.872380 0.525000 -0.589908
O21   O     O_R   0.239960 0.627620 0.525000 -0.606344
O22   O     O_R   0.760040 0.372380 0.475000 -0.629386
O23   O     O_R   0.760040 0.627620 0.475000 -0.603695
O24   O     O_R   0.239960 0.372380 0.525000 -0.624121
O25   O     O_R   0.680700 0.294870 0.629350 -0.549240
O26   O     O_R   0.319300 0.705130 0.370650 -0.535018
O27   O     O_R   0.319300 0.294870 0.370650 -0.563524
O28   O     O_R   0.680700 0.705130 0.629350 -0.565586
O29   O     O_R   0.180700 0.794870 0.629350 -0.548721
O30   O     O_R   0.819300 0.205130 0.370650 -0.533943
O31   O     O_R   0.819300 0.794870 0.370650 -0.558268
O32   O     O_R   0.180700 0.205130 0.629350 -0.570238
C1    C     C_R   0.699912 0.264128 0.677313 0.910203
C2    C     C_R   0.295057 0.724389 0.325692 0.966823
C3    C     C_R   0.300322 0.262997 0.322828 0.996928
C4    C     C_R   0.700002 0.735900 0.677509 0.923598
C5    C     C_R   0.199921 0.764166 0.677324 0.917782
C6    C     C_R   0.795079 0.224433 0.325660 0.966357
C7    C     C_R   0.800229 0.763821 0.322450 1.001470
C8    C     C_R   0.204081 0.225940 0.675376 0.946316
C9    C     C_R   0.690659 0.129611 0.536807 0.969453
C10   C     C_R   0.309211 0.870511 0.463232 0.903927
C11   C     C_R   0.308364 0.129191 0.465855 0.958414
C12   C     C_R   0.695674 0.872428 0.520507 0.959612
C13   C     C_R   0.190637 0.629643 0.537011 0.974576
C14   C     C_R   0.809252 0.370462 0.463059 0.897484
C15   C     C_R   0.808232 0.629085 0.466392 0.904721
C16   C     C_R   0.195778 0.372442 0.520267 0.935785
Zn1   Zn    Zn3+2 0.792340 0.208750 0.507670 1.177550
Zn2   Zn    Zn3+2 0.207660 0.791250 0.492330 1.166366
Zn3   Zn    Zn3+2 0.207660 0.208750 0.492330 1.144826
Zn4   Zn    Zn3+2 0.792340 0.791250 0.507670 1.152354
Zn5   Zn    Zn3+2 0.292340 0.708750 0.507670 1.173554
Zn6   Zn    Zn3+2 0.707660 0.291250 0.492330 1.162984
Zn7   Zn    Zn3+2 0.707660 0.708750 0.492330 1.149029
Zn8   Zn    Zn3+2 0.292340 0.291250 0.507670 1.155698
H1    H     H_    0.087521 0.268819 0.379555 0.198155
H2    H     H_    0.946007 0.743861 0.516856 0.186172
H3    H     H_    0.009570 0.265205 0.359763 0.205757
H4    H     H_    0.006950 0.739936 0.579003 0.203999
H5    H     H_    0.586611 0.767838 0.382273 0.197951
H6    H     H_    0.453418 0.246985 0.499892 0.209785
H7    H     H_    0.508590 0.764129 0.362373 0.206369
H8    H     H_    0.513019 0.243241 0.563880 0.205662
C17   C     C_R   0.534821 0.129076 0.534652 0.020012
C18   C     C_R   0.481452 0.874116 0.409025 -0.009393
C19   C     C_R   0.460227 0.132694 0.466039 0.016400
C20   C     C_R   0.577849 0.880408 0.425802 0.003559
C21   C     C_R   0.032621 0.627784 0.541118 0.023422
C22   C     C_R   0.981649 0.374420 0.408878 -0.009356
C23   C     C_R   0.957351 0.631618 0.474325 -0.005098
C24   C     C_R   0.078144 0.380870 0.425394 0.001918
C25   C     C_R   0.507110 0.193354 0.536754 -0.126480
C26   C     C_R   0.516516 0.814225 0.386754 -0.152599
C27   C     C_R   0.472711 0.195952 0.498483 -0.069200
C28   C     C_R   0.563539 0.817212 0.395384 -0.134083
C29   C     C_R   0.002585 0.691037 0.548370 -0.128404
C30   C     C_R   0.017162 0.314979 0.385220 -0.154704
C31   C     C_R   0.967456 0.693844 0.511500 -0.142713
C32   C     C_R   0.064218 0.318025 0.393717 -0.138286
C33   C     C_R   0.483336 0.066820 0.471798 0.017382
C34   C     C_R   0.542124 0.939784 0.451834 0.026003
C35   C     C_R   0.524106 0.066238 0.497942 0.029840
C36   C     C_R   0.495889 0.937877 0.438806 0.033750
C37   C     C_R   0.981675 0.566019 0.476967 0.026165
C38   C     C_R   0.041985 0.439825 0.452756 0.025211
C39   C     C_R   0.022650 0.565448 0.502527 0.031907
C40   C     C_R   0.995672 0.437834 0.439930 0.031275
C41   C     C_R   0.966024 0.501386 0.451228 -0.042036
C42   C     C_R   0.053482 0.502487 0.488830 -0.037509
C43   C     C_R   0.466802 0.001763 0.448473 -0.036795
C44   C     C_R   0.554031 0.002753 0.486703 -0.032648
C45   C     C_R   0.898698 0.434846 0.426571 -0.021977
C46   C     C_R   0.108029 0.564505 0.546339 0.009052
C47   C     C_R   0.130963 0.441950 0.486108 -0.020278
C48   C     C_R   0.894807 0.566795 0.438844 -0.031226
C49   C     C_R   0.398806 0.934914 0.425965 -0.022129
C50   C     C_R   0.608376 0.064780 0.544555 0.010800
C51   C     C_R   0.630875 0.941743 0.485913 -0.023010
C52   C     C_R   0.395540 0.067052 0.435971 -0.006211
C53   C     C_R   0.844509 0.434976 0.438086 -0.079896
C54   C     C_R   0.157060 0.564664 0.553082 -0.033269
C55   C     C_R   0.169075 0.438887 0.518929 -0.073067
C56   C     C_R   0.842801 0.565217 0.443364 -0.055823
C57   C     C_R   0.344464 0.935042 0.438181 -0.076335
C58   C     C_R   0.657047 0.064718 0.552474 -0.044011
C59   C     C_R   0.668881 0.938801 0.519058 -0.081836
C60   C     C_R   0.343024 0.065345 0.442362 -0.040666
C61   C     C_R   0.819314 0.499992 0.441007 -0.223557
C62   C     C_R   0.181795 0.500126 0.551578 -0.230297
C63   C     C_R   0.319198 0.000046 0.441388 -0.218108
C64   C     C_R   0.681498 0.000107 0.551740 -0.191255
H9    H     H_    0.778705 0.499721 0.448488 0.210348
H10   H     H_    0.214780 0.499100 0.567958 0.211365
H11   H     H_    0.278346 0.999750 0.449934 0.208706
H12   H     H_    0.714257 0.999059 0.568681 0.227310
C65   C     C_R   0.919727 0.500779 0.439096 -0.009325
C66   C     C_R   0.096787 0.502618 0.508563 0.007208
C67   C     C_R   0.420280 0.001046 0.437004 -0.007737
C68   C     C_R   0.597050 0.002726 0.507231 0.010261
C69   C     C_R   0.127451 0.387998 0.429008 0.270170
C70   C     C_R   0.922965 0.632015 0.435238 0.240517
C71   C     C_R   0.933373 0.373036 0.400591 0.254197
C72   C     C_R   0.071968 0.624629 0.571214 0.286475
C73   C     C_R   0.627205 0.887480 0.429267 0.269583
C74   C     C_R   0.424555 0.132278 0.429107 0.280280
C75   C     C_R   0.433244 0.872861 0.400567 0.254058
C76   C     C_R   0.572918 0.125458 0.567385 0.294462
C77   C     C_R   0.710789 0.246159 0.962005 0.042808
C78   C     C_R   0.272235 0.715415 0.051398 0.044838
C79   C     C_R   0.278492 0.259179 0.049503 0.045262
C80   C     C_R   0.717878 0.739200 0.956964 0.042808
C81   C     C_R   0.210762 0.746147 0.962118 0.043632
C82   C     C_R   0.772308 0.215552 0.051239 0.044422
C83   C     C_R   0.783400 0.758970 0.042114 0.044455
C84   C     C_R   0.220352 0.223689 0.957230 0.045367
C85   C     C_R   0.761384 0.211016 0.915828 -0.013357
C86   C     C_R   0.217943 0.738907 0.101036 -0.014212
C87   C     C_R   0.233079 0.212933 0.090353 -0.007423
C88   C     C_R   0.765767 0.780915 0.914147 -0.010643
C89   C     C_R   0.261372 0.711055 0.915927 -0.012235
C90   C     C_R   0.718035 0.239116 0.100848 -0.013487
C91   C     C_R   0.735658 0.716993 0.084774 -0.003422
C92   C     C_R   0.270564 0.259150 0.912164 -0.016750
C93   C     C_R   0.794711 0.203253 0.957765 0.081944
C94   C     C_R   0.189112 0.761199 0.054861 0.078232
C95   C     C_R   0.199559 0.204315 0.048858 0.078736
C96   C     C_R   0.799821 0.787981 0.954988 0.084641
C97   C     C_R   0.294671 0.703236 0.957893 0.082461
C98   C     C_R   0.689178 0.261323 0.054705 0.079048
C99   C     C_R   0.701532 0.710028 0.044009 0.080727
C100  C     C_R   0.294314 0.286979 0.962705 0.087708
C101  C     C_R   0.633971 0.307248 0.957952 0.045966
C102  C     C_R   0.357714 0.678264 0.047131 0.049881
C103  C     C_R   0.346851 0.334763 0.061032 0.064764
C104  C     C_R   0.638078 0.685130 0.955473 0.053071
C105  C     C_R   0.133975 0.807282 0.958019 0.046611
C106  C     C_R   0.857764 0.178335 0.047027 0.051622
C107  C     C_R   0.862817 0.813761 0.043881 0.049823
C108  C     C_R   0.137967 0.181103 0.957186 0.046167
C109  C     C_R   0.609433 0.334507 0.906486 -0.243453
C110  C     C_R   0.386505 0.659177 0.094770 -0.217609
C111  C     C_R   0.379391 0.349591 0.103830 -0.231199
C112  C     C_R   0.610831 0.663510 0.905901 -0.247020
C113  C     C_R   0.109445 0.834530 0.906527 -0.240559
C114  C     C_R   0.886535 0.159232 0.094707 -0.218370
C115  C     C_R   0.889732 0.835969 0.093556 -0.227155
C116  C     C_R   0.110438 0.162246 0.907668 -0.212144
C117  C     C_R   0.625684 0.308095 0.820213 0.223929
C118  C     C_R   0.368349 0.682461 0.181812 0.227750
C119  C     C_R   0.370880 0.311312 0.180698 0.210868
C120  C     C_R   0.626036 0.692858 0.821140 0.229222
C121  C     C_R   0.125666 0.808085 0.820283 0.230508
C122  C     C_R   0.868387 0.182557 0.181737 0.228233
C123  C     C_R   0.874515 0.807313 0.178544 0.219594
C124  C     C_R   0.129364 0.186486 0.820287 0.230846
C125  C     C_R   0.673181 0.267349 0.776707 -0.185504
C126  C     C_R   0.314102 0.702975 0.232276 -0.207148
C127  C     C_R   0.325196 0.267845 0.224063 -0.152424
C128  C     C_R   0.674157 0.732177 0.777162 -0.181499
C129  C     C_R   0.173198 0.767411 0.776734 -0.183310
C130  C     C_R   0.814147 0.203102 0.232191 -0.207078
C131  C     C_R   0.826424 0.767639 0.222747 -0.165974
C132  C     C_R   0.183610 0.207769 0.770770 -0.217074
C133  C     C_R   0.698755 0.239564 0.826964 -0.077679
C134  C     C_R   0.279511 0.705478 0.190798 -0.081180
C135  C     C_R   0.297766 0.242411 0.175823 -0.036298
C136  C     C_R   0.701274 0.756727 0.826686 -0.083148
C137  C     C_R   0.198790 0.739666 0.826993 -0.078124
C138  C     C_R   0.779583 0.205692 0.190658 -0.080772
C139  C     C_R   0.799781 0.742187 0.172752 -0.034860
C140  C     C_R   0.216441 0.214516 0.815212 -0.079786
C141  C     C_R   0.681299 0.264734 0.915370 0.037779
C142  C     C_R   0.303478 0.701326 0.096180 0.040713
C143  C     C_R   0.308062 0.278296 0.095242 0.048138
C144  C     C_R   0.685931 0.726711 0.912694 0.033324
C145  C     C_R   0.181301 0.764777 0.915442 0.037047
C146  C     C_R   0.803549 0.201477 0.096041 0.040612
C147  C     C_R   0.815145 0.771924 0.086601 0.039906
C148  C     C_R   0.191191 0.207665 0.910054 0.036766
C149  C     C_R   0.611663 0.318156 0.051575 -0.103479
C150  C     C_R   0.380941 0.673848 0.952718 -0.124188
C151  C     C_R   0.351992 0.372685 0.983968 -0.124861
C152  C     C_R   0.617841 0.669849 0.048061 -0.112299
C153  C     C_R   0.111660 0.818173 0.051657 -0.105232
C154  C     C_R   0.880977 0.173840 0.952614 -0.116012
C155  C     C_R   0.883256 0.828797 0.951256 -0.108338
C156  C     C_R   0.114631 0.172652 0.051804 -0.109386
C157  C     C_R   0.638726 0.296447 0.098473 -0.191120
C158  C     C_R   0.349818 0.684313 0.909324 -0.208804
C159  C     C_R   0.330267 0.345301 0.931777 -0.200577
C160  C     C_R   0.649451 0.679511 0.090247 -0.207955
C161  C     C_R   0.138671 0.796342 0.098609 -0.187202
C162  C     C_R   0.849845 0.184265 0.909214 -0.205899
C163  C     C_R   0.851867 0.818640 0.908830 -0.207861
C164  C     C_R   0.145749 0.179832 0.095795 -0.203441
C165  C     C_R   0.739724 0.185106 0.794733 0.342300
C166  C     C_R   0.221961 0.709977 0.239160 0.353162
C167  C     C_R   0.260373 0.182889 0.204266 0.383085
C168  C     C_R   0.741233 0.812731 0.796717 0.338264
C169  C     C_R   0.239790 0.685261 0.794733 0.354061
C170  C     C_R   0.722052 0.210369 0.238966 0.355591
C171  C     C_R   0.760274 0.685609 0.202311 0.384347
C172  C     C_R   0.273353 0.228258 0.770334 0.360268
C173  C     C_R   0.774241 0.178343 0.833138 -0.281310
C174  C     C_R   0.193002 0.733155 0.195247 -0.263811
C175  C     C_R   0.225008 0.174041 0.167319 -0.225477
C176  C     C_R   0.775167 0.820099 0.836263 -0.282309
C177  C     C_R   0.274285 0.678484 0.833165 -0.287264
C178  C     C_R   0.693113 0.233505 0.195040 -0.264936
C179  C     C_R   0.726493 0.677640 0.162453 -0.228082
C180  C     C_R   0.297484 0.259959 0.817909 -0.275956
H13   H     H_    0.571708 0.340255 0.091946 0.207251
H14   H     H_    0.423779 0.663917 0.910778 0.191016
H15   H     H_    0.371448 0.424500 0.961565 0.182705
H16   H     H_    0.576466 0.653256 0.091363 0.199872
H17   H     H_    0.071729 0.840338 0.092007 0.206634
H18   H     H_    0.923808 0.163856 0.910679 0.192338
H19   H     H_    0.924592 0.845728 0.908239 0.200636
H20   H     H_    0.071940 0.161105 0.093457 0.197765
H21   H     H_    0.807154 0.139860 0.804072 0.191953
H22   H     H_    0.149505 0.737810 0.234905 0.194850
H23   H     H_    0.194926 0.131162 0.193039 0.177965
H24   H     H_    0.805629 0.862352 0.810548 0.190523
H25   H     H_    0.307216 0.640031 0.804065 0.188464
H26   H     H_    0.649621 0.238204 0.234727 0.193222
H27   H     H_    0.696139 0.635242 0.188109 0.175262
H28   H     H_    0.339884 0.275516 0.781959 0.193815
O33   O     O_R   0.062020 0.072840 0.007170 -0.643236
O34   O     O_R   0.937980 0.927160 0.992830 -0.645653
O35   O     O_R   0.937980 0.072840 0.992830 -0.643627
O36   O     O_R   0.062020 0.927160 0.007170 -0.643046
O37   O     O_R   0.562020 0.572840 0.007170 -0.644171
O38   O     O_R   0.437980 0.427160 0.992830 -0.645175
O39   O     O_R   0.437980 0.572840 0.992830 -0.657967
O40   O     O_R   0.562020 0.427160 0.007170 -0.644482
O41   O     O_R   0.947860 0.073950 0.109290 -0.551057
O42   O     O_R   0.052140 0.926050 0.890710 -0.549742
O43   O     O_R   0.052140 0.073950 0.890710 -0.552705
O44   O     O_R   0.947860 0.926050 0.109290 -0.549225
O45   O     O_R   0.447860 0.573950 0.109290 -0.552810
O46   O     O_R   0.552140 0.426050 0.890710 -0.540383
O47   O     O_R   0.552140 0.573950 0.890710 -0.555446
O48   O     O_R   0.447860 0.426050 0.109290 -0.554634
C181  C     C_R   0.069495 0.105154 0.938953 0.924178
C182  C     C_R   0.928731 0.896255 0.062917 0.937386
C183  C     C_R   0.928802 0.103733 0.062311 0.928878
C184  C     C_R   0.071101 0.895902 0.937252 0.923738
C185  C     C_R   0.571398 0.603697 0.936906 0.918655
C186  C     C_R   0.423160 0.403063 0.068313 0.950892
C187  C     C_R   0.428815 0.603744 0.062303 0.918134
C188  C     C_R   0.571053 0.395853 0.937287 0.939681
Zn9   Zn    Zn3+2 0.505960 0.500000 0.080520 1.083938
Zn10  Zn    Zn3+2 0.494040 0.500000 0.919480 1.084469
Zn11  Zn    Zn3+2 0.005960 0.000000 0.080520 1.090429
Zn12  Zn    Zn3+2 0.994040 0.000000 0.919480 1.083789
N1    N     N_R   0.177248 0.356766 0.359767 0.216356
O49   O     O_R   0.222354 0.393449 0.329770 -0.405829
O50   O     O_R   0.177187 0.299277 0.315627 -0.431222
N2    N     N_R   0.927883 0.688724 0.372442 0.245167
O51   O     O_R   0.914984 0.674821 0.309621 -0.333279
O52   O     O_R   0.953235 0.749166 0.367423 -0.351901
N3    N     N_R   0.924918 0.315873 0.351058 0.220712
O53   O     O_R   0.922377 0.248503 0.375986 -0.349232
O54   O     O_R   0.912192 0.332259 0.288629 -0.354738
N4    N     N_R   0.070796 0.675985 0.636135 0.198768
O55   O     O_R   0.072519 0.652562 0.707344 -0.352130
O56   O     O_R   0.075308 0.745297 0.619277 -0.336378
N5    N     N_R   0.676896 0.856029 0.359965 0.215523
O57   O     O_R   0.722209 0.892096 0.330736 -0.405920
O58   O     O_R   0.676465 0.799923 0.314101 -0.427476
N6    N     N_R   0.427922 0.188323 0.366489 0.231097
O59   O     O_R   0.412558 0.173731 0.306797 -0.344542
O60   O     O_R   0.455090 0.247947 0.356848 -0.356065
N7    N     N_R   0.424739 0.815658 0.351124 0.220927
O61   O     O_R   0.422060 0.748309 0.376196 -0.349398
O62   O     O_R   0.412037 0.832038 0.288665 -0.354572
N8    N     N_R   0.570545 0.176397 0.633622 0.203371
O63   O     O_R   0.571083 0.152429 0.705602 -0.341310
O64   O     O_R   0.574969 0.245843 0.617718 -0.335645
N9    N     N_R   0.591788 0.319450 0.778838 0.252635
O65   O     O_R   0.599970 0.375347 0.726547 -0.332597
O66   O     O_R   0.545644 0.285177 0.811042 -0.298729
N10   N     N_R   0.405630 0.682845 0.218017 0.257009
O67   O     O_R   0.402696 0.631373 0.273110 -0.314455
O68   O     O_R   0.451373 0.717706 0.174114 -0.342814
N11   N     N_R   0.410575 0.312713 0.211697 0.251091
O69   O     O_R   0.408265 0.362183 0.268192 -0.314253
O70   O     O_R   0.455543 0.277060 0.166686 -0.325991
N12   N     N_R   0.590585 0.686840 0.781866 0.219189
O71   O     O_R   0.593368 0.631216 0.732570 -0.349968
O72   O     O_R   0.559523 0.741089 0.787695 -0.370705
N13   N     N_R   0.091690 0.819337 0.779028 0.252547
O73   O     O_R   0.099899 0.875115 0.726556 -0.331848
O74   O     O_R   0.045353 0.785473 0.811890 -0.329776
N14   N     N_R   0.905676 0.182992 0.217921 0.255772
O75   O     O_R   0.902778 0.131542 0.273015 -0.309769
O76   O     O_R   0.951395 0.217902 0.174010 -0.349798
N15   N     N_R   0.910293 0.814868 0.217063 0.249558
O77   O     O_R   0.903770 0.868297 0.271473 -0.313614
O78   O     O_R   0.957111 0.782583 0.177882 -0.334520
N16   N     N_R   0.092414 0.190595 0.783707 0.216214
O79   O     O_R   0.091130 0.139185 0.732111 -0.343728
O80   O     O_R   0.052985 0.237222 0.816956 -0.393429
H29   H     H_    0.619795 0.309664 0.169094 0.164739
H30   H     H_    0.370090 0.679991 0.836825 0.161051
H31   H     H_    0.338274 0.373799 0.870549 0.160003
H32   H     H_    0.631231 0.665739 0.160858 0.158297
H33   H     H_    0.119722 0.809482 0.169256 0.166322
H34   H     H_    0.870099 0.179849 0.836725 0.159746
H35   H     H_    0.870222 0.832268 0.838177 0.156548
H36   H     H_    0.126348 0.170331 0.167632 0.160000
N17   N     N_R   0.740402 0.128255 0.735905 0.233633
O81   O     O_R   0.695364 0.106771 0.738693 -0.356074
O82   O     O_R   0.784757 0.092498 0.686621 -0.355149
N18   N     N_R   0.191755 0.677467 0.326512 0.212833
O83   O     O_R   0.208267 0.616464 0.343731 -0.418013
O84   O     O_R   0.142953 0.699803 0.381044 -0.398730
N19   N     N_R   0.262216 0.126272 0.261581 0.209992
O85   O     O_R   0.308204 0.108240 0.257443 -0.384408
O86   O     O_R   0.219304 0.087267 0.310701 -0.391050
N20   N     N_R   0.741731 0.870101 0.738301 0.234384
O87   O     O_R   0.786177 0.906051 0.688395 -0.358707
O88   O     O_R   0.696579 0.891740 0.741910 -0.353832
N21   N     N_R   0.240507 0.628432 0.735865 0.224460
O89   O     O_R   0.195483 0.606899 0.738633 -0.385541
O90   O     O_R   0.284920 0.592858 0.686379 -0.396906
N22   N     N_R   0.691772 0.178133 0.326407 0.212918
O91   O     O_R   0.707855 0.116818 0.343704 -0.417569
O92   O     O_R   0.643264 0.201293 0.381121 -0.407276
N23   N     N_R   0.759650 0.628918 0.261562 0.210725
O93   O     O_R   0.804691 0.607999 0.258931 -0.385255
O94   O     O_R   0.715239 0.592889 0.311416 -0.390761
N24   N     N_R   0.308457 0.197228 0.684189 0.223848
O95   O     O_R   0.297898 0.133127 0.664263 -0.429306
O96   O     O_R   0.354448 0.228272 0.630679 -0.430534

loop_
_geom_bond_atom_site_label_1
_geom_bond_atom_site_label_2
_geom_bond_distance
_ccdc_geom_bond_type
N16   O80   1.300695 A    
O4    C4    1.253651 A    
O5    C5    1.259915 A    
C59   C64   1.377297 A    
C23   C70   1.405632 A    
O7    Zn7   2.015965 S    
O31   Zn4   2.068243 S    
C151  C159  1.385765 A    
O8    Zn8   2.015965 S    
O38   Zn10  1.983418 S    
N17   O81   1.301894 A    
C160  H32   1.080825 S    
C106  C114  1.430660 A    
C118  C126  1.396922 A    
C105  C113  1.433808 A    
C75   N7    1.436424 S    
C69   N1    1.449411 S    
C83   C147  1.433713 A    
C38   C40   1.415591 A    
O30   C6    1.288601 A    
C117  C125  1.397360 A    
C86   C174  1.405856 A    
O20   C12   1.279924 A    
O44   Zn11  1.994798 S    
C165  N17   1.441462 S    
O33   Zn11  1.983418 S    
C36   C43   1.399231 A    
O34   Zn12  1.983418 S    
C178  H26   1.079478 S    
C49   C57   1.436797 A    
O2    C2    1.258094 A    
C91   C99   1.427555 A    
H5    C28   1.078670 S    
C25   C27   1.395800 A    
C154  C162  1.396485 A    
O6    Zn6   2.020674 S    
C136  C168  1.424166 A    
C101  C149  1.413551 A    
C29   C31   1.396022 A    
O46   Zn10  2.002008 S    
C179  H27   1.079976 S    
O41   Zn11  2.002007 S    
C88   C176  1.410808 A    
C111  C186  1.458276 S    
O42   Zn12  2.002008 S    
C105  C153  1.413727 A    
C97   C158  1.407156 A    
C38   C42   1.414668 A    
C45   C53   1.436886 A    
N20   O87   1.301691 A    
O27   C3    1.302113 A    
N9    O65   1.302914 A    
C101  C109  1.433678 A    
N14   O75   1.302983 A    
C172  N24   1.435014 S    
C150  H14   1.080989 S    
C176  H24   1.079887 S    
O47   Zn10  1.994797 S    
C5    C129  1.480716 S    
C152  C160  1.389512 A    
N13   O74   1.300817 A    
O43   Zn12  1.994797 S    
C154  H18   1.080983 S    
O35   Zn12  1.993264 S    
O23   Zn7   2.020648 S    
H2    C31   1.082354 S    
C100  C159  1.390967 A    
C34   C36   1.415445 A    
C48   C56   1.423701 A    
H6    C27   1.081135 S    
N8    O63   1.301296 A    
O17   Zn1   2.014197 S    
C78   C86   1.412802 A    
C139  C171  1.424226 A    
C123  C131  1.393855 A    
C137  C145  1.413988 A    
C124  C132  1.396105 A    
C81   C145  1.430637 A    
C15   C56   1.458021 S    
C79   C143  1.422446 A    
C45   C71   1.427491 A    
N18   O83   1.301403 A    
C70   N2    1.447202 S    
C50   C68   1.415079 A    
H7    C26   1.077677 S    
O24   Zn8   2.020648 S    
O9    C9    1.255063 A    
C50   C58   1.433663 A    
C60   C63   1.379457 A    
C161  H33   1.079885 S    
N6    O60   1.300729 A    
C115  C182  1.466336 S    
C152  H16   1.078185 S    
N4    O56   1.301211 A    
N22   O91   1.301367 A    
C106  C146  1.408256 A    
C107  C115  1.431683 A    
C11   C60   1.458715 S    
C140  C148  1.416621 A    
C84   C148  1.419954 A    
C13   C54   1.464333 S    
C93   C162  1.407168 A    
C126  C134  1.444069 A    
C77   C85   1.411679 A    
C40   C41   1.398212 A    
C46   C54   1.432875 A    
C167  N19   1.440543 S    
O7    C7    1.256709 A    
O9    Zn6   2.103347 S    
O8    C8    1.254542 A    
C89   C177  1.405258 A    
C166  C174  1.403483 A    
C73   N5    1.449676 S    
O11   Zn8   2.109601 S    
O13   C13   1.255818 A    
C112  C185  1.466789 S    
N15   O78   1.301153 A    
C21   C29   1.411169 A    
N23   O93   1.301856 A    
O41   C183  1.274102 A    
O16   Zn3   2.109601 S    
O42   C184  1.269011 A    
C122  C130  1.396891 A    
C23   C31   1.401741 A    
C34   C44   1.413307 A    
N7    O62   1.301139 A    
C134  C166  1.421926 A    
C26   C28   1.395219 A    
C55   C62   1.377271 A    
C166  N18   1.435016 S    
C169  N21   1.441298 S    
C138  C170  1.421658 A    
C30   C32   1.394918 A    
C174  H22   1.079482 S    
C18   C26   1.407888 A    
C120  N12   1.439615 S    
O33   C181  1.223047 A    
C117  N9    1.439669 S    
C85   C173  1.405356 A    
O2    Zn2   2.020674 S    
H8    C25   1.076288 S    
O6    C6    1.258073 A    
C62   H10   1.085112 S    
C177  H25   1.081247 S    
C83   C91   1.407890 A    
N1    O49   1.302413 A    
H1    C32   1.078046 S    
C119  C127  1.384421 A    
C45   C65   1.409856 A    
C103  C151  1.423006 A    
H3    C30   1.077900 S    
C149  C157  1.392888 A    
C33   C35   1.409112 A    
C47   C55   1.421372 A    
N17   O82   1.301697 A    
O21   C13   1.299162 A    
C109  C188  1.477554 S    
C3    C127  1.474399 S    
C14   C53   1.470973 S    
C110  C187  1.463244 S    
C52   C60   1.424506 A    
O23   C15   1.288514 A    
C99   C160  1.401751 A    
O39   Zn10  1.993264 S    
C1    C125  1.480455 S    
O24   C16   1.279114 A    
C48   C65   1.405955 A    
C103  C143  1.411550 A    
N2    O51   1.301703 A    
O37   C185  1.226153 A    
C103  C111  1.436089 A    
C16   C55   1.443070 S    
C180  H28   1.083155 S    
C49   C67   1.410427 A    
C108  C156  1.419180 A    
O3    C3    1.252592 A    
N5    O57   1.302242 A    
C52   C67   1.406466 A    
C164  H36   1.082348 S    
C74   N6    1.448149 S    
C41   C65   1.407867 A    
C19   C33   1.402808 A    
C43   C67   1.407591 A    
C112  C120  1.393732 A    
C19   C27   1.403304 A    
O29   C5    1.298581 A    
C64   H12   1.085244 S    
C115  C123  1.392207 A    
C12   C59   1.443748 S    
C116  C124  1.383418 A    
O48   C186  1.264383 A    
C134  C142  1.412427 A    
C20   C28   1.407749 A    
C130  C138  1.444188 A    
C6    C130  1.462695 S    
C20   C34   1.408200 A    
C44   C68   1.405623 A    
C24   C32   1.408358 A    
C118  N10   1.442033 S    
C46   C66   1.415854 A    
C47   C69   1.424245 A    
C86   C94   1.426731 A    
C107  C147  1.405152 A    
O45   C187  1.274042 A    
O12   Zn7   2.109601 S    
C79   C87   1.406441 A    
C121  C129  1.397390 A    
O13   Zn2   2.103347 S    
O47   C185  1.267777 A    
C101  C141  1.410911 A    
C170  C178  1.402967 A    
N24   O95   1.301536 A    
N3    O53   1.301438 A    
O12   C12   1.254666 A    
C91   C179  1.411185 A    
C20   C73   1.418690 A    
C165  C173  1.405391 A    
C72   N4    1.440822 S    
C96   C163  1.401960 A    
C24   C69   1.418693 A    
O10   C10   1.258468 A    
C4    C128  1.485335 S    
C116  C181  1.455193 S    
O14   C14   1.258463 A    
C108  C116  1.427047 A    
C42   C66   1.404669 A    
C85   C93   1.424894 A    
C104  C144  1.406240 A    
C157  H29   1.079851 S    
N20   O88   1.301871 A    
C127  C135  1.441336 A    
C53   C61   1.381903 A    
C125  C133  1.442626 A    
C168  C176  1.406846 A    
C87   C175  1.405025 A    
O10   Zn5   2.103347 S    
C128  C136  1.447033 A    
C124  N16   1.440340 S    
C129  C137  1.442778 A    
O36   C184  1.230332 A    
C171  C179  1.408307 A    
C113  C184  1.477341 S    
C114  C183  1.463338 S    
C132  C140  1.445402 A    
N21   O90   1.301700 A    
C111  C119  1.394461 A    
C21   C39   1.415068 A    
C155  H19   1.078335 S    
C120  C128  1.390786 A    
C50   C76   1.425036 A    
N16   O79   1.302468 A    
C57   C63   1.381706 A    
C153  C161  1.393119 A    
O22   Zn6   2.014197 S    
C156  H20   1.080763 S    
C79   C100  1.410453 A    
N8    O64   1.301022 A    
C163  H35   1.080643 S    
C102  C150  1.411053 A    
O19   C11   1.288743 A    
N12   O72   1.300620 A    
N9    O66   1.300734 A    
C123  N15   1.440370 S    
C114  C122  1.379130 A    
C9    C58   1.464412 S    
O1    C1    1.259825 A    
N11   O69   1.302335 A    
C106  C154  1.411178 A    
C17   C76   1.420345 A    
O25   Zn6   2.068785 S    
C140  C172  1.424239 A    
N18   O84   1.301459 A    
C19   C74   1.409880 A    
N7    O61   1.301414 A    
O3    Zn3   2.015965 S    
O27   Zn8   2.068243 S    
C58   C64   1.373042 A    
C21   C72   1.420042 A    
O32   Zn3   2.068243 S    
C151  H15   1.073375 S    
C82   C90   1.412765 A    
C149  H13   1.077712 S    
N19   O85   1.301759 A    
C110  C118  1.379054 A    
C119  N11   1.439433 S    
C155  C163  1.388579 A    
O15   Zn4   2.109601 S    
C153  H17   1.077623 S    
O34   C182  1.224859 A    
C170  N22   1.434260 S    
O22   C14   1.296429 A    
C52   C74   1.423404 A    
O40   Zn9   1.993266 S    
C2    C126  1.462389 S    
C138  C146  1.412482 A    
C82   C93   1.415004 A    
N12   O71   1.302601 A    
C37   C41   1.408955 A    
C92   C180  1.401657 A    
N2    O52   1.300977 A    
C78   C142  1.429230 A    
C102  C110  1.430469 A    
C24   C38   1.408616 A    
N23   O94   1.301639 A    
C80   C88   1.408335 A    
C51   C59   1.422630 A    
C162  H34   1.081532 S    
C81   C89   1.411568 A    
O48   Zn9   1.994798 S    
C48   C70   1.422065 A    
C90   C98   1.426457 A    
O18   C10   1.296303 A    
C84   C92   1.399947 A    
O37   Zn9   1.983418 S    
N13   O73   1.302897 A    
C56   C61   1.379519 A    
C105  C145  1.410782 A    
C10   C57   1.471121 S    
C94   C161  1.405901 A    
C90   C178  1.405398 A    
N15   O77   1.302603 A    
C33   C43   1.408598 A    
O28   C4    1.304198 A    
C92   C100  1.408004 A    
C39   C42   1.401405 A    
C169  C177  1.405231 A    
C80   C99   1.420844 A    
C81   C94   1.415065 A    
C167  C175  1.411505 A    
C113  C121  1.394952 A    
C7    C131  1.485656 S    
C8    C132  1.469355 S    
C22   C30   1.407254 A    
O15   C15   1.254736 A    
C49   C75   1.427693 A    
C22   C40   1.412865 A    
C88   C96   1.426903 A    
O16   C16   1.255204 A    
C89   C97   1.424703 A    
C51   C73   1.424529 A    
O39   C187  1.220168 A    
C35   C44   1.401468 A    
O40   C188  1.230584 A    
C87   C95   1.425295 A    
C133  C165  1.426951 A    
O4    Zn4   2.015965 S    
O18   Zn2   2.014197 S    
O5    Zn5   2.020674 S    
N6    O59   1.301695 A    
C139  C147  1.416420 A    
C172  C180  1.402922 A    
C175  H23   1.081922 S    
N4    O55   1.301280 A    
C137  C169  1.426807 A    
C17   C35   1.413812 A    
O14   Zn1   2.103347 S    
O45   Zn9   2.002007 S    
C159  H31   1.083606 S    
C17   C25   1.409910 A    
C18   C75   1.425865 A    
C173  H21   1.081256 S    
C51   C68   1.405331 A    
C23   C37   1.400987 A    
C22   C71   1.426182 A    
O26   C2    1.288428 A    
O11   C11   1.255110 A    
C61   H9    1.084117 S    
C156  C164  1.397457 A    
C108  C148  1.400686 A    
C121  N13   1.439757 S    
C150  C158  1.396286 A    
N22   O92   1.301224 A    
O28   Zn7   2.068243 S    
O29   Zn2   2.068785 S    
C37   C39   1.407732 A    
C47   C66   1.405021 A    
H4    C29   1.076623 S    
C98   C157  1.405989 A    
C95   C164  1.400952 A    
O46   C188  1.268920 A    
O38   C186  1.220981 A    
N11   O70   1.301036 A    
O35   C183  1.220099 A    
O43   C181  1.270677 A    
C78   C97   1.415034 A    
C107  C155  1.414679 A    
C168  N20   1.441122 S    
C104  C112  1.434671 A    
N10   O67   1.302994 A    
N19   O86   1.301585 A    
C158  H30   1.081525 S    
N24   O96   1.299988 A    
N1    O50   1.298842 A    
C135  C167  1.430191 A    
N14   O76   1.301680 A    
C104  C152  1.415687 A    
O26   Zn5   2.068785 S    
C82   C146  1.429420 A    
C135  C143  1.413676 A    
O30   Zn1   2.068785 S    
C133  C141  1.413846 A    
C131  C139  1.448356 A    
C77   C141  1.430507 A    
C76   N8    1.441434 S    
C109  C117  1.395031 A    
C77   C98   1.414919 A    
O20   Zn4   2.020648 S    
C71   N3    1.436293 S    
O21   Zn5   2.014197 S    
O1    Zn1   2.020674 S    
N10   O68   1.301708 A    
N5    O58   1.298440 A    
O31   C7    1.302422 A    
O32   C8    1.292818 A    
O36   Zn11  1.993266 S    
O17   C9    1.299761 A    
C84   C95   1.415820 A    
C54   C62   1.372927 A    
C18   C36   1.412628 A    
C102  C142  1.408329 A    
O19   Zn3   2.020648 S    
C136  C144  1.416370 A    
C83   C96   1.420590 A    
O25   C1    1.298548 A    
C80   C144  1.434229 A    
C63   H11   1.084081 S    
C122  N14   1.441999 S    
N21   O89   1.301901 A    
O44   C182  1.268032 A    
C171  N23   1.440543 S    
N3    O54   1.301122 A    
C46   C72   1.424937 A    
