data_mof_unit_48597.cif
_audit_creation_date              2012-12-11T15:41:13-0500
_audit_creation_method            fapswitch 2.2
_symmetry_space_group_name_H-M    P1
_symmetry_Int_Tables_number       1
_space_group_crystal_system       triclinic
_cell_length_a                    19.088789
_cell_length_b                    10.964095
_cell_length_c                    18.844668
_cell_angle_alpha                 90.250574
_cell_angle_beta                  90.310063
_cell_angle_gamma                 90.192636
_cell_volume                      3943.90691421

loop_
_atom_site_label
_atom_site_type_symbol
_atom_type_description
_atom_site_fract_x
_atom_site_fract_y
_atom_site_fract_z
_atom_type_partial_charge
C1    C     C_R   0.725760 0.958404 0.854891 0.543667
C2    C     C_R   0.274226 0.958157 0.145152 0.545843
C3    C     C_R   0.225760 0.458404 0.854891 0.543667
C4    C     C_R   0.774226 0.458157 0.145152 0.545842
C5    C     C_R   0.696487 0.446423 0.037493 -0.048037
C6    C     C_R   0.303569 0.446803 0.962571 -0.048788
C7    C     C_R   0.196487 0.946424 0.037493 -0.048037
C8    C     C_R   0.803569 0.946804 0.962571 -0.048788
C9    C     C_R   0.691496 0.440647 0.963903 -0.021293
C10   C     C_R   0.308677 0.440476 0.036140 -0.021556
C11   C     C_R   0.191496 0.940647 0.963903 -0.021293
C12   C     C_R   0.808677 0.940476 0.036140 -0.021556
C13   C     C_R   0.815627 0.395297 0.957015 -0.031207
C14   C     C_R   0.184446 0.394707 0.042975 -0.031720
C15   C     C_R   0.315627 0.895298 0.957015 -0.031207
C16   C     C_R   0.684446 0.894706 0.042975 -0.031720
C17   C     C_R   0.817642 0.387957 0.030701 -0.134331
C18   C     C_R   0.182229 0.388298 0.969195 -0.133148
C19   C     C_R   0.317642 0.887958 0.030701 -0.134331
C20   C     C_R   0.682229 0.888298 0.969195 -0.133148
C21   C     C_3   0.650326 0.555420 0.042560 -0.229186
C22   C     C_3   0.350106 0.555828 0.958185 -0.228554
C23   C     C_3   0.150327 0.055421 0.042560 -0.229186
C24   C     C_3   0.850105 0.055829 0.958185 -0.228553
C25   C     C_3   0.645632 0.551199 0.962161 -0.095429
C26   C     C_3   0.354951 0.551067 0.038565 -0.094940
C27   C     C_3   0.145633 0.051200 0.962161 -0.095430
C28   C     C_3   0.854951 0.051067 0.038565 -0.094940
C29   C     C_R   0.750810 0.417941 0.922410 -0.032201
C30   C     C_R   0.249386 0.417287 0.077642 -0.032013
C31   C     C_R   0.250810 0.917941 0.922410 -0.032201
C32   C     C_R   0.749386 0.917287 0.077642 -0.032013
C33   C     C_R   0.450422 0.174327 0.437269 0.002014
C34   C     C_R   0.490719 0.171526 0.579515 -0.002344
C35   C     C_R   0.950424 0.674324 0.437269 0.002009
C36   C     C_R   0.990723 0.671522 0.579514 -0.002348
C37   C     C_R   0.469504 0.281226 0.471666 0.023498
C38   C     C_R   0.490793 0.278684 0.540472 0.064147
C39   C     C_R   0.969506 0.781224 0.471666 0.023465
C40   C     C_R   0.990795 0.778681 0.540472 0.064144
C41   C     C_R   0.463556 0.064638 0.548644 -0.173043
C42   C     C_R   0.444778 0.065665 0.476492 -0.158769
C43   C     C_R   0.963565 0.564631 0.548641 -0.173047
C44   C     C_R   0.944783 0.565659 0.476490 -0.158765
C45   C     C_R   0.530180 0.177917 0.850851 0.540701
C46   C     C_R   0.469957 0.177794 0.149239 0.549763
C47   C     C_R   0.030180 0.677917 0.850851 0.540702
C48   C     C_R   0.969957 0.677794 0.149239 0.549763
C49   C     C_3   0.525862 0.369466 0.451610 -0.240314
C50   C     C_3   0.550663 0.363660 0.527315 -0.216794
C51   C     C_3   0.025863 0.869466 0.451609 -0.240294
C52   C     C_3   0.050664 0.863660 0.527314 -0.216769
C53   C     C_R   0.756863 0.435588 0.428635 -0.027716
C54   C     C_R   0.243318 0.415118 0.575538 -0.036670
C55   C     C_R   0.256863 0.935592 0.428636 -0.027712
C56   C     C_R   0.743314 0.915131 0.575536 -0.036663
C57   C     C_R   0.809901 0.378409 0.466242 -0.005616
C58   C     C_R   0.186303 0.381519 0.532501 0.060555
C59   C     C_R   0.309901 0.878415 0.466243 -0.005620
C60   C     C_R   0.686293 0.881580 0.532497 0.060591
C61   C     C_R   0.810005 0.370936 0.538476 -0.006320
C62   C     C_R   0.191666 0.375110 0.460162 0.078075
C63   C     C_R   0.310006 0.870942 0.538477 -0.006326
C64   C     C_R   0.691662 0.875150 0.460157 0.078123
C65   C     C_R   0.705651 0.491261 0.543594 -0.132372
C66   C     C_R   0.313767 0.428050 0.468958 -0.145943
C67   C     C_R   0.205650 0.991262 0.543595 -0.132366
C68   C     C_R   0.813773 0.928017 0.468963 -0.145946
C69   C     C_R   0.704780 0.499777 0.468616 -0.013717
C70   C     C_R   0.309231 0.432399 0.543607 -0.038119
C71   C     C_R   0.204778 0.999779 0.468617 -0.013702
C72   C     C_R   0.809232 0.932381 0.543610 -0.038127
C73   C     C_3   0.841995 0.256251 0.455895 -0.258631
C74   C     C_3   0.115049 0.437478 0.527494 -0.232332
C75   C     C_3   0.341997 0.756259 0.455896 -0.258628
C76   C     C_3   0.615066 0.937634 0.527481 -0.232328
C77   C     C_3   0.842160 0.247020 0.535929 -0.213310
C78   C     C_3   0.121513 0.430532 0.447765 -0.261416
C79   C     C_3   0.342163 0.747029 0.535930 -0.213308
C80   C     C_3   0.621533 0.930659 0.447753 -0.261426
C81   C     C_R   0.754548 0.416678 0.578045 -0.015438
C82   C     C_R   0.253996 0.402535 0.426814 -0.031528
C83   C     C_R   0.254547 0.916681 0.578046 -0.015441
C84   C     C_R   0.754002 0.902521 0.426816 -0.031520
C85   C     C_R   0.739033 0.366429 0.851790 0.523652
C86   C     C_R   0.261048 0.366247 0.148189 0.525900
C87   C     C_R   0.239033 0.866429 0.851790 0.523651
C88   C     C_R   0.761048 0.866247 0.148189 0.525902
C89   C     C_R   0.727237 0.955480 0.647268 0.517465
C90   C     C_R   0.272571 0.958861 0.353928 0.522256
C91   C     C_R   0.227237 0.455478 0.647268 0.517467
C92   C     C_R   0.772571 0.458860 0.353927 0.522255
C93   C     C_R   0.528519 0.176106 0.645801 0.528093
C94   C     C_R   0.436450 0.180643 0.362200 0.557616
C95   C     C_R   0.028521 0.676105 0.645800 0.528096
C96   C     C_R   0.936450 0.680642 0.362200 0.557608
C97   C     C_R   0.739923 0.363111 0.646939 0.531263
C98   C     C_R   0.261364 0.361713 0.354032 0.535334
C99   C     C_R   0.239923 0.863111 0.646939 0.531264
C100  C     C_R   0.761369 0.861697 0.354036 0.535353
C101  C     C_2   0.497819 0.169976 0.920805 -0.140071
C102  C     C_2   0.502608 0.169705 0.079432 -0.140373
C103  C     C_2   0.997819 0.669976 0.920805 -0.140071
C104  C     C_2   0.002608 0.669705 0.079432 -0.140373
C105  C     C_2   0.490933 0.072617 0.037554 -0.134849
C106  C     C_2   0.509404 0.072870 0.962173 -0.133785
C107  C     C_2   0.990933 0.572617 0.037554 -0.134848
C108  C     C_2   0.009404 0.572870 0.962173 -0.133785
C109  C     C_R   0.759733 0.421836 0.072060 -0.010771
C110  C     C_R   0.240186 0.422478 0.927928 -0.010488
C111  C     C_R   0.259733 0.921837 0.072060 -0.010771
C112  C     C_R   0.740186 0.922478 0.927928 -0.010487
Cr1   Cr    Cr6+3 0.769260 0.163750 0.750730 1.032827
Cr2   Cr    Cr6+3 0.230740 0.163750 0.249270 1.025220
Cr3   Cr    Cr6+3 0.269260 0.663750 0.750730 1.032826
Cr4   Cr    Cr6+3 0.730740 0.663750 0.249270 1.025235
Cr5   Cr    Cr6+3 0.612640 0.009910 0.748780 1.043460
Cr6   Cr    Cr6+3 0.387360 0.009910 0.251220 1.038744
Cr7   Cr    Cr6+3 0.112640 0.509910 0.748780 1.043451
Cr8   Cr    Cr6+3 0.887360 0.509910 0.251220 1.038739
Cr9   Cr    Cr6+3 0.614190 0.322400 0.747710 1.058902
Cr10  Cr    Cr6+3 0.385810 0.322400 0.252290 1.045666
Cr11  Cr    Cr6+3 0.114190 0.822400 0.747710 1.058903
Cr12  Cr    Cr6+3 0.885810 0.822400 0.252290 1.045663
H1    H     H_    0.467390 0.990551 0.058742 0.206869
H2    H     H_    0.532795 0.990985 0.940518 0.207058
H3    H     H_    0.967390 0.490551 0.058741 0.206869
H4    H     H_    0.032795 0.490985 0.940518 0.207058
H5    H     H_    0.004031 0.959758 0.436757 0.188079
H6    H     H_    0.102085 0.817227 0.533071 0.118541
H7    H     H_    0.504031 0.459759 0.436758 0.188064
H8    H     H_    0.602084 0.317225 0.533071 0.118535
H9    H     H_    0.564432 0.330822 0.413646 0.132480
H10   H     H_    0.545975 0.451416 0.556391 0.220799
H11   H     H_    0.064434 0.830823 0.413645 0.132486
H12   H     H_    0.045974 0.951416 0.556390 0.220817
H13   H     H_    0.663943 0.531879 0.574343 0.170592
H14   H     H_    0.363970 0.442322 0.443899 0.173993
H15   H     H_    0.163941 0.031877 0.574345 0.170599
H16   H     H_    0.863980 0.942265 0.443906 0.173990
H17   H     H_    0.895481 0.261596 0.433081 0.159443
H18   H     H_    0.114446 0.532869 0.547559 0.138364
H19   H     H_    0.395483 0.761606 0.433081 0.159448
H20   H     H_    0.614504 0.033033 0.547537 0.138307
H21   H     H_    0.805788 0.190446 0.429432 0.138820
H22   H     H_    0.073836 0.376206 0.548899 0.174356
H23   H     H_    0.305791 0.690452 0.429434 0.138818
H24   H     H_    0.573826 0.876422 0.548890 0.174320
H25   H     H_    0.805731 0.175989 0.555484 0.180256
H26   H     H_    0.083859 0.365640 0.422767 0.187133
H27   H     H_    0.305734 0.675997 0.555485 0.180261
H28   H     H_    0.583852 0.865808 0.422759 0.187082
H29   H     H_    0.895601 0.247324 0.559629 0.188088
H30   H     H_    0.124535 0.521560 0.422069 0.120271
H31   H     H_    0.395604 0.747336 0.559630 0.188092
H32   H     H_    0.624594 0.021676 0.422047 0.120257
H33   H     H_    0.528024 0.250565 0.058329 0.098486
H34   H     H_    0.472549 0.250662 0.942325 0.097776
H35   H     H_    0.028024 0.750565 0.058329 0.098487
H36   H     H_    0.972549 0.750662 0.942324 0.097776
H37   H     H_    0.867417 0.367786 0.055677 0.193966
H38   H     H_    0.132327 0.368333 0.944166 0.194955
H39   H     H_    0.367417 0.867788 0.055677 0.193966
H40   H     H_    0.632327 0.868333 0.944166 0.194954
H41   H     H_    0.178719 0.137208 0.062406 0.186106
H42   H     H_    0.821934 0.137642 0.938910 0.185871
H43   H     H_    0.678718 0.637207 0.062406 0.186107
H44   H     H_    0.321935 0.637641 0.938909 0.185872
H45   H     H_    0.600560 0.534665 0.070533 0.173746
H46   H     H_    0.399736 0.535262 0.929961 0.174463
H47   H     H_    0.100560 0.034667 0.070533 0.173748
H48   H     H_    0.899736 0.035264 0.929961 0.174463
H49   H     H_    0.671056 0.630387 0.935842 0.150526
H50   H     H_    0.329889 0.630090 0.065510 0.150444
H51   H     H_    0.171057 0.130387 0.935842 0.150526
H52   H     H_    0.829889 0.130090 0.065510 0.150444
H53   H     H_    0.462595 0.979864 0.577857 0.131200
H54   H     H_    0.431125 0.981224 0.450319 0.149370
H55   H     H_    0.962610 0.479853 0.577852 0.131206
H56   H     H_    0.931131 0.481218 0.450317 0.149372
O1    O     O_R   0.784290 0.290360 0.830540 -0.528938
O2    O     O_R   0.215710 0.290360 0.169460 -0.530633
O3    O     O_R   0.284290 0.790360 0.830540 -0.528938
O4    O     O_R   0.715710 0.790360 0.169460 -0.530632
O5    O     O_R   0.554690 0.080440 0.673480 -0.513368
O6    O     O_R   0.445310 0.080440 0.326520 -0.506848
O7    O     O_R   0.054690 0.580440 0.673480 -0.513377
O8    O     O_R   0.945310 0.580440 0.326520 -0.506847
O9    O     O_R   0.543980 0.282110 0.666770 -0.512533
O10   O     O_R   0.456020 0.282110 0.333230 -0.524949
O11   O     O_R   0.043980 0.782110 0.666770 -0.512529
O12   O     O_R   0.956020 0.782110 0.333230 -0.524952
O13   O     O_R   0.679070 0.374030 0.674430 -0.509356
O14   O     O_R   0.320930 0.374030 0.325570 -0.526016
O15   O     O_R   0.179070 0.874030 0.674430 -0.509357
O16   O     O_R   0.820930 0.874030 0.325570 -0.526028
O17   O     O_3   0.665360 0.165350 0.749070 -0.257993
O18   O     O_3   0.334640 0.165350 0.250930 -0.276066
O19   O     O_3   0.165360 0.665350 0.749070 -0.257990
O20   O     O_3   0.834640 0.665350 0.250930 -0.276072
O21   O     O_R   0.762610 0.041070 0.825230 -0.497370
O22   O     O_R   0.237390 0.041070 0.174770 -0.496333
O23   O     O_R   0.262610 0.541070 0.825230 -0.497370
O24   O     O_R   0.737390 0.541070 0.174770 -0.496334
O25   O     O_R   0.667390 0.924160 0.829970 -0.515071
O26   O     O_R   0.332610 0.924160 0.170030 -0.514887
O27   O     O_R   0.167390 0.424160 0.829970 -0.515070
O28   O     O_R   0.832610 0.424160 0.170030 -0.514888
O29   O     O_R   0.553980 0.081420 0.821780 -0.497378
O30   O     O_R   0.446020 0.081420 0.178220 -0.492246
O31   O     O_R   0.053980 0.581420 0.821780 -0.497376
O32   O     O_R   0.946020 0.581420 0.178220 -0.492245
O33   O     O_R   0.543210 0.283170 0.826740 -0.499462
O34   O     O_R   0.456790 0.283170 0.173260 -0.496636
O35   O     O_R   0.043210 0.783170 0.826740 -0.499462
O36   O     O_R   0.956790 0.783170 0.173260 -0.496635
O37   O     O_R   0.678350 0.375000 0.822720 -0.479376
O38   O     O_R   0.321650 0.375000 0.177280 -0.479261
O39   O     O_R   0.178350 0.875000 0.822720 -0.479377
O40   O     O_R   0.821650 0.875000 0.177280 -0.479260
O41   O     O_R   0.785060 0.289300 0.670580 -0.516569
O42   O     O_R   0.214940 0.289300 0.329420 -0.503011
O43   O     O_R   0.285060 0.789300 0.670580 -0.516571
O44   O     O_R   0.714940 0.789300 0.329420 -0.502992
O45   O     O_R   0.763330 0.040090 0.676940 -0.515968
O46   O     O_R   0.236670 0.040090 0.323060 -0.524348
O47   O     O_R   0.263330 0.540090 0.676940 -0.515966
O48   O     O_R   0.736670 0.540090 0.323060 -0.524341
O49   O     O_R   0.668160 0.923110 0.670000 -0.503612
O50   O     O_R   0.331840 0.923110 0.330000 -0.514536
O51   O     O_R   0.168160 0.423110 0.670000 -0.503628
O52   O     O_R   0.831840 0.423110 0.330000 -0.514537
C113  C     C_2   0.645350 0.565664 0.435084 0.227337
H57   H     H_    0.629966 0.548228 0.380634 0.138514
O53   O     O_2   0.609708 0.636426 0.469541 -0.550253
C114  C     C_2   0.372170 0.459187 0.587099 0.226656
H58   H     H_    0.375141 0.429334 0.641842 0.132245
O54   O     O_2   0.420977 0.516927 0.562593 -0.555821
C115  C     C_2   0.145345 0.065660 0.435085 0.227299
H59   H     H_    0.129972 0.048247 0.380629 0.138534
O55   O     O_2   0.109682 0.136385 0.469552 -0.550333
C116  C     C_2   0.872168 0.959166 0.587105 0.226661
H60   H     H_    0.875136 0.929310 0.641847 0.132243
O56   O     O_2   0.920975 0.016910 0.562602 -0.555813
C117  C     C_2   0.882258 0.381282 0.917330 0.236556
H61   H     H_    0.887785 0.421313 0.865071 0.126235
O57   O     O_2   0.931208 0.323763 0.942186 -0.479199
C118  C     C_2   0.117830 0.380248 0.082658 0.236171
H62   H     H_    0.112525 0.419725 0.135267 0.127577
O58   O     O_2   0.068585 0.323122 0.057350 -0.478351
C119  C     C_2   0.382259 0.881282 0.917330 0.236556
H63   H     H_    0.387785 0.921313 0.865071 0.126235
O59   O     O_2   0.431208 0.823764 0.942186 -0.479201
C120  C     C_2   0.617830 0.880247 0.082658 0.236171
H64   H     H_    0.612525 0.919725 0.135267 0.127578
O60   O     O_2   0.568585 0.823121 0.057350 -0.478352
C121  C     C_2   0.573453 0.522677 0.934645 0.301030
H65   H     H_    0.545260 0.443379 0.953721 0.081594
O61   O     O_2   0.546142 0.588462 0.890449 -0.469739
C122  C     C_2   0.427076 0.522368 0.065722 0.300079
H66   H     H_    0.454881 0.443082 0.046094 0.081480
O62   O     O_2   0.454772 0.587964 0.110265 -0.472873
C123  C     C_2   0.073454 0.022680 0.934645 0.301032
H67   H     H_    0.045260 0.943382 0.953721 0.081596
O63   O     O_2   0.046143 0.088465 0.890449 -0.469739
C124  C     C_2   0.927076 0.022368 0.065722 0.300079
H68   H     H_    0.954880 0.943082 0.046093 0.081482
O64   O     O_2   0.954773 0.087963 0.110263 -0.472876

loop_
_geom_bond_atom_site_label_1
_geom_bond_atom_site_label_2
_ccdc_geom_bond_type
Cr8   O32   S    
C13   C117  S    
C4    C109  S    
C48   O36   A    
C58   C62   A    
C75   H19   S    
C47   O31   A    
C93   O5    A    
C3    O23   A    
C41   C42   A    
C96   O8    A    
C39   C51   S    
C115  H59   S    
C2    O22   A    
C34   C93   S    
Cr12  O12   S    
C43   C44   A    
C53   C69   A    
C33   C94   S    
Cr8   O52   S    
Cr12  O40   S    
C51   H5    S    
C9    C25   S    
C123  H67   S    
C63   C79   S    
C35   C96   S    
C118  H62   S    
C67   C83   A    
C49   H7    S    
Cr9   O33   S    
Cr11  O35   S    
C37   C38   A    
C81   C97   S    
Cr4   O48   S    
Cr7   O19   S    
C33   C42   A    
C114  O54   D    
C13   C29   A    
Cr6   O26   S    
C22   H44   S    
C55   C90   S    
Cr5   O25   S    
C87   O39   A    
C8    C112  A    
C1    C112  S    
C87   O3    A    
Cr4   O20   S    
C7    C23   S    
C103  H36   S    
C119  O59   D    
Cr2   O46   S    
C100  O44   A    
C3    C110  S    
C97   O13   A    
C66   H14   S    
C48   C104  S    
C99   O15   A    
C65   C69   A    
C124  O64   D    
C92   O48   A    
C28   C124  S    
C114  H58   S    
C98   O14   A    
C102  C105  D    
C123  O63   D    
C121  H65   S    
C86   O38   A    
C57   C73   S    
C90   O46   A    
C85   O37   A    
C64   C84   A    
C69   C113  S    
C77   H29   S    
Cr4   O44   S    
C15   C19   A    
C51   H11   S    
C18   H38   S    
Cr1   O1    S    
C48   O32   A    
C118  O58   D    
C56   C72   A    
C49   H9    S    
C47   O35   A    
C120  O60   D    
C107  C108  S    
Cr2   O22   S    
Cr10  O34   S    
C4    O28   A    
C103  C108  D    
C2    O26   A    
Cr1   O21   S    
C8    C12   A    
C30   C86   S    
C67   H15   S    
C113  H57   S    
C98   O42   A    
C29   C85   S    
Cr7   O51   S    
C17   H37   S    
C25   C121  S    
C10   C26   S    
C26   H50   S    
C74   H18   S    
C1    O21   A    
C83   C99   S    
C117  H61   S    
C12   C32   A    
Cr3   O23   S    
C64   C80   S    
C44   H56   S    
C34   C41   A    
C16   C120  S    
C14   C30   A    
Cr8   O8    S    
C102  H33   S    
Cr9   O13   S    
Cr4   O24   S    
C4    O24   A    
C74   H22   S    
C60   C64   A    
C7    C11   A    
C14   C118  S    
C23   C27   S    
C100  O16   A    
Cr6   O6    S    
C27   H51   S    
Cr10  O10   S    
C99   O43   A    
C2    C111  S    
C31   C87   S    
C82   C98   S    
C95   O7    A    
C51   C52   S    
C68   C84   A    
C94   O6    A    
C36   C40   A    
C47   C103  S    
C119  H63   S    
C50   H10   S    
C77   H25   S    
C116  O56   D    
C53   C57   A    
C78   H30   S    
C73   H17   S    
C7    C111  A    
C75   H23   S    
C42   H54   S    
C40   C52   S    
C106  H2    S    
Cr3   O19   S    
Cr11  O39   S    
C60   C76   S    
C33   C37   A    
C56   C60   A    
C73   H21   S    
C68   C72   A    
C121  O61   D    
Cr8   O28   S    
C55   C71   A    
C6    C110  A    
C35   C39   A    
Cr2   O2    S    
C94   O10   A    
Cr3   O47   S    
C120  H64   S    
C72   C116  S    
C66   C82   A    
C46   C102  S    
C63   C83   A    
C10   C30   A    
Cr1   O45   S    
C54   C70   A    
C11   C27   S    
C16   C20   A    
C27   C123  S    
Cr12  O16   S    
C53   C92   S    
C54   C58   A    
C116  H60   S    
C26   C122  S    
C115  O55   D    
C78   H26   S    
C70   C114  S    
Cr10  O18   S    
C57   C61   A    
C35   C44   A    
C113  O53   D    
Cr9   O17   S    
C37   C49   S    
C22   H46   S    
C50   H8    S    
C76   H20   S    
C122  O62   D    
C56   C89   S    
C12   C28   S    
C101  H34   S    
C19   C111  A    
C45   C101  S    
Cr2   O18   S    
C52   H12   S    
C59   C63   A    
C68   H16   S    
C32   C88   S    
Cr7   O27   S    
C104  H35   S    
Cr11  O11   S    
Cr6   O18   S    
C59   C75   S    
C46   O30   A    
C39   C40   A    
C80   H32   S    
Cr5   O17   S    
C55   C59   A    
C58   C74   S    
C24   C28   S    
C79   H27   S    
Cr12  O36   S    
Cr11  O19   S    
C101  C106  D    
C80   H28   S    
C61   C77   S    
C21   C25   S    
C19   H39   S    
C85   O1    A    
C93   O9    A    
Cr10  O38   S    
C91   O47   A    
C20   H40   S    
C34   C38   A    
Cr9   O37   S    
C14   C18   A    
C62   C78   S    
C28   H52   S    
C76   C80   S    
C89   O45   A    
C122  H66   S    
C17   C109  A    
C43   H55   S    
C6    C10   A    
C84   C100  S    
Cr3   O3    S    
C15   C31   A    
Cr1   O41   S    
C38   C50   S    
C95   O11   A    
C16   C32   A    
C79   H31   S    
C105  C106  S    
Cr12  O20   S    
Cr7   O31   S    
C21   H43   S    
C13   C17   A    
C107  H3    S    
Cr6   O30   S    
C3    O27   A    
C105  H1    S    
C117  O57   D    
C9    C29   A    
C65   H13   S    
C54   C91   S    
C61   C81   A    
Cr9   O9    S    
C52   H6    S    
Cr11  O15   S    
C36   C95   S    
C96   O12   A    
C66   C70   A    
C15   C119  S    
Cr6   O50   S    
C41   H53   S    
C21   H45   S    
Cr4   O4    S    
C5    C109  A    
Cr5   O29   S    
C1    O25   A    
Cr8   O20   S    
C97   O41   A    
Cr1   O17   S    
C67   C71   A    
C25   H49   S    
C62   C82   A    
C24   H42   S    
C24   H48   S    
C45   O29   A    
Cr5   O49   S    
Cr10  O14   S    
C88   O4    A    
C124  H68   S    
Cr3   O43   S    
C11   C31   A    
C88   O40   A    
C5    C21   S    
C8    C24   S    
C76   H24   S    
C73   C77   S    
C18   C110  A    
C49   C50   S    
C22   C26   S    
C20   C112  A    
C91   O51   A    
C86   O2    A    
C23   H41   S    
C92   O52   A    
C65   C81   A    
C90   O50   A    
C36   C43   A    
Cr5   O5    S    
C5    C9    A    
C108  H4    S    
Cr7   O7    S    
C89   O49   A    
C75   C79   S    
C104  C107  D    
C46   O34   A    
C45   O33   A    
C71   C115  S    
C74   C78   S    
Cr2   O42   S    
C23   H47   S    
C6    C22   S    
