data_mof_unit_8811.cif
_audit_creation_date              2012-12-11T16:24:13-0500
_audit_creation_method            fapswitch 2.2
_symmetry_space_group_name_H-M    P1
_symmetry_Int_Tables_number       1
_space_group_crystal_system       triclinic
_cell_length_a                    14.728928
_cell_length_b                    14.736491
_cell_length_c                    33.272664
_cell_angle_alpha                 95.992738
_cell_angle_beta                  96.143609
_cell_angle_gamma                 61.196187
_cell_volume                      6280.45961796

loop_
_atom_site_label
_atom_site_type_symbol
_atom_type_description
_atom_site_fract_x
_atom_site_fract_y
_atom_site_fract_z
_atom_type_partial_charge
C1    C     C_R   0.391826 0.698310 0.445691 0.542058
C2    C     C_R   0.335647 0.344765 0.309559 0.015249
C3    C     C_R   0.410582 0.260454 0.330309 -0.109818
C4    C     C_R   0.419450 0.263960 0.372592 -0.000334
C5    C     C_R   0.403784 0.282099 0.162818 -0.088346
C6    C     C_R   0.392137 0.270054 0.120292 0.013153
C7    C     C_R   0.205441 0.343729 0.125711 -0.137997
C8    C     C_R   0.218326 0.358091 0.167455 -0.120474
C9    C     C_R   0.317496 0.324396 0.186167 0.023557
C10   C     C_1   0.329502 0.330351 0.229561 -0.026977
C11   C     C_1   0.334442 0.336142 0.265990 -0.027766
C12   C     C_R   0.403303 0.384621 0.434619 0.532848
C13   C     C_R   0.291621 0.295741 0.101712 0.025902
C14   C     C_R   0.751039 0.376900 0.408626 0.000870
C15   C     C_R   0.786466 0.438004 0.392775 -0.112996
C16   C     C_R   0.812259 0.422484 0.352159 0.010114
C17   C     C_R   0.799160 0.344666 0.327223 0.036943
C18   C     C_R   0.773156 0.277890 0.344383 -0.133510
C19   C     C_R   0.749479 0.293653 0.384675 -0.139922
C20   C     C_R   0.812723 0.317974 0.201299 0.341388
C21   C     C_R   0.805530 0.334957 0.282961 0.334080
C22   C     C_R   0.818096 0.394526 0.138814 -0.126107
C23   C     C_R   0.699875 0.410559 0.447162 0.540059
C24   C     C_R   0.855195 0.381467 0.100701 -0.138511
C25   C     C_R   0.905672 0.198396 0.098221 -0.135705
C26   C     C_R   0.869405 0.211280 0.136513 -0.127737
C27   C     C_R   0.829658 0.308539 0.157893 0.030903
C28   C     C_R   0.903419 0.282458 0.080891 0.019053
C29   C     C_R   0.378006 0.744441 0.406892 0.005820
C30   C     C_R   0.283828 0.779780 0.383431 -0.145425
C31   C     C_R   0.279239 0.799304 0.342977 -0.142989
C32   C     C_R   0.368826 0.782320 0.325287 0.048464
C33   C     C_R   0.463689 0.749355 0.348929 0.017360
C34   C     C_R   0.393078 0.702239 0.561052 0.538847
C35   C     C_R   0.466063 0.734143 0.389852 -0.114949
C36   C     C_R   0.361591 0.809172 0.201521 0.337706
C37   C     C_R   0.362625 0.794803 0.281949 0.335127
C38   C     C_R   0.263971 0.828956 0.135390 -0.134791
C39   C     C_R   0.237671 0.865688 0.096797 -0.140836
C40   C     C_R   0.392552 0.884938 0.100562 -0.113533
C41   C     C_R   0.420294 0.847972 0.139535 0.017462
C42   C     C_R   0.351821 0.824931 0.157993 0.043580
C43   C     C_R   0.299022 0.898814 0.079922 0.005143
C44   C     C_R   0.368246 0.366754 0.583573 0.019713
C45   C     C_R   0.406857 0.388486 0.548755 0.539369
C46   C     C_R   0.280865 0.445634 0.602285 -0.135663
C47   C     C_R   0.257935 0.432978 0.640210 -0.126052
C48   C     C_R   0.322008 0.341234 0.659915 0.033066
C49   C     C_R   0.403151 0.258780 0.639371 -0.125628
C50   C     C_R   0.426171 0.271494 0.601545 -0.138271
C51   C     C_R   0.309593 0.332927 0.784309 0.345129
C52   C     C_R   0.312489 0.335593 0.703080 0.345607
C53   C     C_R   0.224309 0.405299 0.849761 -0.098677
C54   C     C_R   0.215491 0.394922 0.890631 0.005108
C55   C     C_R   0.378925 0.232995 0.888363 -0.143329
C56   C     C_R   0.702602 0.412822 0.562409 0.535585
C57   C     C_R   0.387609 0.246507 0.848661 -0.131714
C58   C     C_R   0.307683 0.329340 0.828285 0.016444
C59   C     C_R   0.290010 0.301900 0.908913 0.019686
C60   C     C_R   0.756771 0.377272 0.602352 0.029408
C61   C     C_R   0.821804 0.414872 0.624168 0.009349
C62   C     C_R   0.851617 0.392394 0.665086 -0.100802
C63   C     C_R   0.819824 0.332600 0.683717 0.022785
C64   C     C_R   0.762954 0.289616 0.661503 -0.125034
C65   C     C_R   0.732071 0.311297 0.621232 -0.144705
C66   C     C_R   0.867880 0.226262 0.822755 -0.099553
C67   C     C_R   0.360661 0.360016 0.394362 0.016638
C68   C     C_R   0.888567 0.213650 0.864746 0.003016
C69   C     C_R   0.894632 0.377364 0.871989 -0.121795
C70   C     C_R   0.873151 0.389611 0.830462 0.029072
C71   C     C_R   0.863504 0.311114 0.805660 0.030054
C72   C     C_1   0.849941 0.315675 0.762471 -0.031583
C73   C     C_1   0.838116 0.321828 0.726435 -0.031512
C74   C     C_R   0.909412 0.287508 0.889315 0.001044
C75   C     C_R   0.378130 0.753989 0.602172 0.034773
C76   C     C_R   0.278851 0.823749 0.616636 0.012842
C77   C     C_R   0.271095 0.850919 0.658445 -0.096231
C78   C     C_R   0.269572 0.438065 0.374136 0.023414
C79   C     C_R   0.359414 0.811419 0.685227 0.025579
C80   C     C_R   0.457165 0.749181 0.670575 -0.122528
C81   C     C_R   0.466566 0.721080 0.629449 -0.142937
C82   C     C_R   0.395371 0.884963 0.832408 -0.113648
C83   C     C_R   0.376199 0.912454 0.873260 -0.128713
C84   C     C_R   0.227841 0.881010 0.863144 -0.128724
C85   C     C_R   0.247237 0.853557 0.822338 -0.111814
C86   C     C_R   0.329209 0.858279 0.806750 0.039987
C87   C     C_1   0.341199 0.842022 0.764026 -0.024202
C88   C     C_1   0.349511 0.829228 0.728073 -0.024197
C89   C     C_R   0.259967 0.432453 0.330821 0.040546
C90   C     C_R   0.290172 0.913967 0.888742 0.020181
C91   C     C_R   0.963012 0.264301 0.045428 0.543873
C92   C     C_R   0.273614 0.260582 0.059708 0.531705
C93   C     C_R   0.259389 0.959233 0.043663 0.546740
C94   C     C_R   0.961752 0.268020 0.930716 0.536179
C95   C     C_R   0.271001 0.264597 0.945297 0.535621
C96   C     C_R   0.256162 0.964959 0.928965 0.543913
Cr1   Cr    Cr6+3 0.576280 0.580550 0.506370 0.998249
Cr2   Cr    Cr6+3 0.346780 0.572400 0.496520 0.991243
Cr3   Cr    Cr6+3 0.576960 0.347070 0.497150 0.999397
Cr4   Cr    Cr6+3 0.087320 0.083240 0.984860 0.998635
Cr5   Cr    Cr6+3 0.087720 0.316210 0.996740 0.998824
Cr6   Cr    Cr6+3 0.317350 0.090340 0.995890 1.003496
H1    H     H_    0.722930 0.244960 0.396159 0.131275
H2    H     H_    0.851210 0.447863 0.087766 0.126332
H3    H     H_    0.764707 0.217055 0.325879 0.129542
H4    H     H_    0.786648 0.470802 0.154321 0.130273
H5    H     H_    0.941700 0.121234 0.083471 0.129372
H6    H     H_    0.877727 0.143939 0.150209 0.131263
H7    H     H_    0.215080 0.787634 0.395761 0.121996
H8    H     H_    0.539950 0.705006 0.407391 0.133606
H9    H     H_    0.206332 0.824330 0.324991 0.123769
H10   H     H_    0.211104 0.810688 0.148651 0.134862
H11   H     H_    0.493064 0.208776 0.587533 0.125874
H12   H     H_    0.193871 0.497355 0.655021 0.129590
H13   H     H_    0.452835 0.186329 0.653434 0.132335
H14   H     H_    0.462450 0.190754 0.313246 0.119089
H15   H     H_    0.164461 0.470483 0.833955 0.133729
H16   H     H_    0.439315 0.163608 0.901890 0.132246
H17   H     H_    0.454770 0.188448 0.833305 0.133053
H18   H     H_    0.857633 0.168851 0.802641 0.119004
H19   H     H_    0.906108 0.436518 0.890441 0.128133
H20   H     H_    0.897645 0.423480 0.682851 0.108279
H21   H     H_    0.425393 0.937806 0.892120 0.124178
H22   H     H_    0.459259 0.888431 0.820536 0.109982
H23   H     H_    0.525956 0.718757 0.691167 0.115707
H24   H     H_    0.543242 0.667931 0.619403 0.136148
H25   H     H_    0.160956 0.881480 0.874094 0.121570
H26   H     H_    0.150995 0.391593 0.185353 0.116657
H27   H     H_    0.788849 0.500861 0.411879 0.132177
N1    N     N_R   0.769679 0.412518 0.221493 -0.241733
N2    N     N_R   0.238659 0.416969 0.724186 -0.240521
N3    N     N_R   0.384273 0.252775 0.723359 -0.238008
N4    N     N_R   0.382611 0.251314 0.763104 -0.236084
N5    N     N_R   0.765355 0.420776 0.261475 -0.249242
N6    N     N_R   0.846037 0.240355 0.262734 -0.231999
N7    N     N_R   0.850190 0.232027 0.222679 -0.233983
N8    N     N_R   0.326286 0.749176 0.215375 -0.233973
N9    N     N_R   0.327172 0.741770 0.254933 -0.236239
N10   N     N_R   0.396103 0.856204 0.268246 -0.240402
N11   N     N_R   0.394704 0.863891 0.228732 -0.241767
N12   N     N_R   0.236863 0.415415 0.764012 -0.243746
O1    O     O_R   0.679450 0.499830 0.463150 -0.527054
O2    O     O_R   0.356040 0.477400 0.534170 -0.504015
O3    O     O_R   0.495910 0.323070 0.537100 -0.525855
O4    O     O_R   0.663920 0.359620 0.542290 -0.504043
O5    O     O_3   0.500010 0.500010 0.500010 -0.225540
O6    O     O_R   0.170070 0.978950 0.027680 -0.519721
O7    O     O_R   0.001760 0.175230 0.026640 -0.502226
O8    O     O_R   0.984760 0.333570 0.037150 -0.520709
O9    O     O_R   0.183410 0.309240 0.041890 -0.501727
O10   O     O_R   0.340240 0.172500 0.045430 -0.522655
O11   O     O_R   0.309670 0.000990 0.032050 -0.500918
O12   O     O_R   0.480650 0.664000 0.464630 -0.504057
O13   O     O_R   0.168330 0.982130 0.939200 -0.527384
O14   O     O_R   0.000140 0.178170 0.944610 -0.507956
O15   O     O_R   0.983010 0.336750 0.948660 -0.527385
O16   O     O_R   0.181800 0.312190 0.959860 -0.509007
O17   O     O_R   0.338500 0.175680 0.956950 -0.523359
O18   O     O_R   0.308050 0.003930 0.950020 -0.500814
O19   O     O_3   0.164130 0.163270 0.992500 -0.226550
O20   O     O_R   0.323930 0.675950 0.455370 -0.525866
O21   O     O_R   0.354700 0.475360 0.451930 -0.503132
O22   O     O_R   0.494470 0.320860 0.448390 -0.526143
O23   O     O_R   0.662580 0.357570 0.460050 -0.497201
O24   O     O_R   0.680900 0.502040 0.551870 -0.524524
O25   O     O_R   0.481990 0.666040 0.546870 -0.504520
O26   O     O_R   0.325370 0.678160 0.544080 -0.520100
C97   C     C_3   0.487758 0.230070 0.096396 -0.280662
C98   C     C_3   0.536591 0.301978 0.102943 -0.442358
H28   H     H_    0.478376 0.381927 0.095101 0.162565
H29   H     H_    0.567243 0.303708 0.134814 0.158975
H30   H     H_    0.602336 0.273534 0.083174 0.142923
H31   H     H_    0.545707 0.151424 0.105799 0.140175
H32   H     H_    0.469794 0.223976 0.063394 0.170858
C99   C     C_3   0.852500 0.487632 0.335019 -0.270313
C100  C     C_3   0.884884 0.552468 0.366157 -0.469407
H33   H     H_    0.815808 0.616993 0.380174 0.142152
H34   H     H_    0.940307 0.503146 0.389908 0.154149
H35   H     H_    0.923435 0.586956 0.350880 0.135678
H36   H     H_    0.921668 0.434648 0.317915 0.161555
H37   H     H_    0.792181 0.541611 0.313643 0.169962
H38   H     H_    0.165744 0.874158 0.081292 0.132377
H39   H     H_    0.480302 0.257500 0.177823 0.116258
C101  C     C_3   0.566099 0.716621 0.330950 -0.267802
C102  C     C_3   0.600684 0.799236 0.340027 -0.441910
H40   H     H_    0.543079 0.872118 0.326091 0.177392
H41   H     H_    0.609464 0.814458 0.373234 0.137498
H42   H     H_    0.676725 0.772008 0.327141 0.138161
H43   H     H_    0.626351 0.643299 0.343964 0.144543
H44   H     H_    0.562585 0.698987 0.297759 0.176839
H45   H     H_    0.442457 0.906740 0.087033 0.126783
C103  C     C_3   0.523230 0.833420 0.159704 -0.269697
C104  C     C_3   0.518870 0.937563 0.173637 -0.419576
H46   H     H_    0.504252 0.984382 0.147285 0.145028
H47   H     H_    0.456406 0.982186 0.194771 0.188758
H48   H     H_    0.594196 0.924015 0.189504 0.135276
H49   H     H_    0.548102 0.783571 0.185747 0.168269
H50   H     H_    0.584571 0.791860 0.137818 0.128384
H51   H     H_    0.234059 0.519589 0.588895 0.126685
C105  C     C_3   0.125405 0.479199 0.913695 -0.262107
C106  C     C_3   0.077907 0.587949 0.898035 -0.468012
H52   H     H_    0.139603 0.608368 0.893890 0.161967
H53   H     H_    0.031015 0.593127 0.869093 0.138093
H54   H     H_    0.025117 0.645535 0.920377 0.137134
H55   H     H_    0.063305 0.456836 0.913295 0.170448
H56   H     H_    0.153742 0.485750 0.945636 0.156881
C107  C     C_3   0.892066 0.121148 0.882928 -0.258871
C108  C     C_3   0.834495 0.069523 0.857566 -0.467061
H57   H     H_    0.754327 0.128434 0.848231 0.160849
H58   H     H_    0.877158 0.025586 0.830493 0.142669
H59   H     H_    0.829563 0.013452 0.875918 0.135195
H60   H     H_    0.974309 0.061538 0.888506 0.176654
H61   H     H_    0.855195 0.147861 0.912352 0.154544
H62   H     H_    0.738444 0.242902 0.675799 0.118107
H63   H     H_    0.683184 0.280809 0.605597 0.139386
C109  C     C_3   0.860881 0.478099 0.605466 -0.269290
C110  C     C_3   0.934204 0.414651 0.572178 -0.424248
H64   H     H_    0.000967 0.344090 0.584527 0.152617
H65   H     H_    0.893509 0.391148 0.546645 0.160978
H66   H     H_    0.964385 0.462018 0.560362 0.131744
H67   H     H_    0.795356 0.549979 0.593687 0.169485
H68   H     H_    0.904588 0.504460 0.628745 0.128035
C111  C     C_3   0.866050 0.484889 0.813772 -0.272884
C112  C     C_3   0.762130 0.580088 0.822069 -0.440353
H69   H     H_    0.697295 0.567511 0.807478 0.165194
H70   H     H_    0.752928 0.596222 0.855167 0.148794
H71   H     H_    0.758486 0.648692 0.809445 0.134228
H72   H     H_    0.930220 0.499091 0.828054 0.135516
H73   H     H_    0.875319 0.474670 0.780686 0.154153
C113  C     C_3   0.489524 0.163354 0.393078 -0.268823
C114  C     C_3   0.459417 0.078722 0.378824 -0.451119
H74   H     H_    0.376198 0.106760 0.383387 0.165675
H75   H     H_    0.473426 0.054925 0.346385 0.150900
H76   H     H_    0.507036 0.009460 0.396650 0.133537
H77   H     H_    0.571555 0.136105 0.386729 0.144011
H78   H     H_    0.483385 0.172952 0.426277 0.173916
C115  C     C_3   0.180661 0.870499 0.588974 -0.271917
C116  C     C_3   0.184385 0.941766 0.559725 -0.428025
H79   H     H_    0.196986 0.004070 0.576848 0.153110
H80   H     H_    0.247443 0.897680 0.538823 0.157980
H81   H     H_    0.109489 0.978251 0.541337 0.134285
H82   H     H_    0.166698 0.809050 0.572044 0.170268
H83   H     H_    0.111664 0.917585 0.606965 0.127792
H84   H     H_    0.195898 0.832555 0.802635 0.112042
H85   H     H_    0.195874 0.901072 0.670389 0.106810
C117  C     C_3   0.181022 0.521715 0.398562 -0.260295
C118  C     C_3   0.143616 0.474161 0.427440 -0.438294
H86   H     H_    0.123519 0.416531 0.410491 0.147253
H87   H     H_    0.203669 0.435061 0.451878 0.161146
H88   H     H_    0.073500 0.536121 0.441773 0.122317
H89   H     H_    0.203163 0.578055 0.415069 0.180414
H90   H     H_    0.111695 0.570576 0.379449 0.126168
H91   H     H_    0.127867 0.364716 0.112521 0.139084
C119  C     C_3   0.172737 0.520079 0.307106 -0.272964
C120  C     C_3   0.187482 0.616465 0.310790 -0.429316
H92   H     H_    0.186106 0.647227 0.342698 0.143451
H93   H     H_    0.262811 0.597471 0.298997 0.185391
H94   H     H_    0.124034 0.677978 0.292748 0.141575
H95   H     H_    0.168557 0.497933 0.274370 0.151914
H96   H     H_    0.095498 0.538544 0.316553 0.126546

loop_
_geom_bond_atom_site_label_1
_geom_bond_atom_site_label_2
_ccdc_geom_bond_type
C8    C9    A    
C47   H12   S    
C66   C68   A    
C87   C88   T    
C120  H93   S    
C40   C41   A    
C105  H55   S    
C55   C59   A    
C81   H24   S    
C95   O17   A    
C98   H29   S    
C41   C42   A    
C74   C94   S    
C36   C42   S    
C111  C112  S    
C1    O20   A    
C112  H69   S    
Cr6   O17   S    
C7    C13   A    
C102  H40   S    
N6    N7    A    
C117  H90   S    
C85   C86   A    
C25   C28   A    
C97   H32   S    
C116  H81   S    
C26   C27   A    
C29   C30   A    
C59   C95   S    
C115  H82   S    
C22   C24   A    
C64   H62   S    
C65   H63   S    
C46   H51   S    
C3    H14   S    
C5    C6    A    
Cr2   O2    S    
C53   H15   S    
C102  H41   S    
C80   H23   S    
Cr4   O6    S    
C68   C74   A    
C15   C16   A    
Cr5   O9    S    
C107  H61   S    
C54   C105  S    
C101  C102  S    
C18   C19   A    
Cr1   O5    S    
C56   O4    A    
C49   C50   A    
C109  H67   S    
C79   C88   S    
C44   C50   A    
C14   C15   A    
C33   C35   A    
C116  H79   S    
C19   H1    S    
C84   C85   A    
C8    H26   S    
C100  H35   S    
C96   O13   A    
C66   C71   A    
Cr5   O19   S    
C105  C106  S    
C104  H47   S    
C56   O24   A    
C45   O3    A    
C23   O1    A    
C113  H78   S    
C70   C71   A    
C61   C109  S    
C119  H96   S    
C114  H76   S    
C36   N8    A    
C117  C118  S    
Cr2   O26   S    
N2    N12   A    
C34   C75   S    
C99   H37   S    
Cr6   O10   S    
C84   H25   S    
C118  H87   S    
Cr3   O4    S    
C120  H94   S    
Cr5   O16   S    
C66   H18   S    
C115  C116  S    
C7    H91   S    
C106  H53   S    
N1    N5    A    
C67   C78   A    
C84   C90   A    
C92   O10   A    
C2    C11   S    
C43   C93   S    
C82   H22   S    
C91   O7    A    
Cr2   O21   S    
C44   C46   A    
C70   C111  S    
C6    C97   S    
C54   C59   A    
C51   N12   A    
C78   C89   A    
C97   H31   S    
C12   C67   S    
C116  H80   S    
C32   C37   S    
C95   O16   A    
C115  H83   S    
C30   H7    S    
C107  C108  S    
C52   N3    A    
C98   H28   S    
Cr3   O3    S    
C7    C8    A    
C38   C39   A    
C109  C110  S    
C72   C73   T    
Cr6   O19   S    
C91   O8    A    
C86   C87   S    
N3    N4    A    
C102  H42   S    
C39   C43   A    
C63   C73   S    
Cr5   O15   S    
C110  H64   S    
C82   C86   A    
C103  H50   S    
C39   H38   S    
C85   H84   S    
C17   C21   S    
C3    C4    A    
C56   C60   S    
C76   C115  S    
C24   H2    S    
C4    C113  S    
C14   C23   S    
C2    C89   A    
C75   C76   A    
C117  H89   S    
C5    C9    A    
C62   C63   A    
C120  H92   S    
Cr4   O19   S    
C113  H77   S    
C47   C48   A    
C15   H27   S    
C69   H19   S    
C30   C31   A    
N10   N11   A    
C104  H48   S    
C40   C43   A    
C33   C101  S    
C1    C29   S    
C17   C18   A    
C94   O14   A    
C77   C79   A    
C69   C74   A    
C114  H75   S    
C51   C58   S    
C103  H49   S    
C20   N7    A    
C1    O12   A    
C36   N11   A    
C108  H57   S    
C35   H8    S    
Cr3   O22   S    
C16   C99   S    
C108  H58   S    
C48   C49   A    
C49   H13   S    
Cr3   O5    S    
C60   C65   A    
C82   C83   A    
Cr1   O12   S    
C22   C27   A    
C55   C57   A    
C13   C92   S    
C92   O9    A    
C107  H60   S    
C106  H54   S    
C101  H44   S    
C79   C80   A    
C68   C107  S    
C53   C54   A    
C34   O26   A    
C112  H71   S    
C21   N5    A    
C62   H20   S    
Cr2   O20   S    
C44   C45   S    
C25   H5    S    
C23   O23   A    
C9    C10   S    
C118  H88   S    
Cr4   O13   S    
C113  C114  S    
C83   C90   A    
C46   C47   A    
C97   C98   S    
C105  H56   S    
C41   C103  S    
C111  H72   S    
C52   N2    A    
C14   C19   A    
C31   C32   A    
C75   C81   A    
C24   C28   A    
C20   N1    A    
C80   C81   A    
C112  H70   S    
Cr6   O18   S    
C4    C67   A    
C53   C58   A    
C90   C96   S    
C99   H36   S    
C20   C27   S    
C110  H65   S    
Cr2   O5    S    
N8    N9    A    
C29   C35   A    
C106  H52   S    
C57   H17   S    
C89   C119  S    
C50   H11   S    
C32   C33   A    
C119  C120  S    
C100  H33   S    
C2    C3    A    
C25   C26   A    
C18   H3    S    
C71   C72   S    
C99   C100  S    
C22   H4    S    
C103  C104  S    
C12   O22   A    
C76   C77   A    
C51   N4    A    
C57   C58   A    
C16   C17   A    
C40   H45   S    
C119  H95   S    
Cr4   O7    S    
C108  H59   S    
Cr1   O24   S    
C64   C65   A    
Cr5   O8    S    
Cr3   O23   S    
C78   C117  S    
C21   N6    A    
C93   O6    A    
C28   C91   S    
C77   H85   S    
C61   C62   A    
C110  H66   S    
C69   C70   A    
Cr1   O1    S    
C109  H68   S    
C10   C11   T    
C12   O21   A    
C63   C64   A    
C38   C42   A    
C111  H73   S    
C48   C52   S    
C96   O18   A    
Cr4   O14   S    
C94   O15   A    
C104  H46   S    
C37   N10   A    
C114  H74   S    
C45   O2    A    
C31   H9    S    
C101  H43   S    
C60   C61   A    
C93   O11   A    
C98   H30   S    
C83   H21   S    
C34   O25   A    
C38   H10   S    
C5    H39   S    
C26   H6    S    
Cr1   O25   S    
C118  H86   S    
Cr6   O11   S    
C100  H34   S    
C6    C13   A    
C55   H16   S    
C37   N9    A    
