data_mof_unit_55227.cif
_audit_creation_date              2013-03-05T15:57:43-0500
_audit_creation_method            fapswitch 2.2
_symmetry_space_group_name_H-M    P1
_symmetry_Int_Tables_number       1
_space_group_crystal_system       triclinic
_cell_length_a                    19.696044
_cell_length_b                    17.760367
_cell_length_c                    12.574995
_cell_angle_alpha                 89.791859
_cell_angle_beta                  98.881523
_cell_angle_gamma                 90.261821
_cell_volume                      4346.03813861

loop_
_atom_site_label
_atom_site_type_symbol
_atom_site_description
_atom_site_fract_x
_atom_site_fract_y
_atom_site_fract_z
_atom_type_partial_charge
O1    O     O_R   0.448200 0.076800 0.373930 -0.620774
O2    O     O_R   0.448200 0.923200 0.373930 -0.604659
O3    O     O_R   0.948200 0.576800 0.373930 -0.595371
O4    O     O_R   0.948200 0.423200 0.373930 -0.611390
O5    O     O_R   0.414750 0.076790 0.542400 -0.636448
O6    O     O_R   0.414750 0.923210 0.542400 -0.611262
O7    O     O_R   0.914750 0.576790 0.542400 -0.631587
O8    O     O_R   0.914750 0.423210 0.542400 -0.608437
C1    C     C_R   0.410332 0.101269 0.442989 0.814759
C2    C     C_R   0.407447 0.901492 0.441579 0.863190
C3    C     C_R   0.909976 0.600962 0.442667 0.836276
C4    C     C_R   0.910140 0.398985 0.442963 0.843820
Zn1   Zn    Zn3+2 0.522330 1.000000 0.387520 1.035612
Zn2   Zn    Zn3+2 0.022330 0.500000 0.387520 1.041217
Zn3   Zn    Zn3+2 0.477660 1.000000 0.612480 0.998561
Zn4   Zn    Zn3+2 0.977660 0.500000 0.612480 1.003922
O9    O     O_R   0.585240 0.923200 0.457600 -0.552963
O10   O     O_R   0.585240 0.076800 0.457600 -0.565331
O11   O     O_R   0.085240 0.423200 0.457600 -0.568915
O12   O     O_R   0.085240 0.576800 0.457600 -0.576432
O13   O     O_R   0.551780 0.923190 0.626070 -0.604574
O14   O     O_R   0.551780 0.076810 0.626070 -0.610733
O15   O     O_R   0.051780 0.423190 0.626070 -0.597833
O16   O     O_R   0.051780 0.576810 0.626070 -0.603705
C5    C     C_R   0.586558 0.894864 0.554914 0.971140
C6    C     C_R   0.590257 0.101092 0.557587 0.929317
C7    C     C_R   0.086852 0.395039 0.554971 0.933854
C8    C     C_R   0.085520 0.606133 0.553371 0.916153
C9    C     C_R   0.654716 0.289805 0.653448 -0.232522
C10   C     C_R   0.727534 0.789245 0.716289 -0.210678
C11   C     C_R   0.165828 0.785896 0.682838 -0.222607
C12   C     C_R   0.226292 0.286796 0.718766 -0.219414
H1    H     H_    0.231357 0.917943 0.670384 0.138544
H2    H     H_    0.358536 0.252238 0.735848 0.189420
H3    H     H_    0.705520 0.420263 0.603689 0.145909
H4    H     H_    0.859853 0.757665 0.729811 0.185459
C13   C     C_R   0.639497 0.161308 0.592023 -0.262058
C14   C     C_R   0.632522 0.830725 0.585807 -0.262507
C15   C     C_R   0.123408 0.677552 0.574558 -0.284171
C16   C     C_R   0.133582 0.331462 0.585834 -0.276183
C17   C     C_R   0.363654 0.794066 0.327275 -0.164657
C18   C     C_R   0.314050 0.129689 0.302772 -0.176156
C19   C     C_R   0.898559 0.272370 0.369504 -0.151348
C20   C     C_R   0.812701 0.626728 0.302588 -0.170742
C21   C     C_R   0.322460 0.730225 0.311171 -0.093973
C22   C     C_R   0.244352 0.144764 0.281740 -0.117830
C23   C     C_R   0.882636 0.199354 0.396028 -0.097401
C24   C     C_R   0.742950 0.641629 0.281589 -0.123915
C25   C     C_R   0.270266 0.718845 0.372461 -0.099359
C26   C     C_R   0.212718 0.180139 0.359250 -0.083931
C27   C     C_R   0.833592 0.186972 0.462653 -0.070215
C28   C     C_R   0.711413 0.678316 0.358157 -0.087614
C29   C     C_R   0.253986 0.774774 0.443878 0.093950
C30   C     C_R   0.251868 0.210106 0.453808 0.113688
C31   C     C_R   0.791851 0.246648 0.489785 0.106928
C32   C     C_R   0.750650 0.709813 0.451531 0.111228
C33   C     C_R   0.294616 0.840601 0.458352 0.094805
C34   C     C_R   0.322328 0.192539 0.476459 0.057353
C35   C     C_R   0.811149 0.320936 0.467564 0.096728
C36   C     C_R   0.821456 0.692804 0.473655 0.062861
C37   C     C_R   0.733949 0.235856 0.542841 -0.027855
C38   C     C_R   0.721377 0.752736 0.528024 -0.029870
C39   C     C_R   0.203528 0.763071 0.510758 -0.026255
C40   C     C_R   0.222533 0.252475 0.530456 -0.032338
C41   C     C_R   0.706603 0.298996 0.590991 0.068557
C42   C     C_R   0.759499 0.762335 0.632632 0.033630
C43   C     C_R   0.202928 0.808779 0.602007 0.084931
C44   C     C_R   0.259202 0.259894 0.636155 0.025314
C45   C     C_R   0.237075 0.877826 0.607676 -0.164437
C46   C     C_R   0.328666 0.242171 0.657271 -0.136388
C47   C     C_R   0.728356 0.371620 0.571406 -0.173754
C48   C     C_R   0.829269 0.745961 0.652287 -0.140372
C49   C     C_R   0.278073 0.895966 0.530524 -0.178557
C50   C     C_R   0.361013 0.214781 0.575383 -0.140498
C51   C     C_R   0.776617 0.382627 0.504297 -0.183527
C52   C     C_R   0.860878 0.717130 0.570691 -0.137265
C53   C     C_R   0.698346 0.166623 0.541456 0.230844
C54   C     C_R   0.658016 0.790653 0.503557 0.226113
C55   C     C_R   0.152426 0.708568 0.488351 0.188514
C56   C     C_R   0.160991 0.292873 0.503855 0.219468
C57   C     C_R   0.621776 0.220838 0.656974 0.291888
C58   C     C_R   0.661233 0.818220 0.694502 0.290237
C59   C     C_R   0.129084 0.717846 0.672975 0.312070
C60   C     C_R   0.160611 0.317409 0.695067 0.293005
C61   C     C_R   0.352633 0.847281 0.404952 -0.129552
C62   C     C_R   0.351661 0.148010 0.403341 -0.090541
C63   C     C_R   0.868271 0.332687 0.415607 -0.127032
C64   C     C_R   0.850661 0.646848 0.402077 -0.078113
H5    H     H_    0.407361 0.798821 0.284855 0.204315
H6    H     H_    0.336267 0.095394 0.245978 0.154061
H7    H     H_    0.940768 0.281508 0.325371 0.221032
H8    H     H_    0.834778 0.591380 0.246833 0.153751
C65   C     C_R   0.643111 0.988977 0.134580 0.254213
C66   C     C_R   0.143437 0.493072 0.134774 0.257961
H9    H     H_    0.655196 0.984283 0.307034 0.223901
H10   H     H_    0.155867 0.490680 0.307474 0.177228
N1    N     N_R   0.552340 1.000000 0.237260 -0.141661
N2    N     N_R   0.052340 0.500000 0.237260 -0.124249
C67   C     C_R   0.379575 0.003743 0.763682 0.052651
C68   C     C_R   0.879431 0.499442 0.763292 0.059818
C69   C     C_R   0.354642 0.004513 0.860725 -0.238624
C70   C     C_R   0.854493 0.499841 0.860391 -0.232987
C71   C     C_R   0.400824 0.002692 0.956076 -0.142562
C72   C     C_R   0.900744 0.500805 0.955849 -0.140467
C73   C     C_R   0.472640 0.001000 0.954267 0.049452
C74   C     C_R   0.972638 0.501518 0.954192 0.048255
C75   C     C_R   0.494972 0.999218 0.853394 0.203768
C76   C     C_R   0.994994 0.500915 0.853378 0.207666
C77   C     C_R   0.522719 0.000586 0.047870 -0.067032
C78   C     C_R   0.022775 0.501587 0.047844 -0.069683
C79   C     C_R   0.594491 0.998134 0.039761 -0.094927
C80   C     C_R   0.094650 0.501059 0.039801 -0.084316
C81   C     C_R   0.614725 0.004893 0.937531 0.331294
C82   C     C_R   0.114766 0.508294 0.937474 0.337036
C83   C     C_R   0.565024 0.000367 0.846808 -0.138770
C84   C     C_R   0.065038 0.503406 0.846797 -0.160356
C85   C     C_R   0.503917 0.003045 0.150256 -0.015537
C86   C     C_R   0.003879 0.502019 0.150223 0.018129
C87   C     C_R   0.619895 0.991818 0.232985 0.087661
C88   C     C_R   0.120198 0.495393 0.233172 0.088160
N3    N     N_R   0.448170 1.000000 0.762060 -0.116986
N4    N     N_R   0.948170 0.500000 0.762060 -0.115158
H11   H     H_    0.299866 0.006904 0.862095 0.155959
H12   H     H_    0.799667 0.499323 0.861768 0.159528
H13   H     H_    0.582671 0.001897 0.771196 0.224401
H14   H     H_    0.082741 0.503717 0.771246 0.221519
N5    N     N_R   0.566769 0.214781 0.719175 0.217518
O17   O     O_R   0.521889 0.268653 0.715350 -0.413369
O18   O     O_R   0.571992 0.167131 0.798709 -0.364691
N6    N     N_R   0.624045 0.833186 0.781979 0.216904
O19   O     O_R   0.558833 0.817021 0.771401 -0.361377
O20   O     O_R   0.657284 0.843585 0.878527 -0.333682
N7    N     N_R   0.093152 0.695422 0.758834 0.218666
O21   O     O_R   0.026317 0.693571 0.742476 -0.401328
O22   O     O_R   0.125024 0.697177 0.857415 -0.334594
N8    N     N_R   0.122726 0.333272 0.781401 0.218821
O23   O     O_R   0.057655 0.316356 0.770397 -0.362981
O24   O     O_R   0.155350 0.345610 0.877868 -0.337796
N9    N     N_R   0.683779 0.024564 0.923666 0.252601
O25   O     O_R   0.709817 0.998160 0.842410 -0.334727
O26   O     O_R   0.714826 0.080348 0.978081 -0.311028
N10   N     N_R   0.183926 0.527309 0.923277 0.255251
O27   O     O_R   0.209714 0.500236 0.842199 -0.352190
O28   O     O_R   0.215712 0.582665 0.977713 -0.296666
N11   N     N_R   0.713598 0.969149 0.133242 0.248304
O29   O     O_R   0.728204 0.912902 0.074888 -0.273380
O30   O     O_R   0.761652 0.996695 0.205478 -0.298878
N12   N     N_R   0.214270 0.474778 0.133708 0.246493
O31   O     O_R   0.229872 0.418123 0.076911 -0.273329
O32   O     O_R   0.261824 0.504164 0.205050 -0.357174
H15   H     H_    0.451710 0.007230 0.164821 0.125275
H16   H     H_    0.951561 0.504200 0.164758 0.119612
H17   H     H_    0.344317 0.007057 0.689271 0.119876
H18   H     H_    0.844094 0.498843 0.688355 0.129251
H19   H     H_    0.378466 0.003049 0.028948 0.133913
H20   H     H_    0.878364 0.500711 0.028705 0.134619
H21   H     H_    0.637417 0.337443 0.695755 0.190361
H22   H     H_    0.754249 0.787345 0.798354 0.207591
H23   H     H_    0.166156 0.820184 0.754073 0.184034
H24   H     H_    0.251778 0.283727 0.801468 0.206232
N13   N     N_R   0.714060 0.105493 0.474846 0.190382
O33   O     O_R   0.726036 0.038598 0.515983 -0.383716
O34   O     O_R   0.708443 0.114808 0.371113 -0.376565
N14   N     N_R   0.623702 0.797136 0.394376 0.199367
O35   O     O_R   0.558890 0.779639 0.370573 -0.408716
O36   O     O_R   0.655288 0.827317 0.321056 -0.363249
N15   N     N_R   0.112284 0.708811 0.382230 0.236861
O37   O     O_R   0.128294 0.666838 0.305379 -0.389960
O38   O     O_R   0.054159 0.744737 0.366660 -0.350136
N16   N     N_R   0.131903 0.303905 0.392889 0.205710
O39   O     O_R   0.068385 0.285110 0.359131 -0.431690
O40   O     O_R   0.168155 0.335224 0.326433 -0.366537
H25   H     H_    0.830857 0.130776 0.494249 0.195506
H26   H     H_    0.656071 0.678008 0.344659 0.186252
H27   H     H_    0.246277 0.664021 0.368558 0.192148
H28   H     H_    0.157349 0.180619 0.345447 0.185591
H29   H     H_    0.333923 0.687022 0.256143 0.198286
H30   H     H_    0.213874 0.124200 0.208475 0.167411
H31   H     H_    0.911684 0.152699 0.371255 0.183923
H32   H     H_    0.712315 0.619765 0.209300 0.167608
H33   H     H_    0.298969 0.952251 0.530884 0.150163
H34   H     H_    0.416040 0.207012 0.592169 0.201973
H35   H     H_    0.788779 0.440080 0.484576 0.137962
H36   H     H_    0.916042 0.709942 0.586382 0.199633

loop_
_geom_bond_atom_site_label_1
_geom_bond_atom_site_label_2
_geom_bond_distance
_ccdc_geom_bond_type
C17   H5    1.083317 S    
C2    C61   1.464532 S    
C54   N14   1.438077 S    
C31   C35   1.410263 A    
N9    O26   1.301509 A    
C16   C60   1.416123 A    
O10   C6    1.319842 A    
C56   N16   1.437335 S    
C48   C52   1.380785 A    
C51   H35   1.083675 S    
C78   C86   1.394300 A    
C72   C74   1.419386 A    
N11   O29   1.300874 A    
C36   C64   1.405962 A    
C77   C85   1.394453 A    
N15   O38   1.301000 A    
C39   C55   1.391028 A    
O7    C3    1.313792 A    
C73   C75   1.405768 A    
C65   C87   1.385021 A    
C69   H11   1.082696 S    
O13   C5    1.310952 A    
Zn1   O10   1.956661 S    
C82   N10   1.439418 S    
N14   O35   1.301846 A    
N12   O32   1.301514 A    
C24   C28   1.389390 A    
C77   C79   1.433797 A    
C30   C34   1.409139 A    
C1    C62   1.449469 S    
N16   O39   1.299995 A    
H4    C48   1.084176 S    
C31   C37   1.419333 A    
C11   C59   1.401859 A    
C26   H28   1.077535 S    
C27   C31   1.418752 A    
C18   C22   1.384521 A    
C33   C49   1.413313 A    
C27   H25   1.077087 S    
O2    Zn1   1.981903 S    
C22   H30   1.082690 S    
Zn4   N4    2.052504 S    
N13   O34   1.302008 A    
O6    Zn3   1.956539 S    
C66   C88   1.384806 A    
Zn3   O14   1.981880 S    
C42   C48   1.390092 A    
C79   C81   1.408012 A    
C37   C53   1.411541 A    
C46   C50   1.382729 A    
C23   H31   1.082691 S    
C16   C56   1.415694 A    
C45   C49   1.390813 A    
C18   C62   1.401973 A    
O15   C7    1.312862 A    
C58   N6    1.438698 S    
O11   C7    1.316861 A    
H2    C46   1.084096 S    
O12   C8    1.313125 A    
C20   H8    1.083797 S    
C21   H29   1.082702 S    
C12   C44   1.393545 A    
O8    Zn4   1.956539 S    
H3    C47   1.084406 S    
C69   C71   1.389005 A    
C84   H14   1.061343 S    
C14   C58   1.413381 A    
C66   N12   1.435996 S    
C40   C56   1.406044 A    
C55   N15   1.442274 S    
C13   C57   1.415773 A    
C70   H12   1.082652 S    
C34   C62   1.406454 A    
C80   C82   1.408896 A    
N11   O30   1.301460 A    
H10   C88   1.082061 S    
Zn2   N2    2.065073 S    
C35   C63   1.400030 A    
C53   N13   1.437314 S    
C12   C60   1.394341 A    
C39   C43   1.409548 A    
O5    Zn3   1.959966 S    
C38   C42   1.420813 A    
C28   H26   1.076932 S    
Zn2   O12   1.956661 S    
O1    C1    1.305753 A    
N12   O31   1.301085 A    
C85   H15   1.074880 S    
N15   O37   1.300211 A    
C29   C33   1.410096 A    
C9    H21   1.084810 S    
C14   C54   1.413279 A    
C8    C15   1.472815 S    
H9    C87   1.080941 S    
C41   C47   1.390363 A    
C13   C53   1.408146 A    
C36   C52   1.409514 A    
C19   H7    1.079837 S    
C32   C36   1.413153 A    
C18   H6    1.083791 S    
C15   C55   1.410454 A    
N1    C87   1.348447 A    
N6    O20   1.300700 A    
N5    O18   1.299981 A    
O5    C1    1.312296 A    
C37   C41   1.423166 A    
C5    C14   1.471651 S    
C49   H33   1.079073 S    
C82   C84   1.386409 A    
C21   C25   1.390437 A    
C3    C64   1.452971 S    
O8    C4    1.313539 A    
C81   N9    1.439003 S    
C71   C73   1.418653 A    
Zn1   N1    2.065073 S    
C26   C30   1.417564 A    
C72   H20   1.076270 S    
C70   C72   1.390470 A    
C75   C83   1.394998 A    
C10   C42   1.393679 A    
O3    Zn2   1.990215 S    
C65   C79   1.418663 A    
C9    C41   1.390435 A    
C71   H19   1.076274 S    
O7    Zn4   1.959966 S    
C67   C69   1.384104 A    
C9    C57   1.387229 A    
Zn4   O15   1.990193 S    
N7    O21   1.300880 A    
C32   C38   1.421051 A    
C65   N11   1.436475 S    
O4    C4    1.302216 A    
C75   N3    1.357244 A    
N5    O17   1.301309 A    
O2    C2    1.312336 A    
C40   C44   1.417612 A    
C35   C51   1.408503 A    
C24   H32   1.082717 S    
N10   O28   1.301543 A    
C34   C50   1.411458 A    
N8    O24   1.300915 A    
C68   C70   1.384726 A    
C74   C78   1.415265 A    
C68   H18   1.081660 S    
C10   H22   1.084063 S    
C73   C77   1.414183 A    
C60   N8    1.438437 S    
C10   C58   1.392782 A    
Zn3   N3    2.052504 S    
C7    C16   1.472677 S    
Zn2   O11   1.960089 S    
C38   C54   1.411808 A    
C11   H23   1.084178 S    
O16   C8    1.315127 A    
C76   N4    1.357369 A    
N8    O23   1.301541 A    
O6    C2    1.312856 A    
C23   C27   1.389238 A    
N9    O25   1.301713 A    
C6    C13   1.461525 S    
N2    C88   1.348295 A    
C50   H34   1.081104 S    
H1    C45   1.083698 S    
C17   C61   1.403040 A    
C22   C26   1.388706 A    
C83   H13   1.061772 S    
C67   N3    1.356282 A    
O9    C5    1.318066 A    
C76   C84   1.395249 A    
N14   O36   1.301878 A    
N6    O19   1.301548 A    
C12   H24   1.084035 S    
C19   C63   1.398820 A    
C4    C63   1.446153 S    
O4    Zn2   1.981903 S    
N13   O33   1.302003 A    
C86   H16   1.074864 S    
C47   C51   1.377946 A    
C29   C39   1.411781 A    
C74   C76   1.404869 A    
C25   C29   1.412211 A    
C67   H17   1.077321 S    
N2    C86   1.337049 A    
C66   C80   1.419662 A    
C33   C61   1.416306 A    
C68   N4    1.356363 A    
N1    C85   1.336928 A    
C78   C80   1.434833 A    
C59   N7    1.433682 S    
O3    C3    1.305623 A    
C11   C43   1.398559 A    
C15   C59   1.420996 A    
Zn1   O9    1.960089 S    
C20   C24   1.384882 A    
Zn3   O13   1.990193 S    
O1    Zn1   1.990215 S    
C30   C40   1.417842 A    
Zn4   O16   1.981880 S    
O14   C6    1.302989 A    
N7    O22   1.300605 A    
C44   C46   1.390185 A    
C17   C21   1.388317 A    
N10   O27   1.301680 A    
C20   C64   1.401375 A    
N16   O40   1.301858 A    
C43   C45   1.392655 A    
C52   H36   1.081953 S    
C19   C23   1.384449 A    
C57   N5    1.434279 S    
C28   C32   1.417562 A    
C81   C83   1.386128 A    
C25   H27   1.078294 S    
