data_mof_unit_55034.cif
_audit_creation_date              2012-12-11T14:54:22-0500
_audit_creation_method            fapswitch 2.2
_symmetry_space_group_name_H-M    P1
_symmetry_Int_Tables_number       1
_space_group_crystal_system       triclinic
_cell_length_a                    19.229558
_cell_length_b                    11.251627
_cell_length_c                    18.63945
_cell_angle_alpha                 89.922326
_cell_angle_beta                  91.495276
_cell_angle_gamma                 90.240269
_cell_volume                      4031.49062745

loop_
_atom_site_label
_atom_site_type_symbol
_atom_type_description
_atom_site_fract_x
_atom_site_fract_y
_atom_site_fract_z
_atom_type_partial_charge
C1    C     C_R   0.715282 0.341661 0.637954 0.575547
C2    C     C_R   0.287452 0.337802 0.363214 0.554440
C3    C     C_R   0.213573 0.839447 0.637390 0.577121
C4    C     C_R   0.774525 0.867347 0.358779 0.557078
C5    C     C_3   0.483157 0.355106 0.453374 -0.193660
C6    C     C_3   0.480904 0.342981 0.532423 -0.242192
C7    C     C_3   0.964083 0.831743 0.464059 -0.188724
C8    C     C_3   0.980946 0.819971 0.541820 -0.203884
C9    C     C_R   0.701351 0.844513 0.544965 -0.074260
C10   C     C_R   0.294079 0.848146 0.455662 -0.069321
C11   C     C_R   0.228053 0.305638 0.555692 -0.063220
C12   C     C_R   0.812623 0.405329 0.471588 -0.089453
C13   C     C_R   0.707438 0.836332 0.470508 -0.248964
C14   C     C_R   0.285693 0.833316 0.529033 -0.223742
C15   C     C_R   0.238700 0.283417 0.482409 -0.139074
C16   C     C_R   0.799379 0.378384 0.542490 -0.236102
C17   C     C_R   0.763880 0.889763 0.436607 -0.027933
C18   C     C_R   0.223534 0.865543 0.560560 0.020115
C19   C     C_R   0.280913 0.359896 0.442322 -0.019663
C20   C     C_R   0.730971 0.371038 0.564286 -0.014042
C21   C     C_R   0.816919 0.943983 0.480232 0.259186
C22   C     C_R   0.169115 0.915788 0.517377 0.305653
C23   C     C_R   0.326262 0.441101 0.480904 0.246431
C24   C     C_R   0.676775 0.386881 0.514048 0.271921
C25   C     C_R   0.818917 0.920445 0.555222 0.239811
C26   C     C_R   0.173947 0.911857 0.442019 0.241298
C27   C     C_R   0.326621 0.435717 0.557252 0.241358
C28   C     C_R   0.689497 0.379558 0.441068 0.242548
C29   C     C_R   0.755313 0.897266 0.585807 0.008097
C30   C     C_R   0.240343 0.896981 0.413510 -0.005897
C31   C     C_R   0.265185 0.397323 0.588445 -0.029526
C32   C     C_R   0.755928 0.410351 0.420789 -0.013057
C33   C     C_R   0.492782 0.064758 0.963640 -0.123377
C34   C     C_R   0.507803 0.065239 0.036774 -0.121882
C35   C     C_R   0.992910 0.564762 0.963715 -0.123216
C36   C     C_R   0.007934 0.565209 0.036850 -0.120579
C37   C     C_R   0.496190 0.170193 0.074857 0.004585
C38   C     C_R   0.503829 0.169638 0.925097 0.004625
C39   C     C_R   0.996329 0.670169 0.074935 0.005410
C40   C     C_R   0.003957 0.669646 0.925173 0.003027
C41   C     C_R   0.492236 0.278883 0.036646 0.226132
C42   C     C_R   0.507069 0.278758 0.962739 0.224316
C43   C     C_R   0.992449 0.778874 0.036745 0.226067
C44   C     C_R   0.007263 0.778753 0.962833 0.224089
C45   C     C_R   0.535584 0.151690 0.644294 0.508376
C46   C     C_R   0.471137 0.152317 0.351017 0.494360
C47   C     C_R   0.065631 0.648020 0.639662 0.522709
C48   C     C_R   0.973316 0.653430 0.348896 0.484491
C49   C     C_R   0.740314 0.072367 0.990405 -0.169026
C50   C     C_R   0.259041 0.071717 0.009625 -0.169279
C51   C     C_R   0.240220 0.572453 0.990442 -0.171070
C52   C     C_R   0.759010 0.571686 0.009635 -0.170034
C53   C     C_R   0.746788 0.043093 0.062889 0.253233
C54   C     C_R   0.252888 0.042627 0.937149 0.251090
C55   C     C_R   0.246671 0.543169 0.062940 0.251776
C56   C     C_R   0.752891 0.542629 0.937150 0.250495
C57   C     C_R   0.733954 0.926498 0.083545 0.034105
C58   C     C_R   0.266004 0.926374 0.916491 0.034019
C59   C     C_R   0.233928 0.426521 0.083558 0.032705
C60   C     C_R   0.766000 0.426377 0.916491 0.033792
C61   C     C_R   0.689233 0.855178 0.038682 -0.053089
C62   C     C_R   0.310549 0.855400 0.961497 -0.053345
C63   C     C_R   0.189239 0.355167 0.038683 -0.053052
C64   C     C_R   0.810553 0.355405 0.961488 -0.052166
C65   C     C_R   0.683208 0.886275 0.965283 -0.038235
C66   C     C_R   0.316540 0.886497 0.034859 -0.037846
C67   C     C_R   0.183214 0.386282 0.965286 -0.034881
C68   C     C_R   0.816543 0.386484 0.034854 -0.035642
C69   C     C_R   0.722189 0.986659 0.939539 -0.079730
C70   C     C_R   0.277561 0.986362 0.060538 -0.079232
C71   C     C_R   0.222171 0.486705 0.939557 -0.078997
C72   C     C_R   0.777546 0.486328 0.060540 -0.078492
C73   C     C_R   0.741557 0.965533 0.650030 0.554015
C74   C     C_R   0.257168 0.965003 0.349446 0.538260
C75   C     C_R   0.243602 0.463589 0.651476 0.516416
C76   C     C_R   0.761698 0.473332 0.353635 0.552641
C77   C     C_R   0.732462 0.378521 0.851151 0.567923
C78   C     C_R   0.267500 0.378747 0.148878 0.566517
C79   C     C_R   0.232462 0.878519 0.851150 0.570958
C80   C     C_R   0.767508 0.878733 0.148870 0.560482
C81   C     C_R   0.532781 0.157657 0.853126 0.568529
C82   C     C_R   0.467241 0.157949 0.146865 0.564545
C83   C     C_R   0.032815 0.657659 0.853153 0.581133
C84   C     C_R   0.967281 0.657946 0.146895 0.559524
C85   C     C_R   0.726693 0.019024 0.861979 0.520904
C86   C     C_R   0.273249 0.018738 0.138056 0.519116
C87   C     C_R   0.226688 0.519044 0.861982 0.529545
C88   C     C_R   0.773244 0.518721 0.138054 0.520876
C89   C     C_R   0.514376 0.146525 0.417190 -0.076565
C90   C     C_R   0.518777 0.145268 0.567490 -0.073194
C91   C     C_R   0.022775 0.655568 0.410790 -0.085131
C92   C     C_R   0.059588 0.644598 0.559429 -0.078817
C93   C     C_R   0.526804 0.248756 0.455188 0.056778
C94   C     C_R   0.529940 0.245877 0.529166 0.055800
C95   C     C_R   0.023310 0.753984 0.453514 0.004754
C96   C     C_R   0.042365 0.749009 0.525249 0.039889
C97   C     C_R   0.508883 0.036322 0.530117 -0.003801
C98   C     C_R   0.520679 0.036035 0.454783 -0.012252
C99   C     C_R   0.064989 0.540692 0.514915 -0.012302
C100  C     C_R   0.055572 0.551993 0.438501 0.016700
Cr1   Cr    Cr6+3 0.771950 0.169480 0.750100 1.086902
Cr2   Cr    Cr6+3 0.228050 0.169480 0.249900 1.108522
Cr3   Cr    Cr6+3 0.271950 0.669480 0.750100 1.092204
Cr4   Cr    Cr6+3 0.728050 0.669480 0.249900 1.098607
Cr5   Cr    Cr6+3 0.614930 0.323340 0.749170 1.084065
Cr6   Cr    Cr6+3 0.385070 0.323340 0.250830 1.096320
Cr7   Cr    Cr6+3 0.114930 0.823340 0.749170 1.076717
Cr8   Cr    Cr6+3 0.885070 0.823340 0.250830 1.073511
Cr9   Cr    Cr6+3 0.616590 0.010620 0.750610 1.096545
Cr10  Cr    Cr6+3 0.383410 0.010620 0.249390 1.082716
Cr11  Cr    Cr6+3 0.116590 0.510620 0.750610 1.021874
Cr12  Cr    Cr6+3 0.883410 0.510620 0.249390 1.087275
H1    H     H_    0.743853 0.163034 0.974199 0.100188
H2    H     H_    0.254928 0.162200 0.025784 0.100839
H3    H     H_    0.243747 0.663121 0.974229 0.100118
H4    H     H_    0.754868 0.662153 0.025814 0.101006
H5    H     H_    0.913388 0.789403 0.449365 0.153437
H6    H     H_    0.993926 0.904591 0.568980 0.226559
H7    H     H_    0.431166 0.338645 0.430255 0.184388
H8    H     H_    0.501935 0.416164 0.565499 0.219929
H9    H     H_    0.510492 0.434118 0.432778 0.199097
H10   H     H_    0.430475 0.303886 0.547306 0.128892
H11   H     H_    0.974922 0.918585 0.439271 0.217330
H12   H     H_    0.942875 0.759561 0.566729 0.133297
H13   H     H_    0.668088 0.789161 0.439146 0.173240
H14   H     H_    0.328286 0.800916 0.562352 0.167446
H15   H     H_    0.215124 0.207613 0.456050 0.164131
H16   H     H_    0.842250 0.370292 0.581179 0.166098
O1    O     O_R   0.787510 0.042610 0.670410 -0.494526
O2    O     O_R   0.212490 0.042610 0.329590 -0.494767
O3    O     O_R   0.287510 0.542610 0.670410 -0.471964
O4    O     O_R   0.712490 0.542610 0.329590 -0.477851
O5    O     O_R   0.556450 0.252890 0.823790 -0.469538
O6    O     O_R   0.443550 0.252890 0.176210 -0.462441
O7    O     O_R   0.056450 0.752890 0.823790 -0.463700
O8    O     O_R   0.943550 0.752890 0.176210 -0.469269
O9    O     O_R   0.545750 0.051070 0.830560 -0.507134
O10   O     O_R   0.454250 0.051070 0.169440 -0.511064
O11   O     O_R   0.045750 0.551070 0.830560 -0.502689
O12   O     O_R   0.954250 0.551070 0.169440 -0.515220
O13   O     O_R   0.681210 0.959150 0.825320 -0.503277
O14   O     O_R   0.318790 0.959150 0.174680 -0.502281
O15   O     O_R   0.181210 0.459150 0.825320 -0.509127
O16   O     O_R   0.818790 0.459150 0.174680 -0.510582
O17   O     O_3   0.667820 0.167810 0.749960 -0.338899
O18   O     O_3   0.332180 0.167810 0.250040 -0.343735
O19   O     O_3   0.167820 0.667810 0.749960 -0.349746
O20   O     O_3   0.832180 0.667810 0.250040 -0.324501
O21   O     O_R   0.765670 0.292090 0.675090 -0.505791
O22   O     O_R   0.234330 0.292090 0.324910 -0.459897
O23   O     O_R   0.265670 0.792090 0.675090 -0.495606
O24   O     O_R   0.734330 0.792090 0.324910 -0.510452
O25   O     O_R   0.670220 0.409020 0.668560 -0.433177
O26   O     O_R   0.329780 0.409020 0.331440 -0.424810
O27   O     O_R   0.170220 0.909020 0.668560 -0.411031
O28   O     O_R   0.829780 0.909020 0.331440 -0.444356
O29   O     O_R   0.556580 0.251590 0.674980 -0.510689
O30   O     O_R   0.443420 0.251590 0.325020 -0.521773
O31   O     O_R   0.056580 0.751590 0.674980 -0.509416
O32   O     O_R   0.943420 0.751590 0.325020 -0.521431
O33   O     O_R   0.545890 0.049670 0.670030 -0.500868
O34   O     O_R   0.454110 0.049670 0.329970 -0.511731
O35   O     O_R   0.045890 0.549670 0.670030 -0.513894
O36   O     O_R   0.954110 0.549670 0.329970 -0.470564
O37   O     O_R   0.681340 0.957860 0.676500 -0.455063
O38   O     O_R   0.318660 0.957860 0.323500 -0.460908
O39   O     O_R   0.181340 0.457860 0.676500 -0.559854
O40   O     O_R   0.818660 0.457860 0.323500 -0.461341
O41   O     O_R   0.787380 0.044010 0.830940 -0.492679
O42   O     O_R   0.212620 0.044010 0.169060 -0.491948
O43   O     O_R   0.287380 0.544010 0.830940 -0.491900
O44   O     O_R   0.712620 0.544010 0.169060 -0.478013
O45   O     O_R   0.765540 0.293390 0.823910 -0.462959
O46   O     O_R   0.234460 0.293390 0.176090 -0.465054
O47   O     O_R   0.265540 0.793390 0.823910 -0.460028
O48   O     O_R   0.734460 0.793390 0.176090 -0.466418
O49   O     O_R   0.670090 0.410410 0.829090 -0.479519
O50   O     O_R   0.329910 0.410410 0.170910 -0.476627
O51   O     O_R   0.170090 0.910410 0.829090 -0.483766
O52   O     O_R   0.829910 0.910410 0.170910 -0.482778
C101  C     C_2   0.469384 0.940947 0.567734 0.250165
H17   H     H_    0.436160 0.965911 0.611424 0.140350
O53   O     O_2   0.472764 0.836019 0.552856 -0.549301
C102  C     C_2   0.542868 0.929585 0.413607 0.255469
H18   H     H_    0.566880 0.942692 0.362085 0.138532
O54   O     O_2   0.535239 0.828135 0.434647 -0.549944
C103  C     C_2   0.065712 0.420108 0.546879 0.274860
H19   H     H_    0.094898 0.401395 0.595013 0.134436
O55   O     O_2   0.029639 0.340628 0.521147 -0.509830
C104  C     C_2   0.079510 0.459923 0.387131 0.335641
H20   H     H_    0.073930 0.474830 0.329763 0.139839
O56   O     O_2   0.108805 0.369549 0.407272 -0.471033
O57   O     O_3   0.765430 0.127173 0.113697 -0.504811
C105  C     C_3   0.706171 0.194394 0.129999 -0.071112
H21   H     H_    0.665728 0.137821 0.154666 0.153626
H22   H     H_    0.684365 0.241286 0.081877 0.101949
H23   H     H_    0.721637 0.263109 0.169962 0.164233
O58   O     O_3   0.234209 0.126587 0.886292 -0.502989
C106  C     C_3   0.293418 0.195051 0.870230 -0.061942
H24   H     H_    0.334773 0.139011 0.847248 0.160193
H25   H     H_    0.313959 0.244042 0.918166 0.096266
H26   H     H_    0.278342 0.262001 0.829028 0.168679
O59   O     O_3   0.265217 0.627219 0.113816 -0.497397
C107  C     C_3   0.206028 0.694927 0.129715 -0.062053
H27   H     H_    0.164921 0.638499 0.153342 0.154848
H28   H     H_    0.185154 0.742968 0.081598 0.095817
H29   H     H_    0.221230 0.762661 0.170411 0.170201
O60   O     O_3   0.734302 0.626612 0.886269 -0.498494
C108  C     C_3   0.793459 0.695491 0.870589 -0.059850
H30   H     H_    0.835115 0.639753 0.847916 0.158154
H31   H     H_    0.813575 0.744661 0.918636 0.095290
H32   H     H_    0.778481 0.762306 0.829270 0.171617
C109  C     C_2   0.646376 0.752343 0.066317 0.255347
H33   H     H_    0.636574 0.674544 0.033818 0.141815
O61   O     O_2   0.618649 0.754052 0.124449 -0.424957
C110  C     C_2   0.353029 0.752464 0.934208 0.254452
H34   H     H_    0.362607 0.674965 0.967033 0.141435
O62   O     O_2   0.380716 0.753675 0.876050 -0.424092
C111  C     C_2   0.146411 0.252277 0.066301 0.255126
H35   H     H_    0.136634 0.174489 0.033788 0.142263
O63   O     O_2   0.118684 0.253918 0.124433 -0.425135
C112  C     C_2   0.853063 0.252527 0.934169 0.255469
H36   H     H_    0.862655 0.174991 0.966958 0.142451
O64   O     O_2   0.880754 0.253821 0.876013 -0.426995
C113  C     C_2   0.625223 0.832248 0.921580 0.262264
H37   H     H_    0.587896 0.888686 0.895400 0.163893
O65   O     O_2   0.617956 0.725578 0.914167 -0.503788
C114  C     C_2   0.374549 0.833075 0.078557 0.263053
H38   H     H_    0.412077 0.889948 0.104291 0.163820
O66   O     O_2   0.381697 0.726497 0.086339 -0.500029
C115  C     C_2   0.125213 0.332288 0.921589 0.256066
H39   H     H_    0.087904 0.388751 0.895408 0.164167
O67   O     O_2   0.117906 0.225625 0.914185 -0.510861
C116  C     C_2   0.874585 0.333123 0.078534 0.258843
H40   H     H_    0.912047 0.390035 0.104329 0.164060
O68   O     O_2   0.881858 0.226549 0.086208 -0.505404
C117  C     C_2   0.639073 0.796704 0.578894 0.238710
H41   H     H_    0.590874 0.796933 0.549427 0.201423
O69   O     O_2   0.642406 0.748358 0.637639 -0.459207
C118  C     C_2   0.359980 0.817923 0.423109 0.255825
H42   H     H_    0.407606 0.853776 0.444752 0.181588
O70   O     O_2   0.360619 0.755850 0.369277 -0.432761
C119  C     C_2   0.197283 0.216581 0.602773 0.219510
H43   H     H_    0.155231 0.238949 0.637784 0.131915
O71   O     O_2   0.223482 0.118491 0.607299 -0.490988
C120  C     C_2   0.885298 0.433923 0.455698 0.274385
H44   H     H_    0.913158 0.499930 0.487766 0.110220
O72   O     O_2   0.916078 0.377835 0.410651 -0.440196
O73   O     O_3   0.867214 0.011531 0.447086 -0.577223
C121  C     C_3   0.882745 0.116513 0.485085 -0.058777
H45   H     H_    0.923571 0.101424 0.527085 0.170915
H46   H     H_    0.835716 0.157559 0.507820 0.130097
H47   H     H_    0.905455 0.178896 0.446776 0.216378
O74   O     O_3   0.110672 0.959446 0.550798 -0.562871
C122  C     C_3   0.085754 0.067686 0.521494 -0.009847
H48   H     H_    0.042038 0.052534 0.483401 0.155156
H49   H     H_    0.125344 0.119861 0.493735 0.166994
H50   H     H_    0.065379 0.122082 0.565717 0.149345
O75   O     O_3   0.369901 0.515033 0.441298 -0.543329
C123  C     C_3   0.411301 0.596398 0.481172 0.001663
H51   H     H_    0.451917 0.557068 0.514451 0.135806
H52   H     H_    0.379370 0.652533 0.515245 0.170384
H53   H     H_    0.443037 0.647946 0.443595 0.200986
O76   O     O_3   0.615909 0.434131 0.536775 -0.570498
C124  C     C_3   0.612108 0.553657 0.514895 -0.087249
H54   H     H_    0.597046 0.562262 0.457301 0.163623
H55   H     H_    0.662731 0.599793 0.524187 0.135747
H56   H     H_    0.571219 0.596835 0.546193 0.164610
O77   O     O_3   0.877457 0.946495 0.599079 -0.584398
C125  C     C_3   0.884440 0.868463 0.660184 -0.102822
H57   H     H_    0.940154 0.856888 0.674325 0.153989
H58   H     H_    0.860967 0.778890 0.650892 0.096020
H59   H     H_    0.864378 0.905996 0.710266 0.169272
O78   O     O_3   0.116049 0.939298 0.398447 -0.562350
C126  C     C_3   0.109733 0.862033 0.338236 -0.078283
H60   H     H_    0.054400 0.857889 0.321401 0.162316
H61   H     H_    0.128701 0.770402 0.349697 0.087071
H62   H     H_    0.135794 0.896686 0.290351 0.157317
O79   O     O_3   0.382765 0.477036 0.600675 -0.582934
C127  C     C_3   0.398189 0.401492 0.661366 -0.088238
H63   H     H_    0.455074 0.396855 0.670430 0.144987
H64   H     H_    0.377955 0.309006 0.655362 0.090863
H65   H     H_    0.380567 0.439156 0.712553 0.179024
O80   O     O_3   0.634637 0.375493 0.391364 -0.557313
C128  C     C_3   0.644708 0.279958 0.343365 -0.092760
H66   H     H_    0.597137 0.269632 0.309034 0.151167
H67   H     H_    0.653640 0.194638 0.372505 0.098637
H68   H     H_    0.688031 0.296888 0.306541 0.126366
C129  C     C_2   0.462805 0.958763 0.928266 0.236321
H69   H     H_    0.470942 0.871116 0.950443 0.111702
O81   O     O_2   0.427043 0.969855 0.873554 -0.452968
C130  C     C_2   0.537767 0.959831 0.072573 0.238027
H70   H     H_    0.529567 0.872032 0.050647 0.113650
O82   O     O_2   0.573459 0.971494 0.127303 -0.462713
C131  C     C_2   0.962847 0.458830 0.928349 0.235732
H71   H     H_    0.970966 0.371156 0.950491 0.111766
O83   O     O_2   0.927033 0.470011 0.873681 -0.452238
C132  C     C_2   0.037777 0.459701 0.072663 0.237745
H72   H     H_    0.029576 0.371942 0.050679 0.114172
O84   O     O_2   0.073365 0.471218 0.127475 -0.463838
O85   O     O_3   0.478719 0.383960 0.072324 -0.549848
C133  C     C_3   0.418944 0.438250 0.041462 -0.039794
H73   H     H_    0.401324 0.507143 0.078844 0.232542
H74   H     H_    0.375436 0.373777 0.032455 0.076246
H75   H     H_    0.430598 0.485151 0.990856 0.162602
O86   O     O_3   0.519898 0.383860 0.926458 -0.556601
C134  C     C_3   0.579197 0.440599 0.957093 -0.037983
H76   H     H_    0.597111 0.508042 0.918688 0.234208
H77   H     H_    0.622835 0.377565 0.967787 0.078582
H78   H     H_    0.566683 0.489400 0.006667 0.165292
O87   O     O_3   0.979015 0.883957 0.072454 -0.553778
C135  C     C_3   0.919243 0.938347 0.041655 -0.040168
H79   H     H_    0.901660 0.007185 0.079095 0.231724
H80   H     H_    0.875709 0.873931 0.032629 0.078898
H81   H     H_    0.930896 0.985317 0.991070 0.163043
O88   O     O_3   0.020124 0.883856 0.926567 -0.556264
C136  C     C_3   0.079436 0.940537 0.957215 -0.039448
H82   H     H_    0.097353 0.008021 0.918838 0.233213
H83   H     H_    0.123063 0.877468 0.967876 0.078661
H84   H     H_    0.066946 0.989298 0.006809 0.164613

loop_
_geom_bond_atom_site_label_1
_geom_bond_atom_site_label_2
_ccdc_geom_bond_type
C49   H1    S    
C122  H49   S    
C55   C59   A    
C105  H22   S    
C99   C103  S    
Cr11  O11   S    
O85   C133  S    
C5    H7    S    
C37   C41   A    
O80   C128  S    
C5    C6    S    
C105  H23   S    
C121  H46   S    
O78   C126  S    
C63   C111  S    
C9    C13   A    
C11   C15   A    
C126  H60   S    
C6    C94   S    
C48   C91   S    
C104  O56   D    
C91   C100  A    
C13   H13   S    
C121  H47   S    
C67   C115  S    
C106  H24   S    
C49   C69   A    
C40   C83   S    
C116  O68   D    
C44   O88   S    
C114  O66   D    
C114  H38   S    
C63   C67   A    
C101  O53   D    
C25   C29   A    
Cr12  O36   S    
C100  C104  S    
C27   C31   A    
Cr10  O10   S    
C15   H15   S    
Cr5   O49   S    
C109  H33   S    
C17   C21   A    
O88   C136  S    
C50   H2    S    
C82   O6    A    
C136  H84   S    
C15   C19   A    
C43   C44   A    
C52   C72   A    
C10   C30   A    
C68   C72   A    
C87   O43   A    
Cr7   O31   S    
O86   C134  S    
C65   C113  S    
C45   C90   S    
C58   C79   S    
C38   C81   S    
C125  H58   S    
Cr11  O39   S    
C132  H72   S    
Cr5   O5    S    
C28   O80   S    
C1    C20   S    
Cr7   O51   S    
C2    C19   S    
Cr9   O17   S    
Cr2   O2    S    
C7    H11   S    
C39   C43   A    
C57   C61   A    
C48   O36   A    
C59   C63   A    
C33   C38   A    
C14   H14   S    
C60   C64   A    
Cr4   O24   S    
C130  O82   D    
C35   C40   A    
C50   C70   A    
C128  H67   S    
C66   C70   A    
C49   C53   A    
C76   O40   A    
C51   C55   A    
C22   C26   A    
C61   C65   A    
C82   O10   A    
O57   C105  S    
C25   O77   S    
Cr8   O20   S    
C2    O22   A    
Cr5   O25   S    
C104  H20   S    
C11   C119  S    
C47   C92   S    
C7    H5    S    
Cr1   O45   S    
C97   C98   A    
Cr10  O34   S    
Cr3   O19   S    
C7    C8    S    
Cr4   O48   S    
C46   C89   S    
C47   O31   A    
C48   O32   A    
Cr1   O17   S    
O73   C121  S    
C64   C68   A    
C110  O62   D    
C39   C84   S    
C30   C74   S    
C46   O30   A    
C92   C96   A    
C135  H79   S    
C45   O33   A    
C102  O54   D    
O76   C124  S    
C106  H26   S    
Cr11  O15   S    
C2    O26   A    
C117  H41   S    
Cr3   O43   S    
C57   C80   S    
C61   C109  S    
C59   C78   S    
C33   C34   A    
C4    O24   A    
C133  H74   S    
C62   C66   A    
C12   C16   A    
C126  H62   S    
C45   O29   A    
C127  H63   S    
C73   O37   A    
C10   C14   A    
C85   O13   A    
C77   O49   A    
C36   C132  S    
C108  H30   S    
C64   C112  S    
C112  O64   D    
C124  H55   S    
C26   C30   A    
C9    C117  S    
C69   C85   S    
C111  H35   S    
C21   C25   A    
C120  H44   S    
C86   O42   A    
C36   C39   A    
C24   C28   A    
C123  H51   S    
C32   C76   S    
C81   O5    A    
C135  H81   S    
C13   C17   A    
C89   C98   A    
C134  H78   S    
C74   O2    A    
C76   O4    A    
C12   C120  S    
C118  H42   S    
C113  O65   D    
C98   C102  S    
Cr7   O27   S    
C91   C95   A    
C40   C44   A    
C107  H27   S    
C66   C114  S    
Cr9   O13   S    
Cr10  O18   S    
Cr3   O3    S    
Cr6   O50   S    
C122  H48   S    
C92   C99   A    
Cr1   O1    S    
C58   C62   A    
Cr2   O42   S    
C34   C37   A    
C53   O57   S    
C41   C42   A    
Cr4   O20   S    
C35   C36   A    
C127  H65   S    
O87   C135  S    
C83   O11   A    
C101  H17   S    
C81   O9    A    
C50   C54   A    
C51   C71   A    
C119  H43   S    
C108  H32   S    
C136  H83   S    
Cr12  O12   S    
Cr7   O7    S    
Cr5   O29   S    
O60   C108  S    
Cr6   O26   S    
O79   C127  S    
Cr1   O41   S    
C90   C97   A    
Cr3   O23   S    
Cr4   O44   S    
C47   O35   A    
C109  O61   D    
C105  H21   S    
C122  H50   S    
C18   C22   A    
O77   C125  S    
C125  H59   S    
C132  O84   D    
C123  H53   S    
C90   C94   A    
C52   H4    S    
C73   O1    A    
C134  H76   S    
C131  O83   D    
C131  H71   S    
C53   C57   A    
C8    H12   S    
C121  H45   S    
C51   H3    S    
C56   C60   A    
C128  H66   S    
Cr11  O19   S    
Cr7   O19   S    
C31   C75   S    
Cr8   O28   S    
C107  H29   S    
C28   C32   A    
Cr5   O17   S    
Cr3   O47   S    
C115  O67   D    
C1    O25   A    
Cr9   O37   S    
Cr2   O22   S    
C71   C87   S    
C4    C17   S    
C4    O28   A    
C37   C82   S    
C116  H40   S    
C74   O38   A    
C86   O14   A    
C35   C131  S    
C84   O8    A    
C77   O45   A    
C78   O50   A    
C55   O59   S    
C54   O58   S    
C33   C129  S    
C38   C42   A    
C103  H19   S    
C65   C69   A    
C135  H80   S    
C67   C71   A    
C85   O41   A    
Cr4   O4    S    
C106  H25   S    
C125  H57   S    
O59   C107  S    
C10   C118  S    
C93   C94   A    
C88   O44   A    
C14   C18   A    
C19   C23   A    
C95   C96   A    
C8    C96   S    
C8    H6    S    
C102  H18   S    
C133  H75   S    
O74   C122  S    
C42   O86   S    
C80   O52   A    
C43   O87   S    
C130  H70   S    
C126  H61   S    
C127  H64   S    
Cr8   O8    S    
C128  H68   S    
C21   O73   S    
C29   C73   S    
Cr12  O40   S    
C5    H9    S    
Cr8   O52   S    
C3    C18   S    
Cr9   O9    S    
Cr10  O14   S    
C129  O81   D    
C20   C24   A    
C119  O71   D    
C56   O60   S    
O58   C106  S    
C23   C27   A    
C124  H54   S    
C83   O7    A    
C16   C20   A    
C11   C31   A    
C12   C32   A    
C89   C93   A    
C136  H82   S    
C6    H8    S    
C72   C88   S    
C75   O3    A    
C34   C130  S    
C120  O72   D    
C60   C77   S    
C22   O74   S    
C79   O47   A    
Cr11  O35   S    
C110  H34   S    
C80   O48   A    
C123  H52   S    
C26   O78   S    
C41   O85   S    
C27   O79   S    
Cr6   O30   S    
Cr12  O20   S    
C134  H77   S    
C111  O63   D    
C99   C100  A    
Cr6   O6    S    
C24   O76   S    
C118  O70   D    
C113  H37   S    
C16   H16   S    
C3    O27   A    
C68   C116  S    
C107  H28   S    
C117  O69   D    
C6    H10   S    
O75   C123  S    
C70   C86   S    
C129  H69   S    
C54   C58   A    
C133  H73   S    
C62   C110  S    
C1    O21   A    
C5    C93   S    
C97   C101  S    
Cr8   O32   S    
C9    C29   A    
Cr2   O46   S    
C7    C95   S    
C3    O23   A    
Cr6   O18   S    
Cr12  O16   S    
Cr9   O33   S    
Cr2   O18   S    
Cr10  O38   S    
Cr1   O21   S    
C108  H31   S    
C79   O51   A    
C112  H36   S    
C124  H56   S    
C103  O55   D    
C23   O75   S    
C84   O12   A    
C46   O34   A    
C115  H39   S    
C78   O46   A    
C75   O39   A    
C87   O15   A    
C88   O16   A    
C52   C56   A    
