data_mof_unit_24597.cif
_audit_creation_date              2012-12-11T15:52:33-0500
_audit_creation_method            fapswitch 2.2
_symmetry_space_group_name_H-M    P1
_symmetry_Int_Tables_number       1
_space_group_crystal_system       triclinic
_cell_length_a                    6.927661
_cell_length_b                    14.54917
_cell_length_c                    16.023904
_cell_angle_alpha                 90.23036
_cell_angle_beta                  90.020872
_cell_angle_gamma                 89.998965
_cell_volume                      1615.06364566

loop_
_atom_site_label
_atom_site_type_symbol
_atom_type_description
_atom_site_fract_x
_atom_site_fract_y
_atom_site_fract_z
_atom_type_partial_charge
O1    O     O_R   0.494400 0.415640 0.412830 -0.541974
O2    O     O_R   0.823920 0.405510 0.586560 -0.545844
O3    O     O_R   0.994250 0.584360 0.587170 -0.539696
C1    C     C_R   0.654867 0.383129 0.615313 0.689902
O4    O     O_R   0.824110 0.404610 0.413450 -0.543992
O5    O     O_R   0.994440 0.583460 0.412820 -0.541156
C2    C     C_R   0.655036 0.382213 0.384307 0.682026
O6    O     O_R   0.494210 0.416540 0.587180 -0.537925
O7    O     O_3   0.660810 0.558680 0.500000 -0.363760
V1    V     V_3+5 0.935650 0.489110 0.500000 1.397448
O8    O     O_R   0.324150 0.594490 0.413440 -0.545654
C3    C     C_R   0.155081 0.616634 0.384341 0.679472
O9    O     O_R   0.323970 0.595390 0.586550 -0.523305
C4    C     C_R   0.155505 0.616214 0.616636 0.677514
V2    V     V_3+5 0.435660 0.510890 0.500000 1.422568
O10   O     O_3   0.160630 0.441320 0.500000 -0.373085
C5    C     C_3   0.007612 0.651906 0.758547 -0.345561
H1    H     H_    0.859324 0.645892 0.732666 0.204451
H2    H     H_    0.042204 0.582000 0.780885 0.101294
C6    C     C_3   0.002865 0.721294 0.832431 -0.338614
H3    H     H_    0.058905 0.687969 0.889885 0.118826
H4    H     H_    0.850355 0.740947 0.845110 0.161775
H5    H     H_    0.910480 0.765836 0.631289 0.168092
H6    H     H_    0.896025 0.872415 0.737024 0.148568
C7    C     C_3   0.058099 0.777440 0.656716 -0.397125
C8    C     C_3   0.351754 0.709486 0.723791 0.324477
C9    C     C_3   0.145832 0.685187 0.688018 0.024207
H7    H     H_    0.422931 0.749945 0.673551 0.086967
C10   C     C_3   0.124219 0.808148 0.812255 0.069749
C11   C     C_3   0.048033 0.849261 0.729005 -0.334264
C12   C     C_3   0.337349 0.776734 0.798758 -0.362358
H8    H     H_    0.395021 0.745587 0.856816 0.141527
H9    H     H_    0.430205 0.837563 0.785887 0.119162
H10   H     H_    0.146234 0.805503 0.604657 0.122542
H11   H     H_    0.135024 0.910744 0.712184 0.128282
C13   C     C_R   0.953255 0.773712 0.215840 -0.159092
H12   H     H_    0.812421 0.792030 0.191765 0.116292
C14   C     C_R   0.964279 0.710566 0.281442 -0.153186
H13   H     H_    0.831397 0.682035 0.305693 0.117944
C15   C     C_R   0.143954 0.684563 0.315097 -0.046434
C16   C     C_R   0.312297 0.723463 0.281195 -0.159442
H14   H     H_    0.453132 0.705136 0.305263 0.115743
C17   C     C_R   0.301273 0.786612 0.215595 -0.153985
H15   H     H_    0.434155 0.815135 0.191337 0.118595
C18   C     C_R   0.121591 0.812655 0.181973 -0.048003
C19   C     C_R   0.812287 0.281475 0.722206 -0.160576
H16   H     H_    0.953032 0.306028 0.703181 0.111498
C20   C     C_R   0.801323 0.216934 0.786547 -0.153148
H17   H     H_    0.934188 0.193542 0.815033 0.117332
C21   C     C_R   0.621592 0.183387 0.813871 -0.042048
C22   C     C_R   0.453113 0.216139 0.775101 -0.170043
H18   H     H_    0.312320 0.191861 0.794337 0.116250
C23   C     C_R   0.464081 0.280697 0.710754 -0.158192
H19   H     H_    0.331195 0.304386 0.682495 0.116769
C24   C     C_R   0.643834 0.314144 0.683383 -0.043127
C25   C     C_R   0.812166 0.274261 0.281209 -0.157030
H20   H     H_    0.953004 0.292776 0.305286 0.116363
C26   C     C_R   0.801110 0.210417 0.215670 -0.152356
H21   H     H_    0.933982 0.181591 0.191486 0.118911
C27   C     C_R   0.621442 0.184065 0.182015 -0.047479
C28   C     C_R   0.453152 0.223449 0.215812 -0.156641
H22   H     H_    0.312322 0.204940 0.191722 0.116659
C29   C     C_R   0.464208 0.287296 0.281354 -0.152517
H23   H     H_    0.331344 0.316134 0.305535 0.118156
C30   C     C_R   0.643873 0.313588 0.315055 -0.046157
O11   O     O_R   0.771300 0.080930 0.910090 -0.540713
O12   O     O_R   0.441270 0.092800 0.083770 -0.542491
O13   O     O_R   0.271080 0.913920 0.084380 -0.540319
C31   C     C_R   0.610320 0.115310 0.112872 0.688969
O14   O     O_R   0.441580 0.091910 0.910670 -0.543086
O15   O     O_R   0.271390 0.913020 0.910040 -0.540914
C32   C     C_R   0.610624 0.114382 0.881964 0.684588
O16   O     O_R   0.770990 0.081830 0.084440 -0.539961
O17   O     O_3   0.604750 0.938760 0.997250 -0.369605
V3    V     V_3+5 0.329850 0.008280 0.997210 1.390486
O18   O     O_R   0.941680 0.901940 0.910610 -0.544091
C33   C     C_R   0.111123 0.878879 0.882276 0.674784
O19   O     O_R   0.941370 0.902830 0.083720 -0.543450
C34   C     C_R   0.110448 0.880671 0.112803 0.684100
V4    V     V_3+5 0.829860 0.986420 0.997150 1.388438
O20   O     O_3   0.104830 0.056030 0.997180 -0.367948
O21   O     O_3   0.483177 0.635523 0.737091 -0.578951
C35   C     C_3   0.418754 0.567789 0.793457 0.089774
H24   H     H_    0.331634 0.516074 0.758810 0.117212
H25   H     H_    0.334104 0.596634 0.846117 0.117467
C36   C     C_3   0.594283 0.518978 0.830316 -0.311467
H26   H     H_    0.680943 0.487821 0.779192 0.191516
H27   H     H_    0.686098 0.569826 0.863720 0.190428
C37   C     C_3   0.534367 0.444012 0.891411 -0.828821
H28   H     H_    0.459725 0.474852 0.946099 0.224266
H29   H     H_    0.664428 0.406757 0.913580 0.234772
H30   H     H_    0.436041 0.394093 0.860663 0.239427

loop_
_geom_bond_atom_site_label_1
_geom_bond_atom_site_label_2
_ccdc_geom_bond_type
C14   C15   A    
C29   C30   A    
C16   H14   S    
C1    O6    A    
C23   H19   S    
O13   V3    S    
C8    C9    S    
C11   H11   S    
C13   H12   S    
O5    C3    A    
C14   H13   S    
O19   V4    S    
C26   C27   A    
V2    O10   S    
C5    C6    S    
C25   H20   S    
C28   C29   A    
C21   C32   S    
O1    C2    A    
O8    V2    S    
O11   C32   A    
C35   H24   S    
C19   C24   A    
C12   H9    S    
C31   O16   A    
O1    V2    S    
C4    C9    S    
C37   H29   S    
O7    V1    S    
C7    H10   S    
O13   C34   A    
C20   C21   A    
C8    C12   S    
C8    O21   S    
O17   V4    S    
O9    C4    A    
C16   C17   A    
C21   C22   A    
C6    C10   S    
C23   C24   A    
C19   C20   A    
O17   V3    S    
C22   H18   S    
C5    C9    S    
O18   C33   A    
O4    C2    A    
C36   H26   S    
V3    O20   S    
C26   H21   S    
C27   C28   A    
O12   C31   A    
C3    C15   S    
O2    C1    A    
C17   H15   S    
C10   C11   S    
C2    C30   S    
C12   H8    S    
C5    H1    S    
C13   C18   A    
C18   C34   S    
C37   H30   S    
C17   C18   A    
O3    C4    A    
C20   H17   S    
C35   H25   S    
C6    H4    S    
O6    V2    S    
O9    V2    S    
C1    C24   S    
O12   V3    S    
O2    V1    S    
O15   C33   A    
C7    C11   S    
C19   H16   S    
C15   C16   A    
O19   C34   A    
O18   V4    S    
V4    O20   S    
C36   C37   S    
O5    V1    S    
O8    C3    A    
C7    C9    S    
O11   V4    S    
C8    H7    S    
C13   C14   A    
O7    V2    S    
O4    V1    S    
C10   C12   S    
O3    V1    S    
V1    O10   S    
O15   V3    S    
C27   C31   S    
C5    H2    S    
O16   V4    S    
C25   C26   A    
C36   H27   S    
H5    C7    S    
C28   H22   S    
H6    C11   S    
C29   H23   S    
C35   C36   S    
C10   C33   S    
C6    H3    S    
O21   C35   S    
O14   V3    S    
O14   C32   A    
C22   C23   A    
C37   H28   S    
C25   C30   A    
