data_mof_unit_63446.cif
_audit_creation_date              2012-12-10T18:39:43-0500
_audit_creation_method            fapswitch 2.2
_symmetry_space_group_name_H-M    P1
_symmetry_Int_Tables_number       1
_space_group_crystal_system       triclinic
_cell_length_a                    30.115798
_cell_length_b                    30.183416
_cell_length_c                    24.611796
_cell_angle_alpha                 89.975076
_cell_angle_beta                  127.995855
_cell_angle_gamma                 89.999428
_cell_volume                      17630.421391

loop_
_atom_site_label
_atom_site_type_symbol
_atom_type_description
_atom_site_fract_x
_atom_site_fract_y
_atom_site_fract_z
_atom_type_partial_charge
C1    C     C_R   0.810638 0.810760 0.499580 0.897873
C2    C     C_R   0.189417 0.810762 0.500513 0.898924
C3    C     C_R   0.310603 0.310762 0.499522 0.898559
C4    C     C_R   0.689406 0.310762 0.500495 0.899261
C5    C     C_R   0.648653 0.753723 0.290597 -0.202752
C6    C     C_R   0.350818 0.753890 0.709299 -0.195478
C7    C     C_R   0.149111 0.253916 0.290687 -0.195818
C8    C     C_R   0.851246 0.253721 0.709376 -0.202358
C9    C     C_R   0.461168 0.756532 0.930233 0.331114
C10   C     C_R   0.535386 0.756333 0.069973 0.321748
C11   C     C_R   0.964309 0.256395 0.929995 0.321729
C12   C     C_R   0.038559 0.256603 0.069735 0.331006
C13   C     C_3   0.886340 0.873491 0.559855 0.492694
C14   C     C_3   0.109813 0.870449 0.438580 0.495531
C15   C     C_3   0.388946 0.371439 0.561006 0.494084
C16   C     C_3   0.610501 0.371024 0.438817 0.494949
C17   C     C_3   0.862801 0.914474 0.513226 -0.206622
C18   C     C_3   0.132928 0.913611 0.479936 -0.209640
C19   C     C_3   0.365636 0.413931 0.517851 -0.207498
C20   C     C_3   0.633735 0.413797 0.481189 -0.209219
C21   C     C_3   0.905273 0.905288 0.499524 -0.047282
C22   C     C_3   0.094829 0.905303 0.500623 -0.046410
C23   C     C_3   0.405215 0.405305 0.499461 -0.046690
C24   C     C_3   0.594812 0.405298 0.500605 -0.047122
C25   C     C_3   0.929840 0.864948 0.547807 -0.236886
C26   C     C_3   0.070579 0.862701 0.457572 -0.234876
C27   C     C_3   0.429627 0.363400 0.544300 -0.235767
C28   C     C_3   0.570461 0.363101 0.456544 -0.235391
C29   C     C_3   0.886618 0.835487 0.485019 -0.223962
C30   C     C_3   0.117907 0.836379 0.522157 -0.226522
C31   C     C_3   0.383630 0.336063 0.480221 -0.225627
C32   C     C_3   0.617053 0.336183 0.520852 -0.226167
C33   C     C_3   0.862803 0.876334 0.436728 -0.143397
C34   C     C_3   0.141417 0.879494 0.565253 -0.142169
C35   C     C_3   0.359959 0.378478 0.435346 -0.143048
C36   C     C_3   0.640663 0.378892 0.564953 -0.141522
C37   C     C_3   0.819832 0.884689 0.450543 -0.217308
C38   C     C_3   0.180012 0.886983 0.544479 -0.216525
C39   C     C_3   0.319883 0.386280 0.453832 -0.217279
C40   C     C_3   0.680083 0.386570 0.545446 -0.215613
C41   C     C_3   0.844091 0.844354 0.498717 -0.009716
C42   C     C_3   0.156063 0.844383 0.501501 -0.010504
C43   C     C_3   0.343993 0.344377 0.498587 -0.010084
C44   C     C_3   0.656034 0.344376 0.501463 -0.010792
C45   C     C_R   0.683561 0.750866 0.365606 0.867968
C46   C     C_R   0.316403 0.750854 0.634376 0.865819
C47   C     C_R   0.183582 0.250865 0.365621 0.867677
C48   C     C_R   0.816422 0.250856 0.634387 0.866121
C49   C     C_R   0.838650 0.768547 0.745907 -0.246718
C50   C     C_R   0.161424 0.768398 0.254072 -0.249617
C51   C     C_R   0.338619 0.268451 0.745909 -0.247720
C52   C     C_R   0.661408 0.268456 0.254074 -0.249502
C53   C     C_R   0.874949 0.770898 0.817200 -0.241372
C54   C     C_R   0.125120 0.770760 0.182775 -0.241113
C55   C     C_R   0.374924 0.270808 0.817201 -0.241428
C56   C     C_R   0.625110 0.270811 0.182776 -0.240998
C57   C     C_R   0.930375 0.755343 0.854649 0.001815
C58   C     C_R   0.069604 0.755448 0.145371 0.002065
C59   C     C_R   0.430400 0.255371 0.854636 0.001930
C60   C     C_R   0.569625 0.255424 0.145362 0.002041
C61   C     C_R   0.949630 0.737081 0.819734 0.356824
C62   C     C_R   0.050255 0.737446 0.180337 0.356384
C63   C     C_R   0.449703 0.237232 0.819704 0.356418
C64   C     C_R   0.550304 0.237345 0.180317 0.356511
C65   C     C_R   0.913560 0.737273 0.746667 0.335376
C66   C     C_R   0.086350 0.737631 0.253404 0.338319
C67   C     C_R   0.413615 0.237422 0.746636 0.336615
C68   C     C_R   0.586385 0.237537 0.253383 0.338186
C69   C     C_R   0.857283 0.751611 0.710196 -0.107705
C70   C     C_R   0.142712 0.751691 0.289822 -0.106708
C71   C     C_R   0.357292 0.251628 0.710186 -0.107829
C72   C     C_R   0.642719 0.251679 0.289816 -0.106495
C73   C     C_R   0.033243 0.756857 0.069705 0.340862
C74   C     C_R   0.966742 0.756796 0.930310 0.340927
C75   C     C_R   0.533266 0.256842 0.069696 0.340872
C76   C     C_R   0.466768 0.256810 0.930300 0.340840
C77   C     C_3   0.592287 0.659888 0.465294 0.582792
C78   C     C_3   0.406772 0.660969 0.530596 0.582488
C79   C     C_3   0.092142 0.159666 0.464559 0.582802
C80   C     C_3   0.906565 0.161170 0.529779 0.582494
C81   C     C_3   0.603297 0.641346 0.531082 -0.394540
C82   C     C_3   0.393500 0.640318 0.464690 -0.396654
C83   C     C_3   0.102711 0.141527 0.530286 -0.394325
C84   C     C_3   0.892872 0.140096 0.463892 -0.396940
C85   C     C_3   0.594037 0.594731 0.499741 -0.177806
C86   C     C_3   0.405991 0.594783 0.500189 -0.178580
C87   C     C_3   0.094051 0.094720 0.499744 -0.177774
C88   C     C_3   0.906003 0.094793 0.500186 -0.178604
C89   C     C_R   0.688895 0.689231 0.499446 0.964723
C90   C     C_R   0.311113 0.689236 0.500552 0.963130
C91   C     C_R   0.188900 0.189230 0.499452 0.965044
C92   C     C_R   0.811115 0.189237 0.500552 0.962744
C93   C     C_3   0.581731 0.613540 0.433249 -0.291669
C94   C     C_3   0.420520 0.615722 0.566705 -0.290093
C95   C     C_3   0.082180 0.113123 0.433296 -0.291755
C96   C     C_3   0.920944 0.116159 0.566664 -0.289962
C97   C     C_3   0.645366 0.608829 0.467540 -0.387386
C98   C     C_3   0.357934 0.609955 0.536638 -0.386595
C99   C     C_3   0.145985 0.108629 0.468356 -0.387432
C100  C     C_3   0.858589 0.110195 0.537442 -0.386483
C101  C     C_3   0.656603 0.590021 0.533296 0.550829
C102  C     C_3   0.344466 0.589026 0.470780 0.552262
C103  C     C_3   0.156786 0.090226 0.534056 0.550789
C104  C     C_3   0.844707 0.088840 0.471606 0.552510
C105  C     C_3   0.665979 0.636271 0.563627 0.349413
C106  C     C_3   0.331918 0.634226 0.436372 0.350144
C107  C     C_3   0.165574 0.136662 0.563603 0.349192
C108  C     C_3   0.831532 0.133814 0.436418 0.350476
C109  C     C_3   0.654912 0.655516 0.498851 -0.145442
C110  C     C_3   0.345161 0.655559 0.501183 -0.146092
C111  C     C_3   0.154932 0.155508 0.498871 -0.145312
C112  C     C_3   0.845177 0.155567 0.501194 -0.146304
C113  C     C_R   0.439265 0.560837 0.499986 0.952305
C114  C     C_R   0.560756 0.560809 0.499991 0.950322
C115  C     C_R   0.939272 0.060842 0.499986 0.952467
C116  C     C_R   0.060763 0.060803 0.499992 0.949959
C117  C     C_R   0.939155 0.939052 0.499875 0.904456
C118  C     C_R   0.060884 0.939068 0.500162 0.902371
C119  C     C_R   0.439132 0.439067 0.499865 0.904382
C120  C     C_R   0.560878 0.439064 0.500159 0.902799
C121  C     C_R   0.817957 0.750451 0.634639 0.974159
C122  C     C_R   0.182045 0.750475 0.365367 0.976484
C123  C     C_R   0.317959 0.250455 0.634636 0.975442
C124  C     C_R   0.682046 0.250473 0.365365 0.976079
C125  C     C_R   0.633277 0.795099 0.256190 0.349711
C126  C     C_R   0.364373 0.795254 0.743323 0.343628
C127  C     C_R   0.135442 0.295291 0.256602 0.343565
C128  C     C_R   0.866319 0.295097 0.743672 0.349760
C129  C     C_R   0.597216 0.796160 0.183927 0.526843
C130  C     C_R   0.398956 0.796440 0.815672 0.523555
C131  C     C_R   0.100784 0.296495 0.184249 0.523591
C132  C     C_R   0.902297 0.296175 0.815933 0.526840
C133  C     C_R   0.575800 0.756225 0.145902 -0.121783
C134  C     C_R   0.421439 0.756615 0.854063 -0.116299
C135  C     C_R   0.078343 0.256674 0.145909 -0.116425
C136  C     C_R   0.923933 0.256261 0.854060 -0.121777
C137  C     C_R   0.593418 0.715590 0.181056 -0.227942
C138  C     C_R   0.406028 0.715996 0.819002 -0.230275
C139  C     C_R   0.093871 0.216046 0.181031 -0.230412
C140  C     C_R   0.906602 0.215617 0.819001 -0.227662
C141  C     C_R   0.629658 0.714385 0.252618 -0.234978
C142  C     C_R   0.370703 0.714669 0.747502 -0.236464
C143  C     C_R   0.129264 0.214703 0.252534 -0.235308
C144  C     C_R   0.870441 0.214393 0.747442 -0.236182
H1    H     H_    0.774250 0.891672 0.410750 0.169167
H2    H     H_    0.225394 0.895819 0.580134 0.170832
H3    H     H_    0.274388 0.394544 0.416756 0.170051
H4    H     H_    0.725536 0.395070 0.581895 0.170989
H5    H     H_    0.795760 0.780158 0.718579 0.193690
H6    H     H_    0.204385 0.779804 0.281377 0.192986
H7    H     H_    0.295690 0.279963 0.718589 0.193725
H8    H     H_    0.704345 0.279924 0.281385 0.192927
H9    H     H_    0.859349 0.784723 0.843173 0.185721
H10   H     H_    0.140788 0.784390 0.156763 0.185504
H11   H     H_    0.359287 0.284539 0.843183 0.185672
H12   H     H_    0.640757 0.284499 0.156772 0.185554
H13   H     H_    0.585687 0.653502 0.556855 0.156674
H14   H     H_    0.408467 0.651585 0.435515 0.159073
H15   H     H_    0.084613 0.153840 0.555409 0.156194
H16   H     H_    0.907318 0.151173 0.434070 0.159609
H17   H     H_    0.546025 0.603711 0.379836 0.179396
H18   H     H_    0.458014 0.607664 0.620051 0.180152
H19   H     H_    0.046824 0.102957 0.379903 0.179511
H20   H     H_    0.958771 0.108454 0.619962 0.180001
H21   H     H_    0.663154 0.596726 0.441962 0.180770
H22   H     H_    0.342736 0.598744 0.565571 0.179238
H23   H     H_    0.164254 0.096367 0.443422 0.181046
H24   H     H_    0.843901 0.099175 0.567013 0.179003
H25   H     H_    0.578178 0.684516 0.153232 0.187085
H26   H     H_    0.421572 0.684936 0.846873 0.187367
H27   H     H_    0.078363 0.184987 0.153208 0.187449
H28   H     H_    0.922008 0.184556 0.846896 0.187116
H29   H     H_    0.641576 0.682571 0.278500 0.177209
H30   H     H_    0.360111 0.682856 0.721857 0.175857
H31   H     H_    0.139938 0.182882 0.278223 0.176397
H32   H     H_    0.858742 0.182580 0.721634 0.176628
H33   H     H_    0.854519 0.947329 0.525638 0.161218
H34   H     H_    0.137599 0.945693 0.461833 0.155377
H35   H     H_    0.359740 0.446292 0.534083 0.158774
H36   H     H_    0.639087 0.446045 0.464124 0.156159
H37   H     H_    0.975355 0.857998 0.588109 0.154735
H38   H     H_    0.025211 0.853895 0.421410 0.151808
H39   H     H_    0.475092 0.355169 0.581886 0.153009
H40   H     H_    0.525033 0.354628 0.419585 0.152465
H41   H     H_    0.895303 0.802642 0.473078 0.169121
H42   H     H_    0.112873 0.804252 0.539798 0.167166
H43   H     H_    0.389895 0.303678 0.464440 0.167851
H44   H     H_    0.611330 0.303901 0.537455 0.167829
H45   H     H_    0.853954 0.878328 0.385833 0.158967
H46   H     H_    0.153657 0.884032 0.617651 0.159975
H47   H     H_    0.348818 0.382189 0.383378 0.159400
H48   H     H_    0.652292 0.382946 0.617119 0.160630
N1    N     N_R   0.527496 0.719414 0.033539 -0.182526
N2    N     N_R   0.491137 0.719528 0.965050 -0.180801
N3    N     N_R   0.008874 0.219518 0.034976 -0.180894
N4    N     N_R   0.972502 0.219399 0.966489 -0.182577
N5    N     N_R   0.468820 0.793237 0.966821 -0.117293
N6    N     N_R   0.505030 0.793124 0.035229 -0.103834
N7    N     N_R   0.994367 0.293275 0.964681 -0.103818
N8    N     N_R   0.030589 0.293393 0.033088 -0.117034
N9    N     N_R   0.023638 0.757165 0.968231 -0.085289
N10   N     N_R   0.976350 0.757463 0.031783 -0.084959
N11   N     N_R   0.523663 0.257262 0.968223 -0.085021
N12   N     N_R   0.476372 0.257364 0.031771 -0.085130
N13   N     N_R   0.056291 0.757172 0.036650 -0.181026
N14   N     N_R   0.943697 0.757412 0.963364 -0.180728
N15   N     N_R   0.556314 0.257255 0.036642 -0.180868
N16   N     N_R   0.443721 0.257326 0.963353 -0.180944
O1    O     O_R   0.822760 0.770240 0.499990 -0.626742
O2    O     O_R   0.177240 0.770240 0.500010 -0.623818
O3    O     O_R   0.322760 0.270240 0.499990 -0.624731
O4    O     O_R   0.677240 0.270240 0.500010 -0.624393
O5    O     O_R   0.482280 0.546460 0.557530 -0.639609
O6    O     O_R   0.517720 0.546460 0.442470 -0.640982
O7    O     O_R   0.982280 0.046460 0.557530 -0.639435
O8    O     O_R   0.017720 0.046460 0.442470 -0.641069
O9    O     O_R   0.924770 0.953450 0.442500 -0.617480
O10   O     O_R   0.075230 0.953450 0.557500 -0.618051
O11   O     O_R   0.424770 0.453450 0.442500 -0.618221
O12   O     O_R   0.575230 0.453450 0.557500 -0.617713
O13   O     O_R   0.982280 0.953430 0.557510 -0.635790
O14   O     O_R   0.017720 0.953430 0.442490 -0.636155
O15   O     O_R   0.482280 0.453430 0.557510 -0.635722
O16   O     O_R   0.517720 0.453430 0.442490 -0.636096
O17   O     O_R   0.770230 0.822760 0.499990 -0.618391
O18   O     O_R   0.229770 0.822760 0.500010 -0.623339
O19   O     O_R   0.270230 0.322760 0.499990 -0.621974
O20   O     O_R   0.729770 0.322760 0.500010 -0.622312
O21   O     O_R   0.725330 0.723740 0.398130 -0.630381
O22   O     O_R   0.274670 0.723740 0.601870 -0.631685
O23   O     O_R   0.225330 0.223740 0.398130 -0.631289
O24   O     O_R   0.774670 0.223740 0.601870 -0.630890
O25   O     O_R   0.672800 0.776260 0.398130 -0.597479
O26   O     O_R   0.327200 0.776260 0.601870 -0.597151
O27   O     O_R   0.172800 0.276260 0.398130 -0.596751
O28   O     O_R   0.827200 0.276260 0.601870 -0.597915
O29   O     O_R   0.729750 0.677220 0.500010 -0.645962
O30   O     O_R   0.270250 0.677220 0.499990 -0.644188
O31   O     O_R   0.229750 0.177220 0.500010 -0.646372
O32   O     O_R   0.770250 0.177220 0.499990 -0.643707
O33   O     O_R   0.677220 0.729740 0.500010 -0.580758
O34   O     O_R   0.322780 0.729740 0.499990 -0.580461
O35   O     O_R   0.177220 0.229740 0.500010 -0.580708
O36   O     O_R   0.822780 0.229740 0.499990 -0.580479
O37   O     O_R   0.827180 0.723730 0.601860 -0.556136
O38   O     O_R   0.172820 0.723730 0.398140 -0.554447
O39   O     O_R   0.327180 0.223730 0.601860 -0.556021
O40   O     O_R   0.672820 0.223730 0.398140 -0.554269
O41   O     O_R   0.774660 0.776250 0.601860 -0.635483
O42   O     O_R   0.225340 0.776250 0.398140 -0.637382
O43   O     O_R   0.274660 0.276250 0.601860 -0.636149
O44   O     O_R   0.725340 0.276250 0.398140 -0.637305
O45   O     O_R   0.424770 0.546480 0.442520 -0.608794
O46   O     O_R   0.575230 0.546480 0.557480 -0.605703
O47   O     O_R   0.924770 0.046480 0.442520 -0.609096
O48   O     O_R   0.075230 0.046480 0.557480 -0.605369
Zn1   Zn    Zn3+2 0.785070 0.714920 0.500000 0.999235
Zn2   Zn    Zn3+2 0.214930 0.714920 0.500000 1.001108
Zn3   Zn    Zn3+2 0.285070 0.214920 0.500000 0.999668
Zn4   Zn    Zn3+2 0.714930 0.214920 0.500000 1.001636
Zn5   Zn    Zn3+2 0.714920 0.785060 0.500000 1.032475
Zn6   Zn    Zn3+2 0.285080 0.785060 0.500000 1.029617
Zn7   Zn    Zn3+2 0.214920 0.285060 0.500000 1.030329
Zn8   Zn    Zn3+2 0.785080 0.285060 0.500000 1.030168
Zn9   Zn    Zn3+2 0.961630 0.999960 0.423200 0.969409
Zn10  Zn    Zn3+2 0.038370 0.999960 0.576800 0.971919
Zn11  Zn    Zn3+2 0.461630 0.499960 0.423200 0.968780
Zn12  Zn    Zn3+2 0.538370 0.499960 0.576800 0.972394
O49   O     O_3   0.653219 0.835095 0.290647 -0.731431
H49   H     H_    0.689072 0.830178 0.337250 0.320219
O50   O     O_3   0.344627 0.835120 0.708349 -0.739359
H50   H     H_    0.309380 0.830014 0.661291 0.321405
O51   O     O_3   0.155151 0.335152 0.291520 -0.739184
H51   H     H_    0.190443 0.330048 0.338552 0.321035
O52   O     O_3   0.846159 0.335071 0.709107 -0.731693
H52   H     H_    0.810411 0.330078 0.662443 0.320808
O53   O     O_3   0.002488 0.717921 0.857743 -0.754271
H53   H     H_    0.002592 0.694303 0.829896 0.346127
O54   O     O_3   0.997276 0.718530 0.142383 -0.753827
H54   H     H_    0.997031 0.695018 0.170281 0.346247
O55   O     O_3   0.502628 0.218192 0.857697 -0.754018
H55   H     H_    0.502807 0.194625 0.829842 0.346026
O56   O     O_3   0.497368 0.218354 0.142354 -0.753992
H56   H     H_    0.497169 0.194811 0.170250 0.346303
O57   O     O_3   0.932589 0.725099 0.710078 -0.748354
H57   H     H_    0.973550 0.731086 0.738593 0.343660
O58   O     O_3   0.067277 0.725724 0.290049 -0.745873
H58   H     H_    0.026358 0.731908 0.261551 0.344566
O59   O     O_3   0.432663 0.225377 0.710022 -0.746874
H59   H     H_    0.473600 0.231458 0.738519 0.344374
O60   O     O_3   0.567321 0.225554 0.290011 -0.746269
H60   H     H_    0.526388 0.231680 0.261500 0.344274
O61   O     O_3   0.561577 0.698586 0.429627 -0.582837
C145  C     C_3   0.505164 0.693002 0.403520 -0.270165
H61   H     H_    0.501947 0.687212 0.445596 0.141386
H62   H     H_    0.484538 0.665621 0.365247 0.155534
H63   H     H_    0.481698 0.723881 0.376590 0.200433
O62   O     O_3   0.436601 0.700682 0.562260 -0.580695
C146  C     C_3   0.491928 0.696145 0.583995 -0.270702
H64   H     H_    0.492174 0.690185 0.539621 0.142175
H65   H     H_    0.515074 0.669326 0.622945 0.154341
H66   H     H_    0.514911 0.727548 0.608768 0.201223
O63   O     O_3   0.061289 0.198154 0.428155 -0.583203
C147  C     C_3   0.004717 0.192364 0.401301 -0.269456
H67   H     H_    0.000982 0.186648 0.442965 0.141114
H68   H     H_    0.984569 0.164850 0.363235 0.155959
H69   H     H_    0.981156 0.223123 0.373931 0.200339
O64   O     O_3   0.936194 0.201073 0.560638 -0.580361
C148  C     C_3   0.991276 0.196725 0.581503 -0.271550
H70   H     H_    0.990939 0.190707 0.536705 0.142559
H71   H     H_    0.014892 0.170026 0.620558 0.153908
H72   H     H_    0.014157 0.228228 0.605841 0.201298
O65   O     O_3   0.687088 0.551548 0.570271 -0.609260
C149  C     C_3   0.740527 0.552992 0.585762 -0.267263
H73   H     H_    0.763908 0.583701 0.614162 0.196584
H74   H     H_    0.736865 0.549739 0.538160 0.156338
H75   H     H_    0.765632 0.524441 0.619510 0.196534
O66   O     O_3   0.314970 0.549398 0.437932 -0.611982
C150  C     C_3   0.262923 0.550275 0.426139 -0.270836
H76   H     H_    0.237646 0.580015 0.396116 0.198261
H77   H     H_    0.269164 0.548536 0.475549 0.156606
H78   H     H_    0.238329 0.520655 0.395436 0.195744
O67   O     O_3   0.187432 0.051988 0.571783 -0.608773
C151  C     C_3   0.241117 0.053559 0.587969 -0.267682
H79   H     H_    0.264137 0.084444 0.616060 0.196282
H80   H     H_    0.237954 0.050033 0.540738 0.156530
H81   H     H_    0.266293 0.025220 0.622260 0.196072
O68   O     O_3   0.815434 0.048997 0.439584 -0.613070
C152  C     C_3   0.763692 0.049761 0.428556 -0.271720
H82   H     H_    0.738043 0.079306 0.398264 0.198897
H83   H     H_    0.770450 0.048309 0.478301 0.156712
H84   H     H_    0.739216 0.019944 0.398453 0.196377
O69   O     O_3   0.582408 0.836756 0.150928 -0.560774
C153  C     C_3   0.622446 0.848163 0.141093 -0.222153
H85   H     H_    0.610131 0.880372 0.113629 0.201351
H86   H     H_    0.623594 0.823260 0.108615 0.137992
H87   H     H_    0.665188 0.852276 0.191195 0.168441
O70   O     O_3   0.413258 0.837035 0.848590 -0.563906
C154  C     C_3   0.369075 0.851091 0.849657 -0.217002
H88   H     H_    0.382546 0.881770 0.880919 0.198766
H89   H     H_    0.359290 0.825951 0.874060 0.133120
H90   H     H_    0.330425 0.859118 0.796997 0.180131
O71   O     O_3   0.086399 0.337102 0.151288 -0.563790
C155  C     C_3   0.130492 0.351170 0.150053 -0.216550
H91   H     H_    0.116967 0.381880 0.118801 0.198850
H92   H     H_    0.140188 0.326057 0.125546 0.133051
H93   H     H_    0.169205 0.359147 0.202670 0.180069
O72   O     O_3   0.916816 0.336770 0.848829 -0.560837
C156  C     C_3   0.876643 0.347954 0.858530 -0.222806
H94   H     H_    0.888727 0.380163 0.885914 0.201233
H95   H     H_    0.875598 0.322972 0.891026 0.138057
H96   H     H_    0.833905 0.351966 0.808376 0.168416
O73   O     O_3   0.711186 0.648977 0.630572 -0.767703
H97   H     H_    0.707674 0.630812 0.661309 0.351512
O74   O     O_3   0.284508 0.644757 0.369518 -0.766924
H98   H     H_    0.287006 0.625613 0.338783 0.351663
O75   O     O_3   0.210348 0.149785 0.630525 -0.768061
H99   H     H_    0.206638 0.131808 0.661246 0.351290
O76   O     O_3   0.783711 0.143908 0.369623 -0.766475
H100  H     H_    0.786023 0.124568 0.338909 0.351915
O77   O     O_3   0.897121 0.870540 0.623697 -0.762648
H101  H     H_    0.926249 0.893273 0.653040 0.331291
O78   O     O_3   0.094874 0.864270 0.372917 -0.763125
H102  H     H_    0.063789 0.885495 0.342694 0.331481
O79   O     O_3   0.402534 0.366302 0.626150 -0.762973
H103  H     H_    0.432989 0.388014 0.656130 0.331525
O80   O     O_3   0.596305 0.365458 0.373430 -0.763190
H104  H     H_    0.565568 0.386967 0.343341 0.331400

loop_
_geom_bond_atom_site_label_1
_geom_bond_atom_site_label_2
_ccdc_geom_bond_type
C99   C103  S    
O3    Zn3   S    
O75   H99   S    
C55   C59   A    
O60   H60   S    
C143  H31   S    
C116  O8    A    
O16   Zn11  S    
O69   C153  S    
O45   Zn11  S    
C133  C137  A    
O5    Zn12  S    
O46   Zn12  S    
C45   O21   A    
O6    Zn11  S    
O31   Zn3   S    
C85   C114  S    
C20   C40   S    
C95   C99   S    
C21   C33   S    
O50   H50   S    
C29   C33   S    
C100  C104  S    
C33   H45   S    
C20   C24   S    
C106  O74   S    
C21   C117  S    
C75   N15   A    
C147  H69   S    
N12   N16   A    
C151  H79   S    
C12   C135  S    
C139  H27   S    
C129  O69   S    
C16   C44   S    
C136  C140  A    
C122  O38   A    
N7    N8    A    
C49   C69   A    
C72   C124  S    
C130  C134  A    
O48   Zn10  S    
C51   C71   A    
C99   H23   S    
C25   C29   S    
C114  O46   A    
C24   C120  S    
C90   O30   A    
C27   C31   S    
O67   C151  S    
C28   C32   S    
C10   N1    A    
C30   C34   S    
C149  H73   S    
C98   C102  S    
O23   Zn3   S    
C17   C21   S    
C19   C23   S    
C52   C72   A    
C95   H19   S    
C78   C82   S    
O1    Zn1   S    
O63   C147  S    
C93   H17   S    
C16   C20   S    
C80   C112  S    
C119  O15   A    
C115  O7    A    
C14   C26   S    
C104  O68   S    
C87   C103  S    
C26   H38   S    
C1    C41   S    
C12   N8    A    
C141  H29   S    
O62   C146  S    
C19   H35   S    
C2    O18   A    
O25   Zn5   S    
C116  O48   A    
C17   H33   S    
C22   C118  S    
C84   C88   S    
C54   H10   S    
C57   C61   A    
C74   N9    A    
C67   O59   S    
C59   C63   A    
C60   C64   A    
C50   C70   A    
O79   H103  S    
C153  H87   S    
C66   C70   A    
C78   C94   S    
C151  H81   S    
C49   C53   A    
C74   N14   A    
O72   C156  S    
O10   Zn10  S    
C51   C55   A    
C18   C38   S    
C27   H39   S    
N3    N4    A    
C61   C65   A    
C13   O77   S    
N1    N2    A    
C68   O60   S    
C31   H43   S    
O76   H100  S    
C126  C130  A    
C103  C107  S    
C11   C136  S    
C76   N16   A    
O43   Zn7   S    
C150  H77   S    
C53   H9    S    
C156  H94   S    
C118  O14   A    
C114  O6    A    
O17   Zn5   S    
C105  O73   S    
C56   H12   S    
C7    C143  A    
C55   H11   S    
C24   C36   S    
C31   C43   S    
C64   C68   A    
C71   C123  S    
C23   C119  S    
C82   H14   S    
C65   C69   A    
C38   H2    S    
C85   C93   S    
C8    C128  A    
C87   C95   S    
C69   C121  S    
C147  H68   S    
C120  O16   A    
O53   H53   S    
C152  H83   S    
O35   Zn7   S    
C127  O51   S    
C88   C104  S    
C9    N5    A    
C127  C131  A    
C148  H71   S    
C3    O3    A    
C22   C34   S    
C81   C105  S    
C62   C66   A    
C1    O1    A    
C34   H46   S    
C8    C144  A    
C153  H85   S    
C96   H20   S    
C124  O40   A    
C77   C109  S    
C128  O52   S    
O61   C145  S    
C125  C129  A    
C122  O42   A    
C97   C109  S    
C70   C122  S    
C132  C136  A    
C99   C111  S    
C144  H32   S    
O59   H59   S    
O34   Zn6   S    
C117  O9    A    
O15   Zn12  S    
C98   H22   S    
C26   C30   S    
C156  H96   S    
C46   O26   A    
O24   Zn4   S    
C62   O54   S    
O7    Zn10  S    
C86   C102  S    
C93   C97   S    
C73   N13   A    
C92   O32   A    
C35   H47   S    
C29   C41   S    
C18   C22   S    
C107  C111  S    
C24   C28   S    
C91   O35   A    
O68   C152  S    
C108  O76   S    
C32   C36   S    
C13   C17   S    
C88   C115  S    
C90   O34   A    
C28   H40   S    
C15   C43   S    
C124  O44   A    
C2    C42   S    
C96   C100  S    
C29   H41   S    
C89   O33   A    
C82   C106  S    
C37   C41   S    
N5    N6    A    
C146  H66   S    
C130  O70   S    
O44   Zn8   S    
C77   O61   S    
O26   Zn6   S    
C154  H90   S    
C155  H91   S    
C18   H34   S    
C151  H80   S    
C5    C125  A    
O56   H56   S    
N9    N13   A    
O33   Zn5   S    
C7    C127  A    
C59   C76   S    
C81   C85   S    
C58   C62   A    
C83   C87   S    
C88   C96   S    
C98   C110  S    
O52   H52   S    
C10   C133  S    
C80   C84   S    
C13   C41   S    
O73   H97   S    
C84   H16   S    
C76   N11   A    
O19   Zn7   S    
C15   C19   S    
C50   C54   A    
C86   C113  S    
O11   Zn11  S    
C45   O25   A    
C106  C110  S    
C145  H61   S    
C94   C98   S    
C149  H74   S    
C105  C109  S    
O40   Zn4   S    
C132  O72   S    
C118  O10   A    
O27   Zn7   S    
O78   H102  S    
O36   Zn8   S    
C6    C142  A    
O37   Zn1   S    
C47   O27   A    
C149  H75   S    
C121  O37   A    
C51   H7    S    
C36   H48   S    
O49   H49   S    
C46   O22   A    
C61   O53   S    
C80   O64   S    
C107  O75   S    
C81   H13   S    
C40   H4    S    
C89   O29   A    
C126  O50   S    
C113  O45   A    
C11   N4    A    
C6    C126  A    
C145  H63   S    
C142  H30   S    
C21   C25   S    
C138  C142  A    
C3    O19   A    
C53   C57   A    
C9    N2    A    
C92   C112  S    
C4    C44   S    
C82   C86   S    
C5    C45   S    
O4    Zn4   S    
C33   C37   S    
C108  C112  S    
C16   O80   S    
C68   C72   A    
C7    C47   S    
C35   C39   S    
C146  H64   S    
C8    C48   S    
C79   C95   S    
O57   H57   S    
C15   O79   S    
C154  H88   S    
C155  H93   S    
C77   C81   S    
C120  O12   A    
O32   Zn4   S    
C87   C116  S    
C100  C112  S    
O9    Zn9   S    
O29   Zn1   S    
C12   N3    A    
C31   C35   S    
C131  O71   S    
C79   O63   S    
C104  C108  S    
C1    O17   A    
C137  C141  A    
C66   O58   S    
C140  C144  A    
C49   H5    S    
O2    Zn2   S    
O47   Zn9   S    
C73   N10   A    
C135  C139  A    
C60   C75   S    
O54   H54   S    
C79   C83   S    
O65   C149  S    
C97   H21   S    
C77   C93   S    
C84   C108  S    
C67   C71   A    
C4    O20   A    
C11   N7    A    
O8    Zn9   S    
C150  H76   S    
C56   C60   A    
C22   C26   S    
C30   C42   S    
C65   O57   S    
O20   Zn8   S    
O21   Zn1   S    
C16   C28   S    
C123  O39   A    
O71   C155  S    
C138  H26   S    
C152  H82   S    
C14   C18   S    
C117  O13   A    
O80   H104  S    
C113  O5    A    
C20   H36   S    
C148  H70   S    
C3    C43   S    
C103  O67   S    
C30   H42   S    
C14   O78   S    
C38   C42   S    
C131  C135  A    
C153  H86   S    
C47   O23   A    
C89   C109  S    
C91   C111  S    
O13   Zn10  S    
C86   C94   S    
C15   C27   S    
O42   Zn6   S    
O74   H98   S    
O30   Zn2   S    
C23   C27   S    
C80   C96   S    
C94   H18   S    
C137  H25   S    
C52   H8    S    
C14   C42   S    
C9    C134  S    
C150  H78   S    
C156  H95   S    
C119  O11   A    
C13   C25   S    
C139  C143  A    
C10   N6    A    
C25   H37   S    
C101  C105  S    
C63   C67   A    
C2    O2    A    
C32   H44   S    
O22   Zn2   S    
C36   C40   S    
O14   Zn9   S    
C39   C43   S    
O55   H55   S    
N11   N15   A    
C125  O49   S    
C57   C74   S    
C123  O43   A    
O66   C150  S    
O38   Zn2   S    
C50   H6    S    
C121  O41   A    
C40   C44   S    
O51   H51   S    
C32   C44   S    
C115  O47   A    
C78   C110  S    
C17   C37   S    
C146  H65   S    
C48   O28   A    
C19   C39   S    
C101  O65   S    
C147  H67   S    
C154  H89   S    
C155  H92   S    
O58   H58   S    
C152  H84   S    
C129  C133  A    
C90   C110  S    
C39   H3    S    
O12   Zn12  S    
C85   C101  S    
O64   C148  S    
C63   O55   S    
C54   C58   A    
C148  H72   S    
C102  O66   S    
O18   Zn6   S    
C128  C132  A    
C78   O62   S    
C6    C46   S    
C34   C38   S    
C5    C141  A    
C134  C138  A    
O39   Zn3   S    
C75   N12   A    
O28   Zn8   S    
O77   H101  S    
C23   C35   S    
C4    O4    A    
C79   C111  S    
C100  H24   S    
C37   H1    S    
C145  H62   S    
C92   O36   A    
C64   O56   S    
C83   C107  S    
C102  C106  S    
C48   O24   A    
C83   H15   S    
C140  H28   S    
O70   C154  S    
N10   N14   A    
C91   O31   A    
O41   Zn5   S    
C97   C101  S    
C52   C56   A    
C58   C73   S    
