data_mof_unit_16607.cif
_audit_creation_date              2012-12-10T20:35:55-0500
_audit_creation_method            fapswitch 2.2
_symmetry_space_group_name_H-M    P1
_symmetry_Int_Tables_number       1
_space_group_crystal_system       triclinic
_cell_length_a                    15.744218
_cell_length_b                    10.674943
_cell_length_c                    9.867655
_cell_angle_alpha                 89.93941
_cell_angle_beta                  90.180977
_cell_angle_gamma                 90.059468
_cell_volume                      1658.43316646

loop_
_atom_site_label
_atom_site_type_symbol
_atom_type_description
_atom_site_fract_x
_atom_site_fract_y
_atom_site_fract_z
_atom_type_partial_charge
C1    C     C_R   0.502491 0.259942 0.500100 0.869933
C2    C     C_3   0.951778 0.488101 0.646720 -0.425589
C3    C     C_3   0.917085 0.498938 0.499568 0.167480
C4    C     C_3   0.952180 0.617917 0.423328 0.443476
C5    C     C_3   0.050438 0.624744 0.435377 -0.565942
C6    C     C_1   0.825749 0.498834 0.500157 -0.033084
C7    C     C_1   0.174418 0.500696 0.499269 -0.049025
C8    C     C_1   0.249629 0.500495 0.499566 -0.181348
C9    C     C_R   0.514559 0.063689 0.623257 0.142524
C10   C     C_R   0.515925 0.128552 0.500867 -0.100566
C11   C     C_R   0.533604 0.064944 0.379873 -0.228932
C12   C     C_R   0.338360 0.500069 0.499886 0.908763
C13   C     C_R   0.533811 0.935389 0.379827 -0.216477
C14   C     C_R   0.516307 0.871386 0.500765 -0.100476
C15   C     C_R   0.514835 0.935924 0.623229 0.123011
C16   C     C_3   0.453072 0.928220 0.737744 -0.470417
C17   C     C_3   0.452581 0.070189 0.737509 -0.496011
C18   C     C_R   0.458972 0.407570 0.070748 0.119210
C19   C     C_R   0.546215 0.585155 0.072131 -0.102332
C20   C     C_R   0.546058 0.585362 0.928156 -0.116928
C21   C     C_R   0.459888 0.406699 0.928352 0.136306
C22   C     C_3   0.368075 0.373895 0.919860 -0.568086
C23   C     C_R   0.502713 0.740021 0.499967 0.874489
C24   C     C_3   0.366331 0.376203 0.074143 0.345108
C25   C     C_R   0.661683 0.499893 0.500122 0.897111
C26   C     C_3   0.049415 0.497331 0.646872 -0.422608
C27   C     C_3   0.047570 0.389331 0.410516 0.438348
C28   C     C_3   0.949396 0.381277 0.422604 -0.558756
C29   C     C_1   0.750495 0.499248 0.500389 -0.179642
C30   C     C_3   0.083149 0.500483 0.499052 0.175899
H1    H     H_    0.932686 0.396317 0.690846 0.174452
H2    H     H_    0.068844 0.584462 0.700605 0.174428
H3    H     H_    0.924480 0.559057 0.715731 0.168858
H4    H     H_    0.939599 0.599596 0.313938 0.085122
H5    H     H_    0.541367 0.114131 0.284610 0.167192
H6    H     H_    0.541690 0.886463 0.284556 0.167477
H7    H     H_    0.391190 0.886304 0.707264 0.205477
H8    H     H_    0.482192 0.887445 0.830604 0.203584
H9    H     H_    0.390466 0.110770 0.706373 0.198281
H10   H     H_    0.481202 0.111544 0.830406 0.201925
H11   H     H_    0.582245 0.655381 0.126548 0.135052
H12   H     H_    0.077147 0.420225 0.707663 0.166279
H13   H     H_    0.581867 0.655861 0.873978 0.137939
H14   H     H_    0.329504 0.448835 0.871289 0.240343
H15   H     H_    0.357672 0.278765 0.877597 0.153532
H16   H     H_    0.354779 0.283591 0.123299 0.063096
H17   H     H_    0.059311 0.417950 0.303589 0.069173
H18   H     H_    0.928748 0.294157 0.474630 0.208645
H19   H     H_    0.920743 0.377109 0.319314 0.148962
H20   H     H_    0.071570 0.706538 0.496281 0.208744
H21   H     H_    0.078357 0.638528 0.332817 0.145284
N1    N     N_R   0.499430 0.499140 0.142800 -0.083953
N2    N     N_R   0.499430 0.499180 0.857150 -0.087477
O1    O     O_R   0.500010 0.316790 0.614690 -0.613106
O2    O     O_R   0.500000 0.316760 0.385350 -0.636534
O3    O     O_R   0.377150 0.500020 0.614720 -0.625012
O4    O     O_R   0.377140 0.499990 0.385380 -0.553208
O5    O     O_R   0.500000 0.683240 0.614650 -0.622235
O6    O     O_R   0.499990 0.683210 0.385310 -0.620806
O7    O     O_R   0.622860 0.500010 0.614620 -0.619247
O8    O     O_R   0.622850 0.499980 0.385280 -0.618705
Zn1   Zn    Zn3+2 0.500010 0.500020 0.653130 0.947072
Zn2   Zn    Zn3+2 0.499990 0.499980 0.346870 0.979248
O9    O     O_3   0.317792 0.477178 0.124308 -0.548200
C31   C     C_3   0.232971 0.437918 0.141257 -0.281268
H22   H     H_    0.228259 0.364281 0.220767 0.183916
H23   H     H_    0.205083 0.403863 0.044267 0.144493
H24   H     H_    0.194779 0.519233 0.175209 0.177693
O10   O     O_3   0.089465 0.271324 0.420424 -0.602973
C32   C     C_3   0.092513 0.220766 0.552420 -0.282550
H25   H     H_    0.032885 0.233205 0.610179 0.147974
H26   H     H_    0.147838 0.259226 0.608545 0.161562
H27   H     H_    0.102964 0.118353 0.543871 0.183127
O11   O     O_3   0.910484 0.734410 0.446437 -0.592881
C33   C     C_3   0.908661 0.772341 0.583234 -0.276556
H28   H     H_    0.968679 0.754209 0.638762 0.144536
H29   H     H_    0.853664 0.729092 0.635514 0.164874
H30   H     H_    0.898476 0.875098 0.585861 0.180932

loop_
_geom_bond_atom_site_label_1
_geom_bond_atom_site_label_2
_ccdc_geom_bond_type
O5    Zn1   S    
C23   O5    A    
C26   H2    S    
C18   C21   A    
C19   C20   A    
C33   H28   S    
C3    C6    S    
C18   N1    A    
C7    C8    T    
C23   O6    A    
C18   C24   S    
C3    C28   S    
C17   H9    S    
C15   C16   S    
O7    Zn1   S    
N2    Zn1   S    
O8    Zn2   S    
C19   N1    A    
C22   H14   S    
C16   C17   S    
C31   H23   S    
O2    Zn2   S    
C32   H25   S    
C25   O7    A    
C9    C10   A    
C4    O11   S    
C27   O10   S    
C16   H7    S    
C24   O9    S    
C7    C30   S    
C13   C14   A    
C27   C30   S    
O4    Zn2   S    
C25   C29   S    
C4    H4    S    
O11   C33   S    
C13   H6    S    
C20   N2    A    
O1    Zn1   S    
C2    H1    S    
C17   H10   S    
C14   C23   S    
C1    O1    A    
C28   H19   S    
C8    C12   S    
C31   H24   S    
C6    C29   T    
C32   H27   S    
C2    C26   S    
C25   O8    A    
C33   H29   S    
C12   O3    A    
C12   O4    A    
C2    H3    S    
C9    C17   S    
C26   C30   S    
O3    Zn1   S    
C5    H20   S    
C3    C4    S    
C20   H13   S    
C26   H12   S    
C5    C30   S    
C27   H17   S    
C28   H18   S    
C1    C10   S    
C4    C5    S    
N1    Zn2   S    
O6    Zn2   S    
C24   H16   S    
O9    C31   S    
C11   H5    S    
C2    C3    S    
C1    O2    A    
C21   N2    A    
C11   C13   A    
C22   C24   S    
C9    C15   A    
O10   C32   S    
C33   H30   S    
C10   C11   A    
C22   H15   S    
C31   H22   S    
C27   C28   S    
C14   C15   A    
C5    H21   S    
C32   H26   S    
C21   C22   S    
C19   H11   S    
C16   H8    S    
