data_mof_unit_37598.cif
_audit_creation_date              2012-12-11T14:54:30-0500
_audit_creation_method            fapswitch 2.2
_symmetry_space_group_name_H-M    P1
_symmetry_Int_Tables_number       1
_space_group_crystal_system       triclinic
_cell_length_a                    18.802633
_cell_length_b                    10.987258
_cell_length_c                    18.789548
_cell_angle_alpha                 89.771301
_cell_angle_beta                  89.881676
_cell_angle_gamma                 89.915407
_cell_volume                      3881.67768528

loop_
_atom_site_label
_atom_site_type_symbol
_atom_type_description
_atom_site_fract_x
_atom_site_fract_y
_atom_site_fract_z
_atom_type_partial_charge
C1    C     C_R   0.731364 0.380108 0.646900 0.531519
C2    C     C_R   0.314769 0.906341 0.467416 -0.136039
C3    C     C_R   0.971628 0.552780 0.471508 -0.152794
C4    C     C_3   0.867279 0.132957 0.073501 -0.005970
C5    C     C_3   0.903020 0.170959 0.142499 -0.323311
C6    C     C_3   0.128774 0.159593 0.906236 -0.006248
C7    C     C_3   0.092931 0.169013 0.833808 -0.315596
C8    C     C_3   0.369713 0.671055 0.087773 -0.016153
C9    C     C_3   0.415532 0.690122 0.153362 -0.325294
C10   C     C_3   0.600087 0.597386 0.911338 0.006700
C11   C     C_3   0.535161 0.581284 0.863746 -0.328094
C12   C     C_1   0.501604 0.930490 0.938869 0.213803
C13   C     C_R   0.178362 0.423465 0.529822 -0.133981
C14   C     C_1   0.540080 0.946641 0.082412 0.212875
C15   C     C_1   0.986740 0.432223 0.930684 0.199745
C16   C     C_1   0.021427 0.435020 0.074171 0.210180
C17   C     C_R   0.814768 0.406334 0.467411 -0.136072
C18   C     C_R   0.686898 0.892173 0.458336 -0.145440
C19   C     C_R   0.308195 0.878620 0.539403 -0.145648
C20   C     C_R   0.186902 0.392155 0.458341 -0.145307
C21   C     C_R   0.808192 0.378607 0.539397 -0.145759
C22   C     C_R   0.746121 0.935030 0.420493 0.031585
C23   C     C_R   0.255037 0.934703 0.579900 0.027118
C24   C     C_R   0.246118 0.435029 0.420495 0.031646
C25   C     C_R   0.268910 0.379447 0.353462 0.541068
C26   C     C_R   0.755030 0.434684 0.579890 0.027140
C27   C     C_R   0.791864 0.019794 0.452483 -0.123515
C28   C     C_R   0.214908 0.029979 0.550075 -0.131597
C29   C     C_R   0.291854 0.519808 0.452480 -0.123147
C30   C     C_R   0.714897 0.529954 0.550062 -0.131743
C31   C     C_R   0.784330 0.048376 0.523512 -0.135508
C32   C     C_R   0.221957 0.058459 0.478558 -0.136070
C33   C     C_R   0.284320 0.548391 0.523510 -0.135720
C34   C     C_R   0.721952 0.558445 0.478549 -0.136438
C35   C     C_R   0.729583 0.996583 0.563626 0.026560
C36   C     C_R   0.231368 0.880119 0.646906 0.532128
C37   C     C_R   0.269783 0.993585 0.436114 0.027572
C38   C     C_R   0.229581 0.496582 0.563628 0.025390
C39   C     C_R   0.769783 0.493580 0.436110 0.027431
C40   C     C_R   0.512672 0.049588 0.969758 -0.023225
C41   C     C_R   0.520605 0.055850 0.042869 -0.032142
C42   C     C_R   0.999070 0.548964 0.964895 -0.029710
C43   C     C_R   0.007320 0.550014 0.037997 -0.030144
C44   C     C_R   0.502677 0.165164 0.077446 -0.008760
C45   C     C_R   0.509887 0.158587 0.929002 -0.004307
C46   C     C_R   0.998353 0.660986 0.075007 -0.006540
C47   C     C_R   0.768910 0.879448 0.353460 0.542072
C48   C     C_R   0.004789 0.659855 0.926477 -0.006596
C49   C     C_R   0.495542 0.273015 0.037638 -0.126498
C50   C     C_R   0.502045 0.270128 0.963918 -0.116779
C51   C     C_R   0.997851 0.771185 0.037093 -0.130905
C52   C     C_R   0.004032 0.770712 0.963327 -0.137263
C53   C     C_R   0.531774 0.155531 0.646774 0.539086
C54   C     C_R   0.465155 0.154233 0.355251 0.543919
C55   C     C_R   0.031777 0.655531 0.646774 0.540561
C56   C     C_R   0.965157 0.654233 0.355250 0.542973
C57   C     C_R   0.816058 0.958397 0.958373 -0.107554
C58   C     C_3   0.544554 0.365550 0.452735 -0.277325
C59   C     C_R   0.210246 0.045772 0.025857 -0.110985
C60   C     C_R   0.286833 0.553210 0.974876 -0.115129
C61   C     C_R   0.702806 0.525631 0.029816 -0.105365
C62   C     C_R   0.818214 0.957445 0.031294 0.252604
C63   C     C_R   0.198601 0.011351 0.956268 0.261115
C64   C     C_R   0.299255 0.517546 0.044602 0.258136
C65   C     C_R   0.689467 0.485651 0.962185 0.252627
C66   C     C_R   0.763062 0.898976 0.069878 0.030014
C67   C     C_R   0.248977 0.935947 0.921007 0.030395
C68   C     C_R   0.251917 0.434087 0.078110 0.034759
C69   C     C_3   0.555414 0.367526 0.532580 -0.253191
C70   C     C_R   0.743841 0.423866 0.924150 0.031086
C71   C     C_R   0.706200 0.846261 0.033319 -0.188709
C72   C     C_R   0.313197 0.907766 0.954902 -0.199739
C73   C     C_R   0.191660 0.394571 0.041752 -0.193682
C74   C     C_R   0.809113 0.400190 0.956465 -0.196082
C75   C     C_R   0.700419 0.861571 0.960453 -0.167358
C76   C     C_R   0.324690 0.945390 0.024902 -0.172770
C77   C     C_R   0.179050 0.433984 0.972551 -0.169059
C78   C     C_R   0.821031 0.437383 0.026032 -0.170089
C79   C     C_R   0.754966 0.919482 0.923078 -0.019527
C80   C     C_3   0.044624 0.865492 0.452725 -0.277220
C81   C     C_R   0.270599 0.006125 0.062122 -0.024271
C82   C     C_R   0.229317 0.505948 0.937376 -0.019710
C83   C     C_R   0.766893 0.497143 0.063441 -0.016934
C84   C     C_R   0.726840 0.021171 0.640052 0.563677
C85   C     C_R   0.272931 0.020225 0.359982 0.567535
C86   C     C_R   0.226839 0.521172 0.640054 0.569384
C87   C     C_R   0.772931 0.520227 0.359981 0.566831
C88   C     C_R   0.727854 0.375664 0.854109 0.570495
C89   C     C_R   0.271037 0.378712 0.146628 0.556145
C90   C     C_R   0.229506 0.879580 0.852916 0.555164
C91   C     C_3   0.055483 0.867469 0.532569 -0.253128
C92   C     C_R   0.772885 0.873157 0.144973 0.559837
C93   C     C_R   0.532825 0.155869 0.854389 0.552516
C94   C     C_R   0.470002 0.157293 0.147854 0.543844
C95   C     C_R   0.031533 0.656220 0.853404 0.541330
C96   C     C_R   0.969192 0.656570 0.147123 0.542597
C97   C     C_R   0.742431 0.968331 0.853001 0.558675
C98   C     C_R   0.273816 0.025547 0.138970 0.570944
C99   C     C_R   0.226083 0.525688 0.860732 0.574754
C100  C     C_R   0.773054 0.523431 0.138736 0.566869
C101  C     C_R   0.482327 0.158505 0.430274 0.021675
C102  C     C_R   0.678357 0.923486 0.529815 -0.133964
C103  C     C_R   0.496576 0.164798 0.578513 0.022721
C104  C     C_R   0.982337 0.658504 0.430271 0.021624
C105  C     C_R   0.996587 0.664802 0.578510 0.021737
C106  C     C_R   0.489738 0.269676 0.465072 0.025485
C107  C     C_R   0.498859 0.272426 0.538145 0.019756
C108  C     C_R   0.989775 0.769673 0.465065 0.025624
C109  C     C_R   0.998897 0.772424 0.538137 0.019224
C110  C     C_R   0.475927 0.056821 0.544975 -0.152705
C111  C     C_R   0.471633 0.052772 0.471507 -0.152780
C112  C     C_R   0.975923 0.556832 0.544976 -0.152761
Cr1   Cr    Cr6+3 0.771950 0.169480 0.750100 1.017563
Cr2   Cr    Cr6+3 0.383410 0.010620 0.249390 0.998131
Cr3   Cr    Cr6+3 0.116590 0.510620 0.750610 0.998283
Cr4   Cr    Cr6+3 0.883410 0.510620 0.249390 1.005502
Cr5   Cr    Cr6+3 0.228050 0.169480 0.249900 1.015849
Cr6   Cr    Cr6+3 0.271950 0.669480 0.750100 1.004132
Cr7   Cr    Cr6+3 0.728050 0.669480 0.249900 1.018102
Cr8   Cr    Cr6+3 0.614930 0.323340 0.749170 1.003708
Cr9   Cr    Cr6+3 0.385070 0.323340 0.250830 1.022510
Cr10  Cr    Cr6+3 0.114930 0.823340 0.749170 1.008685
Cr11  Cr    Cr6+3 0.885070 0.823340 0.250830 1.021636
Cr12  Cr    Cr6+3 0.616590 0.010620 0.750610 1.019184
H1    H     H_    0.470948 0.972141 0.574314 0.135902
H2    H     H_    0.352532 0.851985 0.928570 0.155600
H3    H     H_    0.157243 0.327020 0.065121 0.159892
H4    H     H_    0.848652 0.347057 0.929117 0.166728
H5    H     H_    0.652465 0.833333 0.933843 0.138415
H6    H     H_    0.374024 0.922072 0.051088 0.139567
H7    H     H_    0.132479 0.402602 0.944946 0.141203
H8    H     H_    0.870955 0.415193 0.051349 0.144122
H9    H     H_    0.021028 0.951072 0.431554 0.141557
H10   H     H_    0.108635 0.832555 0.548398 0.164634
H11   H     H_    0.520928 0.451109 0.431568 0.141354
H12   H     H_    0.461236 0.965575 0.447192 0.134609
H13   H     H_    0.608577 0.332661 0.548405 0.164606
H14   H     H_    0.591659 0.331522 0.422869 0.150903
H15   H     H_    0.539190 0.454881 0.557487 0.138617
H16   H     H_    0.091719 0.831414 0.422863 0.150836
H17   H     H_    0.039288 0.954844 0.557472 0.138580
H18   H     H_    0.633754 0.886174 0.559158 0.132225
H19   H     H_    0.353074 0.856173 0.435972 0.121913
H20   H     H_    0.133766 0.386134 0.559169 0.131816
H21   H     H_    0.853075 0.356169 0.435968 0.122096
H22   H     H_    0.649590 0.830121 0.433992 0.115265
H23   H     H_    0.970931 0.472157 0.574319 0.136080
H24   H     H_    0.341628 0.808602 0.562196 0.111757
H25   H     H_    0.149599 0.330093 0.434001 0.115130
H26   H     H_    0.841626 0.308590 0.562190 0.111775
H27   H     H_    0.837067 0.057638 0.424269 0.132797
H28   H     H_    0.174486 0.076898 0.580695 0.129659
H29   H     H_    0.337051 0.557665 0.424262 0.132552
H30   H     H_    0.674468 0.576862 0.580676 0.130998
H31   H     H_    0.823568 0.106527 0.547839 0.121050
H32   H     H_    0.187982 0.127740 0.455746 0.121717
H33   H     H_    0.323553 0.606555 0.547834 0.120743
H34   H     H_    0.961218 0.465586 0.447196 0.134607
H35   H     H_    0.687977 0.627727 0.455738 0.121675
H36   H     H_    0.482388 0.358458 0.063085 0.180160
H37   H     H_    0.499004 0.354197 0.934087 0.170645
H38   H     H_    0.991999 0.857240 0.064362 0.188509
H39   H     H_    0.008512 0.856665 0.935237 0.174002
H40   H     H_    0.810200 0.161116 0.076828 0.129962
H41   H     H_    0.892647 0.182330 0.028405 0.151122
H42   H     H_    0.959142 0.139376 0.143122 0.177206
H43   H     H_    0.901685 0.271324 0.147655 0.143681
H44   H     H_    0.874648 0.131066 0.188849 0.161571
H45   H     H_    0.859907 0.001072 0.930264 0.151539
H46   H     H_    0.181579 0.205680 0.901825 0.127999
H47   H     H_    0.095686 0.207970 0.946057 0.158443
H48   H     H_    0.040068 0.124081 0.835400 0.163025
H49   H     H_    0.085940 0.266111 0.818889 0.142199
H50   H     H_    0.126381 0.125119 0.792484 0.159119
H51   H     H_    0.317155 0.715388 0.097832 0.142590
H52   H     H_    0.396212 0.714913 0.041478 0.141995
H53   H     H_    0.468823 0.648643 0.145218 0.167733
H54   H     H_    0.421871 0.788849 0.163571 0.150134
H55   H     H_    0.389922 0.647329 0.200514 0.156934
H56   H     H_    0.168978 0.097154 0.052690 0.145785
H57   H     H_    0.643481 0.637141 0.877953 0.131149
H58   H     H_    0.586309 0.660722 0.955192 0.146056
H59   H     H_    0.486800 0.567087 0.896779 0.147425
H60   H     H_    0.527638 0.663017 0.829730 0.122499
H61   H     H_    0.542229 0.502088 0.828004 0.182741
H62   H     H_    0.325688 0.610616 0.948496 0.135500
H63   H     H_    0.659543 0.569742 0.057870 0.148153
H64   H     H_    0.666562 0.793265 0.060832 0.162372
N1    N     N_1   0.491978 0.835652 0.914498 -0.371048
N2    N     N_1   0.554310 0.860348 0.114872 -0.343380
N3    N     N_1   0.977546 0.339255 0.903574 -0.360192
N4    N     N_1   0.031833 0.343749 0.103237 -0.349912
O1    O     O_R   0.787510 0.042610 0.670410 -0.516713
O2    O     O_R   0.454250 0.051070 0.169440 -0.518319
O3    O     O_R   0.045750 0.551070 0.830560 -0.513214
O4    O     O_R   0.954250 0.551070 0.169440 -0.513712
O5    O     O_R   0.681210 0.959150 0.825320 -0.495548
O6    O     O_R   0.318790 0.959150 0.174680 -0.508628
O7    O     O_R   0.181210 0.459150 0.825320 -0.507301
O8    O     O_R   0.818790 0.459150 0.174680 -0.504277
O9    O     O_3   0.667820 0.167810 0.749960 -0.268371
O10   O     O_3   0.332180 0.167810 0.250040 -0.292325
O11   O     O_3   0.167820 0.667810 0.749960 -0.289454
O12   O     O_R   0.212490 0.042610 0.329590 -0.511324
O13   O     O_3   0.832180 0.667810 0.250040 -0.293613
O14   O     O_R   0.765670 0.292090 0.675090 -0.520561
O15   O     O_R   0.234330 0.292090 0.324910 -0.520161
O16   O     O_R   0.265670 0.792090 0.675090 -0.519844
O17   O     O_R   0.734330 0.792090 0.324910 -0.518837
O18   O     O_R   0.670220 0.409020 0.668560 -0.537898
O19   O     O_R   0.329780 0.409020 0.331440 -0.527196
O20   O     O_R   0.170220 0.909020 0.668560 -0.538726
O21   O     O_R   0.829780 0.909020 0.331440 -0.527639
O22   O     O_R   0.556580 0.251590 0.674980 -0.506273
O23   O     O_R   0.287510 0.542610 0.670410 -0.509432
O24   O     O_R   0.443420 0.251590 0.325020 -0.494870
O25   O     O_R   0.056580 0.751590 0.674980 -0.501627
O26   O     O_R   0.943420 0.751590 0.325020 -0.494985
O27   O     O_R   0.545890 0.049670 0.670030 -0.535068
O28   O     O_R   0.454110 0.049670 0.329970 -0.532828
O29   O     O_R   0.045890 0.549670 0.670030 -0.534799
O30   O     O_R   0.954110 0.549670 0.329970 -0.532737
O31   O     O_R   0.681340 0.957860 0.676500 -0.506239
O32   O     O_R   0.318660 0.957860 0.323500 -0.502801
O33   O     O_R   0.181340 0.457860 0.676500 -0.500561
O34   O     O_R   0.712490 0.542610 0.329590 -0.511486
O35   O     O_R   0.818660 0.457860 0.323500 -0.502146
O36   O     O_R   0.787380 0.044010 0.830940 -0.521560
O37   O     O_R   0.212620 0.044010 0.169060 -0.506901
O38   O     O_R   0.287380 0.544010 0.830940 -0.512273
O39   O     O_R   0.712620 0.544010 0.169060 -0.511983
O40   O     O_R   0.765540 0.293390 0.823910 -0.505093
O41   O     O_R   0.234460 0.293390 0.176090 -0.527424
O42   O     O_R   0.265540 0.793390 0.823910 -0.530647
O43   O     O_R   0.734460 0.793390 0.176090 -0.520880
O44   O     O_R   0.670090 0.410410 0.829090 -0.481922
O45   O     O_R   0.556450 0.252890 0.823790 -0.498152
O46   O     O_R   0.329910 0.410410 0.170910 -0.457472
O47   O     O_R   0.170090 0.910410 0.829090 -0.460593
O48   O     O_R   0.829910 0.910410 0.170910 -0.468097
O49   O     O_3   0.877373 0.006541 0.063943 -0.552659
O50   O     O_3   0.132634 0.036252 0.927045 -0.544947
O51   O     O_3   0.364412 0.545247 0.074714 -0.547478
O52   O     O_3   0.619132 0.483417 0.940327 -0.551884
O53   O     O_R   0.443550 0.252890 0.176210 -0.497087
O54   O     O_R   0.056450 0.752890 0.823790 -0.494817
O55   O     O_R   0.943550 0.752890 0.176210 -0.491942
O56   O     O_R   0.545750 0.051070 0.830560 -0.498553

loop_
_geom_bond_atom_site_label_1
_geom_bond_atom_site_label_2
_ccdc_geom_bond_type
C3    C104  A    
C44   C49   A    
Cr11  O55   S    
C21   C26   A    
C69   H15   S    
C53   O22   A    
C2    H19   S    
C48   C95   S    
C94   O2    A    
C82   C99   S    
C57   C79   A    
C54   C101  S    
C19   C23   A    
Cr6   O11   S    
C39   C87   S    
C71   H64   S    
C72   C76   A    
C35   C102  A    
C45   C93   S    
C49   C50   A    
C56   O26   A    
C69   C107  S    
C8    H51   S    
C86   O23   A    
C57   C62   A    
C55   O25   A    
C64   O51   S    
C21   H26   S    
C108  C109  A    
C54   O24   A    
C12   N1    T    
Cr11  O13   S    
C90   O47   A    
C55   C105  S    
C103  C110  A    
C64   C68   A    
C37   C85   S    
C59   H56   S    
Cr10  O25   S    
C53   C103  S    
Cr9   O10   S    
Cr3   O33   S    
C95   O54   A    
C17   C39   A    
Cr4   O8    S    
Cr9   O19   S    
C111  H12   S    
C5    H44   S    
C81   C98   S    
Cr8   O22   S    
C65   C70   A    
Cr6   O16   S    
C7    H50   S    
C29   C33   A    
C61   H63   S    
C4    H41   S    
C90   O42   A    
C51   H38   S    
C67   C72   A    
C18   C102  A    
C13   H20   S    
C89   O41   A    
C25   O19   A    
C78   H8    S    
C110  C111  A    
C15   N3    T    
C16   N4    T    
C85   O12   A    
C24   C29   A    
C47   O17   A    
C76   H6    S    
C78   C83   A    
C74   H4    S    
C20   C24   A    
C93   O45   A    
C8    C9    S    
Cr3   O11   S    
C85   O32   A    
C70   C74   A    
C3    H34   S    
C27   H27   S    
C4    H40   S    
C49   H36   S    
Cr6   O23   S    
Cr7   O13   S    
Cr1   O9    S    
Cr5   O12   S    
C42   C43   A    
C3    C112  A    
C96   O55   A    
C74   C78   A    
Cr4   O13   S    
C9    H55   S    
Cr7   O39   S    
Cr8   O45   S    
Cr10  O54   S    
C34   H35   S    
C58   H14   S    
Cr9   O53   S    
C22   C47   S    
C2    C19   A    
Cr12  O27   S    
C70   C88   S    
C32   H32   S    
C7    H48   S    
C50   H37   S    
C69   H13   S    
Cr8   O9    S    
C60   C82   A    
C56   O30   A    
C43   C46   A    
C79   C97   S    
C60   C64   A    
C57   H45   S    
C6    H47   S    
Cr8   O18   S    
C40   C45   A    
C88   O44   A    
C65   O52   S    
C63   C67   A    
Cr7   O17   S    
C75   H5    S    
C98   O6    A    
Cr4   O35   S    
C27   C31   A    
C51   C52   A    
Cr9   O24   S    
C97   O5    A    
C28   C32   A    
C10   O52   S    
C24   C25   S    
C56   C104  S    
C61   C83   A    
C62   C66   A    
Cr1   O36   S    
C66   C92   S    
C110  H1    S    
C8    O51   S    
Cr5   O15   S    
C68   C73   A    
C32   C37   A    
C63   O50   S    
Cr3   O7    S    
C46   C51   A    
C95   O3    A    
C67   C90   S    
C17   C21   A    
C80   H9    S    
C34   C39   A    
C72   H2    S    
C58   C106  S    
Cr4   O4    S    
Cr10  O11   S    
C12   C40   S    
C96   O4    A    
C17   H21   S    
C73   H3    S    
C93   O56   A    
C98   O37   A    
Cr6   O42   S    
C66   C71   A    
Cr12  O31   S    
Cr5   O41   S    
C84   O1    A    
C87   O34   A    
Cr2   O10   S    
C68   C89   S    
C11   H59   S    
C42   C48   A    
C5    H42   S    
C92   O48   A    
C1    O14   A    
C16   C43   S    
C13   C38   A    
C36   O20   A    
C14   C41   S    
C36   O16   A    
C100  O8    A    
Cr7   O43   S    
C40   C41   A    
C88   O40   A    
Cr11  O26   S    
C38   C86   S    
C28   H28   S    
C30   H30   S    
C87   O35   A    
C83   C100  S    
Cr11  O21   S    
Cr2   O6    S    
C1    C26   S    
C10   H58   S    
C41   C44   A    
C31   C35   A    
C23   C28   A    
C20   H25   S    
C105  C112  A    
Cr5   O10   S    
C4    O49   S    
C104  C108  A    
C99   O38   A    
C9    H53   S    
C62   O49   S    
C29   H29   S    
Cr10  O47   S    
C6    H46   S    
C101  C106  A    
C10   H57   S    
Cr3   O3    S    
C30   C34   A    
C60   H62   S    
Cr2   O2    S    
C13   C20   A    
C1    O18   A    
C11   H61   S    
Cr1   O1    S    
C89   O46   A    
Cr3   O29   S    
C100  O39   A    
C77   H7    S    
C11   H60   S    
C59   C81   A    
C15   C42   S    
Cr2   O28   S    
C4    C5    S    
C18   H22   S    
C84   O31   A    
C76   C81   A    
C31   H31   S    
C35   C84   S    
C8    H52   S    
C58   C69   S    
C54   O28   A    
C6    C7    S    
C58   H11   S    
C101  C111  A    
C80   C108  S    
C92   O43   A    
C59   C63   A    
C19   H24   S    
C112  H23   S    
C55   O29   A    
Cr12  O9    S    
C22   C27   A    
Cr1   O14   S    
Cr12  O56   S    
C80   C91   S    
C18   C22   A    
C47   O21   A    
Cr12  O5    S    
C80   H16   S    
Cr8   O44   S    
C71   C75   A    
C2    C37   A    
C91   C109  S    
C91   H10   S    
C105  C109  A    
C77   C82   A    
Cr6   O38   S    
C7    H49   S    
Cr5   O37   S    
Cr11  O48   S    
Cr10  O20   S    
C53   O27   A    
C5    H43   S    
Cr4   O30   S    
C94   O53   A    
C33   H33   S    
C44   C94   S    
C10   C11   S    
C52   H39   S    
Cr1   O40   S    
C14   N2    T    
C61   C65   A    
C48   C52   A    
C97   O36   A    
C46   C96   S    
C23   C36   S    
C106  C107  A    
C99   O7    A    
C86   O33   A    
C73   C77   A    
C6    O50   S    
C33   C38   A    
C103  C107  A    
C45   C50   A    
C102  H18   S    
Cr2   O32   S    
C25   O15   A    
C75   C79   A    
C9    H54   S    
Cr9   O46   S    
Cr7   O34   S    
C91   H17   S    
C26   C30   A    
