data_mof_unit_19565.cif
_audit_creation_date              2012-12-10T17:32:13-0500
_audit_creation_method            fapswitch 2.2
_symmetry_space_group_name_H-M    P1
_symmetry_Int_Tables_number       1
_space_group_crystal_system       triclinic
_cell_length_a                    12.312583
_cell_length_b                    13.220893
_cell_length_c                    15.063172
_cell_angle_alpha                 77.482742
_cell_angle_beta                  101.345347
_cell_angle_gamma                 116.483422
_cell_volume                      2128.46085438

loop_
_atom_site_label
_atom_site_type_symbol
_atom_type_description
_atom_site_fract_x
_atom_site_fract_y
_atom_site_fract_z
_atom_type_partial_charge
C1    C     C_R   0.854690 0.286610 0.509446 0.787618
C2    C     C_R   0.096041 0.488874 0.110438 0.108171
C3    C     C_R   0.808164 0.520188 0.011774 -0.217386
C4    C     C_R   0.807886 0.520113 0.919194 -0.215902
C5    C     C_R   0.903085 0.509883 0.889600 0.109032
C6    C     C_R   0.999443 0.499384 0.953487 0.062956
C7    C     C_R   0.095602 0.488933 0.924394 0.106114
C8    C     C_R   0.190984 0.478609 0.988271 -0.217171
C9    C     C_R   0.191196 0.478566 0.080851 -0.216020
C10   C     C_R   0.903653 0.509989 0.797176 -0.253717
C11   C     C_R   0.999221 0.499659 0.768082 -0.072782
C12   C     C_R   0.999572 0.499777 0.671202 0.813241
C13   C     C_R   0.094773 0.489069 0.831824 -0.249122
C14   C     C_R   0.270918 0.027543 0.400296 -0.193341
C15   C     C_R   0.227181 0.834614 0.474395 -0.068318
C16   C     C_R   0.812981 0.091036 0.586341 -0.232422
C17   C     C_R   0.730499 0.986528 0.625306 -0.205706
C18   C     C_R   0.604782 0.952666 0.602209 0.257604
C19   C     C_R   0.560990 0.017342 0.527099 0.038928
C20   C     C_R   0.646327 0.124977 0.488140 0.037940
C21   C     C_R   0.435723 0.981157 0.490480 0.070515
C22   C     C_R   0.395634 0.058993 0.429354 0.159281
C23   C     C_R   0.144978 0.713240 0.487100 0.806381
C24   C     C_R   0.480905 0.163547 0.392220 -0.233484
C25   C     C_R   0.604370 0.191910 0.416007 -0.179549
C26   C     C_R   0.350767 0.867422 0.506237 -0.218909
C27   C     C_R   0.186414 0.916105 0.424647 -0.193980
C28   C     C_R   0.771504 0.164502 0.523374 -0.102200
C29   C     C_R   0.347475 0.328960 0.646110 -0.303851
C30   C     C_R   0.758800 0.644806 0.375659 0.070501
C31   C     C_R   0.661696 0.675882 0.348617 -0.259691
C32   C     C_R   0.558454 0.621162 0.395254 -0.195416
C33   C     C_R   0.551052 0.534114 0.470107 -0.005323
C34   C     C_R   0.000296 0.500043 0.328801 0.807014
C35   C     C_R   0.653090 0.505200 0.495341 0.289274
C36   C     C_R   0.446924 0.474932 0.520880 -0.037402
C37   C     C_R   0.447223 0.388308 0.595126 0.176937
C38   C     C_R   0.547149 0.361439 0.618451 -0.288831
C39   C     C_R   0.647693 0.418738 0.570000 -0.189144
C40   C     C_R   0.341729 0.497525 0.501765 0.019347
C41   C     C_R   0.247333 0.355441 0.623880 0.068196
C42   C     C_R   0.095611 0.488975 0.202841 -0.248694
C43   C     C_R   0.000275 0.499670 0.231935 -0.072023
C44   C     C_R   0.904624 0.510130 0.168215 -0.253301
C45   C     C_R   0.903600 0.509958 0.075655 0.108549
C46   C     C_R   0.999683 0.499382 0.046562 0.062722
Cu1   Cu    Cu3+1 0.098270 0.475420 0.521130 0.935112
Cu2   Cu    Cu3+1 0.901730 0.524580 0.478870 0.923049
H1    H     H_    0.169798 0.481213 0.251903 0.153383
H2    H     H_    0.452290 0.220631 0.340468 0.141711
H3    H     H_    0.239479 0.087753 0.355754 0.135282
H4    H     H_    0.380803 0.801526 0.537552 0.197074
H5    H     H_    0.908709 0.118865 0.612595 0.164108
H6    H     H_    0.764485 0.936217 0.680121 0.141045
H7    H     H_    0.666175 0.267408 0.376848 0.170479
H8    H     H_    0.170010 0.309955 0.662931 0.119906
H9    H     H_    0.548024 0.295382 0.675289 0.152877
H10   H     H_    0.347083 0.262569 0.702912 0.135732
H11   H     H_    0.830584 0.518078 0.190502 0.154509
H12   H     H_    0.333511 0.561749 0.446595 0.120259
H13   H     H_    0.838540 0.687792 0.339084 0.124169
H14   H     H_    0.486078 0.648661 0.371320 0.133697
H15   H     H_    0.666464 0.742651 0.291277 0.143550
H16   H     H_    0.719438 0.392143 0.594082 0.208032
H17   H     H_    0.733862 0.528277 0.033422 0.140628
H18   H     H_    0.733383 0.528122 0.870767 0.143871
H19   H     H_    0.829491 0.517773 0.748104 0.159496
H20   H     H_    0.168937 0.481317 0.809544 0.156840
H21   H     H_    0.265322 0.470585 0.966615 0.140858
H22   H     H_    0.265681 0.470513 0.129273 0.141685
H23   H     H_    0.090898 0.892013 0.399164 0.151982
N1    N     N_R   0.246280 0.438190 0.553160 -0.179472
N2    N     N_R   0.754320 0.561190 0.447410 -0.206793
O1    O     O_R   0.972510 0.318130 0.526570 -0.580308
O2    O     O_R   0.806530 0.359650 0.490890 -0.604538
O3    O     O_R   0.082980 0.479210 0.647590 -0.586099
O4    O     O_R   0.917000 0.520730 0.611900 -0.603060
O5    O     O_R   0.193470 0.640350 0.509110 -0.589708
O6    O     O_R   0.027490 0.681870 0.473430 -0.585743
O7    O     O_R   0.083000 0.479270 0.388100 -0.588013
O8    O     O_R   0.917020 0.520790 0.352410 -0.598572
N3    N     N_2   0.525584 0.861259 0.661395 -0.456275
H24   H     H_    0.558800 0.801864 0.693968 0.249129
C47   C     C_3   0.478431 0.897031 0.723716 -0.691916
H25   H     H_    0.554262 0.947315 0.772175 0.224039
H26   H     H_    0.412629 0.820575 0.763354 0.229764
H27   H     H_    0.429830 0.949589 0.685564 0.241597

loop_
_geom_bond_atom_site_label_1
_geom_bond_atom_site_label_2
_ccdc_geom_bond_type
C16   C28   A    
C21   C26   A    
C40   H12   S    
C19   C20   A    
C47   H27   S    
C7    C8    A    
C10   H19   S    
C2    C46   A    
C39   H16   S    
C8    H21   S    
C1    O1    A    
Cu2   O6    S    
C36   C37   A    
C19   C21   A    
C47   H26   S    
Cu1   O3    S    
C5    C6    A    
C33   C35   A    
C20   C25   A    
C44   H11   S    
C33   C36   A    
Cu2   O8    S    
C18   C19   A    
C16   H5    S    
C34   O7    A    
C47   H25   S    
Cu1   Cu2   S    
C8    C9    A    
C1    C28   S    
C34   O8    A    
C14   C27   A    
C40   N1    A    
C15   C23   S    
C21   C22   A    
Cu2   O2    S    
C3    H17   S    
Cu1   O7    S    
C24   H2    S    
C38   C39   A    
C1    O2    A    
C31   H15   S    
C36   C40   A    
C24   C25   A    
C30   N2    A    
C16   C17   A    
C15   C26   A    
C20   C28   A    
C45   C46   A    
C3    C45   A    
Cu2   O4    S    
C35   C39   A    
C43   C44   A    
C41   H8    S    
C37   C38   A    
C26   H4    S    
C38   H9    S    
C15   C27   A    
C14   H3    S    
C12   O4    A    
C17   C18   A    
C9    H22   S    
C41   N1    A    
N3    C47   S    
C12   O3    A    
C22   C24   A    
C42   C43   A    
C3    C4    A    
C27   H23   S    
C44   C45   A    
C35   N2    A    
C6    C46   A    
C29   C41   A    
Cu2   N2    S    
C31   C32   A    
C34   C43   S    
C25   H7    S    
Cu1   O1    S    
C4    C5    A    
C11   C12   S    
C6    C7    A    
C32   C33   A    
C14   C22   A    
C32   H14   S    
C5    C10   A    
C4    H18   S    
C11   C13   A    
C30   C31   A    
C2    C42   A    
C18   N3    S    
C23   O5    A    
Cu1   N1    S    
C10   C11   A    
C42   H1    S    
C7    C13   A    
C29   H10   S    
N3    H24   S    
C30   H13   S    
C29   C37   A    
Cu1   O5    S    
C23   O6    A    
C2    C9    A    
C17   H6    S    
C13   H20   S    
