data_mof_unit_60483.cif
_audit_creation_date              2012-12-10T20:10:33-0500
_audit_creation_method            fapswitch 2.2
_symmetry_space_group_name_H-M    P1
_symmetry_Int_Tables_number       1
_space_group_crystal_system       triclinic
_cell_length_a                    15.903659
_cell_length_b                    15.903615
_cell_length_c                    43.053536
_cell_angle_alpha                 90.000134
_cell_angle_beta                  90.000025
_cell_angle_gamma                 90.032083
_cell_volume                      10889.342724

loop_
_atom_site_label
_atom_site_type_symbol
_atom_type_description
_atom_site_fract_x
_atom_site_fract_y
_atom_site_fract_z
_atom_type_partial_charge
C1    C     C_R   0.500000 1.000000 0.131336 -0.015990
C2    C     C_R   0.500000 1.000000 0.665614 0.508163
C3    C     C_3   0.098012 0.673817 0.943845 -0.291767
C4    C     C_3   0.673686 0.098246 0.056156 -0.291755
C5    C     C_3   0.326295 0.901763 0.943829 -0.291782
C6    C     C_3   0.097985 0.673831 0.056154 -0.291768
C7    C     C_3   0.901986 0.326184 0.943844 -0.291767
C8    C     C_3   0.826823 0.400851 0.556163 -0.291768
C9    C     C_3   0.173191 0.599134 0.443837 -0.291764
C10   C     C_3   0.400850 0.826815 0.556166 -0.291773
C11   C     C_3   0.599131 0.173185 0.443838 -0.291765
C12   C     C_3   0.173166 0.599180 0.556166 -0.291777
C13   C     C_R   0.000000 0.500000 0.334386 0.508162
C14   C     C_3   0.826815 0.400862 0.443836 -0.291766
C15   C     C_3   0.599141 0.173182 0.556163 -0.291771
C16   C     C_3   0.400861 0.826812 0.443836 -0.291766
C17   C     C_R   1.000000 0.500000 0.665614 0.508162
C18   C     C_R   1.000000 0.500000 0.834386 0.508184
C19   C     C_R   1.000000 0.500000 0.165614 0.508183
C20   C     C_R   0.500000 1.000000 0.834386 0.508180
C21   C     C_R   0.500000 0.000000 0.165614 0.508182
C22   C     C_R   0.339897 0.160104 0.250000 0.510591
C23   C     C_R   0.660103 0.839896 0.750000 0.510591
C24   C     C_R   0.839904 0.339904 0.250000 0.509658
C25   C     C_R   0.500000 1.000000 0.868663 -0.015989
C26   C     C_R   0.160096 0.660096 0.750000 0.509657
C27   C     C_R   0.660103 0.839897 0.250000 0.510591
C28   C     C_R   0.339897 0.160103 0.750000 0.510591
C29   C     C_R   0.160096 0.660096 0.250000 0.509657
C30   C     C_R   0.839904 0.339904 0.750000 0.509657
C31   C     C_R   0.339904 0.839904 0.750000 0.509656
C32   C     C_R   0.660096 0.160096 0.250000 0.509656
C33   C     C_R   0.839897 0.660103 0.750000 0.510591
C34   C     C_R   0.160103 0.339896 0.250000 0.510590
C35   C     C_R   0.660096 0.160096 0.750000 0.509656
C36   C     C_R   1.000000 0.500000 0.131336 -0.015996
C37   C     C_R   0.339904 0.839904 0.250000 0.509656
C38   C     C_R   0.160103 0.339896 0.750000 0.510590
C39   C     C_R   0.839896 0.660103 0.250000 0.510590
C40   C     C_1   0.276646 0.776646 0.250000 -0.022058
C41   C     C_1   0.723353 0.223354 0.750000 -0.022059
C42   C     C_1   0.223359 0.276641 0.250000 -0.020406
C43   C     C_1   0.776641 0.723359 0.750000 -0.020406
C44   C     C_1   0.723353 0.223353 0.250000 -0.022058
C45   C     C_1   0.276646 0.776646 0.750000 -0.022059
C46   C     C_1   0.776641 0.723359 0.250000 -0.020405
C47   C     C_R   1.000000 0.500000 0.868664 -0.015995
C48   C     C_1   0.223359 0.276641 0.750000 -0.020405
C49   C     C_1   0.276641 0.223359 0.750000 -0.020405
C50   C     C_1   0.723359 0.776641 0.250000 -0.020405
C51   C     C_1   0.223353 0.723354 0.750000 -0.022059
C52   C     C_1   0.776646 0.276646 0.250000 -0.022058
C53   C     C_1   0.723359 0.776641 0.750000 -0.020406
C54   C     C_1   0.276641 0.223359 0.250000 -0.020405
C55   C     C_1   0.776647 0.276646 0.750000 -0.022058
C56   C     C_1   0.223353 0.723353 0.250000 -0.022057
C57   C     C_R   0.424098 0.995527 0.114890 -0.132271
C58   C     C_R   0.000001 0.500002 0.631337 -0.015984
C59   C     C_R   0.575904 0.004466 0.885109 -0.132269
C60   C     C_R   0.995637 0.424090 0.114890 -0.132276
C61   C     C_R   0.004373 0.575909 0.885110 -0.132276
C62   C     C_R   0.575903 0.004471 0.114891 -0.132272
C63   C     C_R   0.424097 0.995533 0.885110 -0.132271
C64   C     C_R   0.004362 0.575909 0.114890 -0.132276
C65   C     C_R   0.995627 0.424092 0.885110 -0.132276
C66   C     C_R   0.924120 0.495155 0.614891 -0.132269
C67   C     C_R   0.075882 0.504838 0.385109 -0.132269
C68   C     C_R   0.495155 0.924119 0.614891 -0.132266
C69   C     C_R   0.000000 0.500000 0.368663 -0.015984
C70   C     C_R   0.504835 0.075881 0.385109 -0.132269
C71   C     C_R   0.075881 0.504853 0.614891 -0.132267
C72   C     C_R   0.924120 0.495162 0.385109 -0.132269
C73   C     C_R   0.504843 0.075880 0.614891 -0.132268
C74   C     C_R   0.495160 0.924119 0.385109 -0.132268
C75   C     C_R   0.423335 0.994340 0.082355 0.107524
C76   C     C_R   0.576666 0.005647 0.917644 0.107509
C77   C     C_R   0.994456 0.423325 0.082355 0.107519
C78   C     C_R   0.005555 0.576674 0.917645 0.107519
C79   C     C_R   0.576667 0.005657 0.082355 0.107523
C80   C     C_R   0.500000 0.999999 0.631337 -0.015984
C81   C     C_R   0.423335 0.994354 0.917644 0.107508
C82   C     C_R   0.005543 0.576674 0.082355 0.107518
C83   C     C_R   0.994444 0.423327 0.917645 0.107519
C84   C     C_R   0.923363 0.493955 0.582356 0.107527
C85   C     C_R   0.076640 0.506042 0.417644 0.107527
C86   C     C_R   0.493952 0.923362 0.582356 0.107526
C87   C     C_R   0.506037 0.076638 0.417644 0.107529
C88   C     C_R   0.076639 0.506059 0.582356 0.107529
C89   C     C_R   0.923362 0.493960 0.417644 0.107528
C90   C     C_R   0.506043 0.076638 0.582356 0.107528
C91   C     C_R   0.499999 1.000000 0.368663 -0.015984
C92   C     C_R   0.493956 0.923360 0.417644 0.107527
C93   C     C_R   0.500001 0.999999 0.065786 0.085102
C94   C     C_R   0.500001 0.000000 0.934213 0.085094
C95   C     C_R   1.000000 0.500000 0.065786 0.085104
C96   C     C_R   0.999999 0.500000 0.934213 0.085109
C97   C     C_R   0.000001 0.500007 0.565787 0.085087
C98   C     C_R   0.000001 0.500001 0.434213 0.085084
C99   C     C_R   0.499997 1.000000 0.565787 0.085085
C100  C     C_R   0.499996 0.999999 0.434213 0.085086
C101  C     C_R   0.000001 0.500002 0.468519 0.346347
C102  C     C_R   0.500000 0.000000 0.334386 0.508163
C103  C     C_R   0.000001 0.500006 0.531482 0.346354
C104  C     C_R   0.499996 0.999999 0.468518 0.346349
C105  C     C_R   0.499996 0.999999 0.531482 0.346359
C106  C     C_R   0.500002 0.000001 0.968518 0.346416
C107  C     C_R   0.500002 0.000000 0.031481 0.346371
C108  C     C_R   1.000000 0.500000 0.968518 0.346375
C109  C     C_R   1.000000 0.500000 0.031481 0.346368
C110  C     C_3   0.326323 0.901743 0.056156 -0.291756
C111  C     C_3   0.673710 0.098235 0.943828 -0.291775
C112  C     C_3   0.902014 0.326169 0.056154 -0.291764
H1    H     H_    0.364984 0.991263 0.127303 0.140251
H2    H     H_    0.134972 0.509394 0.372695 0.140239
H3    H     H_    0.490595 0.865028 0.627305 0.140239
H4    H     H_    0.509391 0.134971 0.372695 0.140238
H5    H     H_    0.134970 0.509418 0.627306 0.140237
H6    H     H_    0.865029 0.490606 0.372695 0.140238
H7    H     H_    0.509404 0.134970 0.627305 0.140239
H8    H     H_    0.490605 0.865028 0.372695 0.140238
H9    H     H_    0.295123 0.013026 0.078136 0.252096
H10   H     H_    0.319167 0.859138 0.076454 0.131530
H11   H     H_    0.376908 0.877618 0.040774 0.165325
H12   H     H_    0.635018 0.008729 0.872696 0.140259
H13   H     H_    0.266619 0.901926 0.042784 0.143623
H14   H     H_    0.704866 0.986903 0.921872 0.252109
H15   H     H_    0.680976 0.140787 0.923520 0.131513
H16   H     H_    0.733366 0.098029 0.957229 0.143678
H17   H     H_    0.623090 0.122439 0.959178 0.165279
H18   H     H_    0.013342 0.295142 0.078135 0.252107
H19   H     H_    0.859418 0.318942 0.076451 0.131525
H20   H     H_    0.902293 0.266468 0.042780 0.143655
H21   H     H_    0.877811 0.376718 0.040773 0.165304
H22   H     H_    0.986686 0.704859 0.921865 0.252105
H23   H     H_    0.991462 0.364970 0.127303 0.140261
H24   H     H_    0.140608 0.681035 0.923547 0.131526
H25   H     H_    0.122208 0.623266 0.959227 0.165305
H26   H     H_    0.097743 0.733521 0.957217 0.143645
H27   H     H_    0.704878 0.986963 0.078137 0.252097
H28   H     H_    0.680842 0.140854 0.076454 0.131530
H29   H     H_    0.623104 0.122372 0.040772 0.165328
H30   H     H_    0.733392 0.098058 0.042785 0.143624
H31   H     H_    0.295135 0.013089 0.921872 0.252111
H32   H     H_    0.319053 0.859204 0.923522 0.131520
H33   H     H_    0.266629 0.901964 0.957224 0.143670
H34   H     H_    0.008557 0.635028 0.872697 0.140259
H35   H     H_    0.376907 0.877572 0.959186 0.165290
H36   H     H_    0.986656 0.704856 0.078135 0.252108
H37   H     H_    0.140580 0.681062 0.076452 0.131525
H38   H     H_    0.097703 0.733530 0.042779 0.143659
H39   H     H_    0.122189 0.623279 0.040774 0.165304
H40   H     H_    0.013313 0.295142 0.921864 0.252105
H41   H     H_    0.859391 0.318966 0.923546 0.131526
H42   H     H_    0.877790 0.376735 0.959227 0.165304
H43   H     H_    0.902255 0.266481 0.957216 0.143646
H44   H     H_    0.795057 0.511981 0.578137 0.252125
H45   H     H_    0.635016 0.008735 0.127304 0.140252
H46   H     H_    0.819891 0.358217 0.576464 0.131495
H47   H     H_    0.877526 0.376981 0.540780 0.165313
H48   H     H_    0.767113 0.400722 0.542794 0.143624
H49   H     H_    0.204944 0.488002 0.421862 0.252125
H50   H     H_    0.180125 0.641770 0.423536 0.131493
H51   H     H_    0.232903 0.599256 0.457204 0.143627
H52   H     H_    0.122494 0.623009 0.459221 0.165313
H53   H     H_    0.511989 0.795057 0.578134 0.252128
H54   H     H_    0.358228 0.819849 0.576469 0.131488
H55   H     H_    0.400728 0.767119 0.542788 0.143639
H56   H     H_    0.364983 0.991271 0.872697 0.140258
H57   H     H_    0.376959 0.877529 0.540792 0.165302
H58   H     H_    0.488001 0.204944 0.421863 0.252124
H59   H     H_    0.641767 0.180118 0.423538 0.131495
H60   H     H_    0.623002 0.122485 0.459223 0.165312
H61   H     H_    0.599254 0.232897 0.457206 0.143625
H62   H     H_    0.204947 0.488051 0.578137 0.252126
H63   H     H_    0.180089 0.641813 0.576467 0.131499
H64   H     H_    0.122460 0.623045 0.540782 0.165312
H65   H     H_    0.232877 0.599320 0.542797 0.143620
H66   H     H_    0.795058 0.511996 0.421863 0.252125
H67   H     H_    0.008537 0.635029 0.127303 0.140261
H68   H     H_    0.819880 0.358229 0.423535 0.131495
H69   H     H_    0.767105 0.400736 0.457204 0.143625
H70   H     H_    0.877516 0.376986 0.459219 0.165310
H71   H     H_    0.488013 0.204944 0.578137 0.252127
H72   H     H_    0.641777 0.180118 0.576462 0.131494
H73   H     H_    0.599266 0.232891 0.542793 0.143626
H74   H     H_    0.623013 0.122479 0.540779 0.165310
H75   H     H_    0.511992 0.795055 0.421862 0.252125
H76   H     H_    0.358226 0.819879 0.423536 0.131494
H77   H     H_    0.376987 0.877513 0.459220 0.165314
H78   H     H_    0.991443 0.364972 0.872697 0.140259
H79   H     H_    0.400737 0.767101 0.457205 0.143625
H80   H     H_    0.865031 0.490590 0.627306 0.140238
N1    N     N_R   0.558221 0.955220 0.015451 -0.199962
N2    N     N_R   0.941534 0.544460 0.484548 -0.199948
N3    N     N_R   0.455533 0.058462 0.515452 -0.199952
N4    N     N_R   0.544459 0.941536 0.484548 -0.199951
N5    N     N_R   0.941535 0.544462 0.515452 -0.199952
N6    N     N_R   0.058468 0.455545 0.484549 -0.199948
N7    N     N_R   0.544460 0.941537 0.515452 -0.199950
N8    N     N_R   0.455533 0.058461 0.484548 -0.199951
N9    N     N_2   0.345126 0.986256 0.066505 -0.491079
N10   N     N_2   0.654873 0.013716 0.933495 -0.491086
N11   N     N_2   0.986495 0.345103 0.066505 -0.491073
N12   N     N_R   0.441783 0.044781 0.984548 -0.199951
N13   N     N_2   0.013527 0.654894 0.933495 -0.491076
N14   N     N_2   0.654878 0.013735 0.066506 -0.491080
N15   N     N_2   0.345128 0.986282 0.933496 -0.491088
N16   N     N_2   0.013503 0.654896 0.066505 -0.491074
N17   N     N_2   0.986472 0.345106 0.933495 -0.491075
N18   N     N_2   0.845195 0.485464 0.566507 -0.491053
N19   N     N_2   0.154810 0.514524 0.433492 -0.491051
N20   N     N_2   0.485464 0.845193 0.566507 -0.491056
N21   N     N_2   0.514520 0.154808 0.433493 -0.491051
N22   N     N_2   0.154806 0.514563 0.566508 -0.491054
N23   N     N_R   0.955125 0.558146 0.015451 -0.199968
N24   N     N_2   0.845193 0.485474 0.433493 -0.491051
N25   N     N_2   0.514530 0.154807 0.566508 -0.491054
N26   N     N_2   0.485472 0.845191 0.433492 -0.491053
N27   N     N_R   0.044874 0.441854 0.984548 -0.199972
N28   N     N_R   0.441783 0.044781 0.015451 -0.199961
N29   N     N_R   0.558220 0.955221 0.984548 -0.199951
N30   N     N_R   0.044874 0.441854 0.015451 -0.199968
N31   N     N_R   0.955125 0.558147 0.984548 -0.199973
N32   N     N_R   0.058468 0.455547 0.515452 -0.199952
O1    O     O_3   0.500000 0.000000 0.250000 -0.439482
O2    O     O_R   0.500000 0.930740 0.680620 -0.543577
O3    O     O_R   0.930740 0.500000 0.319380 -0.543577
O4    O     O_R   0.069260 0.500000 0.680620 -0.543577
O5    O     O_R   1.000000 0.430740 0.819380 -0.543589
O6    O     O_R   0.000000 0.569260 0.180620 -0.543588
O7    O     O_R   0.569260 0.000000 0.819380 -0.543588
O8    O     O_R   0.430740 0.000000 0.180620 -0.543586
O9    O     O_R   0.000000 0.569260 0.819380 -0.543589
O10   O     O_R   1.000000 0.430740 0.180620 -0.543588
O11   O     O_R   0.430740 0.000000 0.819380 -0.543587
O12   O     O_3   0.500000 0.000000 0.750000 -0.439482
O13   O     O_R   0.569260 0.000000 0.180620 -0.543587
O14   O     O_R   0.402540 0.166630 0.268230 -0.534335
O15   O     O_R   0.597460 0.833370 0.731770 -0.534335
O16   O     O_R   0.833370 0.402540 0.268230 -0.535168
O17   O     O_R   0.166630 0.597460 0.731770 -0.535168
O18   O     O_R   0.597460 0.833370 0.268230 -0.534335
O19   O     O_R   0.402540 0.166630 0.731770 -0.534334
O20   O     O_R   0.166630 0.597460 0.268230 -0.535169
O21   O     O_R   0.833370 0.402540 0.731770 -0.535169
O22   O     O_R   0.402540 0.833370 0.731770 -0.535169
O23   O     O_3   1.000000 0.500000 0.250000 -0.439482
O24   O     O_R   0.597460 0.166630 0.268230 -0.535168
O25   O     O_R   0.833370 0.597460 0.731770 -0.534333
O26   O     O_R   0.166630 0.402540 0.268230 -0.534334
O27   O     O_R   0.597460 0.166630 0.731770 -0.535168
O28   O     O_R   0.402540 0.833370 0.268230 -0.535168
O29   O     O_R   0.166630 0.402540 0.731770 -0.534333
O30   O     O_R   0.833370 0.597460 0.268230 -0.534334
O31   O     O_R   0.902540 0.666630 0.768230 -0.534374
O32   O     O_R   0.097460 0.333370 0.231770 -0.534374
O33   O     O_R   0.333370 0.902540 0.768230 -0.535158
O34   O     O_3   1.000000 0.500000 0.750000 -0.439482
O35   O     O_R   0.666630 0.097460 0.231770 -0.535158
O36   O     O_R   0.097460 0.333370 0.768230 -0.534374
O37   O     O_R   0.902540 0.666630 0.231770 -0.534374
O38   O     O_R   0.666630 0.097460 0.768230 -0.535158
O39   O     O_R   0.333370 0.902540 0.231770 -0.535158
O40   O     O_R   0.902540 0.333370 0.231770 -0.535155
O41   O     O_R   0.097460 0.666630 0.768230 -0.535156
O42   O     O_R   0.333370 0.097460 0.231770 -0.534369
O43   O     O_R   0.666630 0.902540 0.768230 -0.534370
O44   O     O_R   0.097460 0.666630 0.231770 -0.535155
O45   O     O_R   0.500000 0.930740 0.319380 -0.543577
O46   O     O_R   0.902540 0.333370 0.768230 -0.535155
O47   O     O_R   0.666630 0.902540 0.231770 -0.534370
O48   O     O_R   0.333370 0.097460 0.768230 -0.534370
O49   O     O_R   0.500000 0.069260 0.680620 -0.543577
O50   O     O_R   0.069260 0.500000 0.319380 -0.543578
O51   O     O_R   0.930740 0.500000 0.680620 -0.543578
O52   O     O_R   0.500000 0.069260 0.319380 -0.543577
Zn1   Zn    Zn3+2 0.401050 0.000000 0.224090 0.946967
Zn2   Zn    Zn3+2 0.098950 0.500000 0.275910 0.946983
Zn3   Zn    Zn3+2 0.500000 0.901050 0.724090 0.946983
Zn4   Zn    Zn3+2 0.500000 0.098950 0.275910 0.946983
Zn5   Zn    Zn3+2 0.098950 0.500000 0.724090 0.946983
Zn6   Zn    Zn3+2 0.901050 0.500000 0.275910 0.946983
Zn7   Zn    Zn3+2 0.500000 0.098950 0.724090 0.946983
Zn8   Zn    Zn3+2 0.500000 0.901050 0.275910 0.946983
Zn9   Zn    Zn3+2 0.598950 0.000000 0.775910 0.946965
Zn10  Zn    Zn3+2 1.000000 0.401050 0.224090 0.946966
Zn11  Zn    Zn3+2 1.000000 0.598950 0.775910 0.946965
Zn12  Zn    Zn3+2 0.598950 0.000000 0.224090 0.946966
Zn13  Zn    Zn3+2 0.401050 0.000000 0.775910 0.946965
Zn14  Zn    Zn3+2 0.000000 0.598950 0.224090 0.946966
Zn15  Zn    Zn3+2 1.000000 0.401050 0.775910 0.946965
Zn16  Zn    Zn3+2 0.901050 0.500000 0.724090 0.946983

loop_
_geom_bond_atom_site_label_1
_geom_bond_atom_site_label_2
_ccdc_geom_bond_type
O4    Zn5   S    
C24   C52   S    
C27   O47   A    
H40   N17   S    
C27   O18   A    
C1    C21   S    
C73   H7    S    
C102  O45   A    
C69   C72   A    
O12   Zn3   S    
C68   C86   A    
C21   O13   A    
C70   C91   A    
C34   C42   S    
C25   C63   A    
C112  H21   S    
O6    Zn14  S    
C8    H46   S    
C18   C47   S    
C82   N16   S    
O20   Zn2   S    
C75   N9    S    
C26   O17   A    
O33   Zn13  S    
O47   Zn12  S    
C22   C54   S    
H58   N21   S    
O9    Zn11  S    
H14   N10   S    
C10   H57   S    
C11   H59   S    
C15   H73   S    
C92   C100  A    
N3    N8    A    
C88   N22   S    
C32   O24   A    
C110  N9    S    
C28   O48   A    
C84   C97   A    
O26   Zn2   S    
C35   O38   A    
C30   O21   A    
C67   H2    S    
C86   N20   S    
C73   C90   A    
C79   C93   A    
O23   Zn6   S    
O14   Zn4   S    
C19   C36   S    
O23   Zn10  S    
C4    H30   S    
C72   C89   A    
C103  N32   A    
C17   O4    A    
C76   N10   S    
C58   C71   A    
C65   C83   A    
N2    N5    A    
C4    H28   S    
C20   C25   S    
C45   C51   T    
C15   H72   S    
O31   Zn11  S    
C100  C104  S    
C23   O15   A    
C34   O32   A    
C3    H24   S    
C103  N5    A    
O1    Zn8   S    
C74   C92   A    
C9    H51   S    
C13   C69   S    
C41   C55   T    
C90   N25   S    
C85   C98   A    
O19   Zn7   S    
C6    H37   S    
C58   C66   A    
H31   N15   S    
O52   Zn4   S    
C78   C96   A    
C10   H55   S    
C40   C56   T    
C66   H80   S    
C33   O25   A    
C104  N8    A    
C31   O22   A    
C16   N26   S    
C3    H25   S    
C28   O19   A    
C12   N22   S    
C15   N25   S    
O12   Zn13  S    
C6    N16   S    
C88   C97   A    
C24   O16   A    
C27   C50   S    
C22   O14   A    
C17   C58   S    
C12   H64   S    
C26   O41   A    
C76   C94   A    
O34   Zn15  S    
C44   C52   T    
C36   C64   A    
N1    N29   A    
C12   H65   S    
C96   C108  S    
O36   Zn15  S    
C11   H60   S    
H71   N25   S    
C20   O7    A    
O16   Zn6   S    
C1    C62   A    
C23   O43   A    
C108  N27   A    
O22   Zn3   S    
O12   Zn7   S    
N4    N7    A    
C8    N18   S    
C70   C87   A    
C85   N19   S    
C111  N10   S    
O18   Zn8   S    
C7    N17   S    
O29   Zn5   S    
C23   C53   S    
O35   Zn12  S    
O21   Zn16  S    
C32   C44   S    
C99   C105  S    
C15   H74   S    
C60   C77   A    
C67   C85   A    
C11   H61   S    
C71   H5    S    
C3    N13   S    
H44   N18   S    
O49   Zn7   S    
O1    Zn12  S    
C62   C79   A    
C33   O31   A    
C5    H33   S    
C31   O33   A    
C16   H76   S    
O46   Zn15  S    
C39   O30   A    
C108  N31   A    
C109  N23   A    
C101  N6    A    
C102  O52   A    
H22   N13   S    
C57   H1    S    
C110  H13   S    
C70   H4    S    
O39   Zn1   S    
O25   Zn16  S    
C43   C53   T    
C77   C95   A    
C72   H6    S    
C71   C88   A    
H27   N14   S    
O15   Zn3   S    
O34   Zn11  S    
C67   C69   A    
C66   C84   A    
C33   C43   S    
C74   C91   A    
C9    H52   S    
N6    N32   A    
C61   H34   S    
C37   O39   A    
C13   O3    A    
C16   H79   S    
C1    C57   A    
C110  H11   S    
C5    N15   S    
H49   N19   S    
C28   C49   S    
C22   O42   A    
O1    Zn4   S    
C7    H41   S    
O5    Zn15  S    
C61   C78   A    
C10   H54   S    
C20   O11   A    
O37   Zn14  S    
C24   O40   A    
C35   O27   A    
O42   Zn1   S    
C87   N21   S    
C62   H45   S    
C14   N24   S    
O45   Zn8   S    
C3    H26   S    
C97   C103  S    
C112  H20   S    
C6    H38   S    
C92   N26   S    
C86   C99   A    
C60   H23   S    
C64   C82   A    
C83   N17   S    
C13   O50   A    
C11   N21   S    
C12   H63   S    
C6    H39   S    
O30   Zn6   S    
C10   N20   S    
C63   H56   S    
N12   N28   A    
C105  N7    A    
C30   O46   A    
C89   N24   S    
O48   Zn13  S    
C95   C109  S    
O43   Zn9   S    
O38   Zn9   S    
C91   C102  S    
O44   Zn14  S    
C68   C80   A    
C8    H48   S    
C19   O10   A    
C90   C99   A    
C4    H29   S    
C14   H69   S    
C101  N2    A    
C75   C93   A    
C111  H17   S    
C87   C100  A    
C104  N4    A    
O34   Zn16  S    
C59   H12   S    
C64   H67   S    
C79   N14   S    
C73   C80   A    
C94   C106  S    
O1    Zn1   S    
C82   C95   A    
C63   C81   A    
C107  N1    A    
O3    Zn6   S    
O50   Zn2   S    
C38   C48   S    
C32   O35   A    
C81   N15   S    
O11   Zn13  S    
O17   Zn5   S    
C5    H32   S    
C18   O5    A    
N23   N31   A    
C47   C61   A    
H53   N20   S    
C4    N14   S    
C29   C56   S    
C37   C40   S    
C37   O28   A    
C74   H8    S    
C30   C55   S    
C46   C50   T    
C112  N11   S    
C98   C101  S    
H66   N24   S    
C89   C98   A    
O51   Zn16  S    
O40   Zn10  S    
C57   C75   A    
O23   Zn2   S    
O28   Zn8   S    
C78   N13   S    
H9    N9    S    
C17   O51   A    
O10   Zn10  S    
C26   C51   S    
C42   C54   T    
N27   N30   A    
C111  H15   S    
C81   C94   A    
C21   O8    A    
O27   Zn7   S    
C7    H42   S    
C18   O9    A    
C5    H35   S    
C9    N19   S    
C109  N30   A    
C48   C49   T    
C83   C96   A    
O32   Zn10  S    
O23   Zn14  S    
C93   C107  S    
C29   O20   A    
C39   C46   S    
O34   Zn5   S    
C84   N18   S    
O2    Zn3   S    
C112  H19   S    
C9    H50   S    
C35   C41   S    
C19   O6    A    
C14   H68   S    
O24   Zn4   S    
C2    C80   S    
C16   H77   S    
O41   Zn11  S    
C68   H3    S    
C106  N12   A    
C107  N28   A    
C106  N29   A    
C77   N11   S    
C38   O29   A    
C7    H43   S    
C65   H78   S    
C2    O2    A    
C31   C45   S    
C14   H70   S    
C111  H16   S    
C34   O26   A    
C29   O44   A    
C36   C60   A    
O7    Zn9   S    
C39   O37   A    
O12   Zn9   S    
C25   C59   A    
O8    Zn1   S    
H62   N22   S    
C105  N3    A    
O13   Zn12  S    
C38   O36   A    
C59   C76   A    
C47   C65   A    
C110  H10   S    
H18   N11   S    
C8    H47   S    
H36   N16   S    
C2    O49   A    
H75   N26   S    
