data_mof_unit_18039.cif
_audit_creation_date              2012-12-10T18:16:13-0500
_audit_creation_method            fapswitch 2.2
_symmetry_space_group_name_H-M    P1
_symmetry_Int_Tables_number       1
_space_group_crystal_system       triclinic
_cell_length_a                    15.889867
_cell_length_b                    14.661358
_cell_length_c                    10.661424
_cell_angle_alpha                 89.672227
_cell_angle_beta                  89.543821
_cell_angle_gamma                 90.125167
_cell_volume                      2483.63472951

loop_
_atom_site_label
_atom_site_type_symbol
_atom_type_description
_atom_site_fract_x
_atom_site_fract_y
_atom_site_fract_z
_atom_type_partial_charge
C1    C     C_R   0.339802 0.499873 0.500378 0.862312
C2    C     C_3   0.497514 0.500711 0.122411 -0.065934
C3    C     C_3   0.049592 0.585271 0.544138 -0.381914
C4    C     C_3   0.047106 0.415818 0.564986 -0.413697
C5    C     C_3   0.949961 0.418905 0.569996 -0.383476
C6    C     C_3   0.952460 0.588381 0.540731 -0.389968
C7    C     C_1   0.749785 0.500048 0.494320 -0.171133
C8    C     C_3   0.083171 0.495836 0.483196 0.268038
C9    C     C_3   0.917420 0.498258 0.487837 0.301633
C10   C     C_3   0.950447 0.483664 0.351869 -0.413538
C11   C     C_3   0.050169 0.489832 0.342079 0.064032
C12   C     C_1   0.825278 0.499494 0.490796 -0.101041
C13   C     C_1   0.175161 0.497846 0.491769 -0.132990
C14   C     C_R   0.498831 0.500299 0.258803 0.854583
C15   C     C_1   0.250458 0.499298 0.497161 -0.164538
C16   C     C_3   0.570975 0.053923 0.413402 -0.364566
C17   C     C_3   0.570963 0.947269 0.413413 -0.354919
C18   C     C_3   0.415922 0.053326 0.458508 -0.362340
C19   C     C_3   0.415916 0.946710 0.458515 -0.349104
C20   C     C_3   0.501825 0.091890 0.502621 0.233609
C21   C     C_3   0.501813 0.908174 0.502633 0.221644
C22   C     C_3   0.518565 0.946216 0.635851 -0.363083
C23   C     C_3   0.518585 0.052828 0.635840 -0.356575
C24   C     C_1   0.501685 0.804951 0.502723 0.082731
C25   C     C_1   0.501699 0.195068 0.502708 0.056873
C26   C     C_R   0.660173 0.500064 0.498382 0.825058
C27   C     C_R   0.499334 0.499700 0.740851 0.798447
C28   C     C_3   0.497531 0.585784 0.037728 0.042465
C29   C     C_3   0.429387 0.456969 0.041044 0.021176
C30   C     C_3   0.428347 0.542716 0.956206 -0.232192
C31   C     C_3   0.498392 0.499082 0.876748 -0.003818
C32   C     C_3   0.567584 0.543574 0.955755 -0.281571
C33   C     C_3   0.498157 0.412424 0.958866 -0.228895
C34   C     C_3   0.566373 0.457546 0.040461 0.011436
Cu1   Cu    Cu3+1 0.499910 0.589920 0.499840 0.986528
Cu2   Cu    Cu3+1 0.499910 0.410080 0.499840 0.985778
H1    H     H_    0.371681 0.577623 0.919242 0.133018
H2    H     H_    0.917757 0.528638 0.284417 0.138111
H3    H     H_    0.928554 0.414436 0.324283 0.159270
H4    H     H_    0.560429 0.922425 0.316351 0.162709
H5    H     H_    0.560464 0.079561 0.316346 0.151294
H6    H     H_    0.364682 0.078162 0.521237 0.153940
H7    H     H_    0.364674 0.921122 0.521247 0.155598
H8    H     H_    0.402150 0.078916 0.362387 0.158337
H9    H     H_    0.402151 0.921853 0.362392 0.173893
H10   H     H_    0.580321 0.078039 0.670121 0.154746
H11   H     H_    0.580286 0.920993 0.670161 0.153335
H12   H     H_    0.469548 0.077662 0.702371 0.153041
H13   H     H_    0.469509 0.920623 0.702372 0.157987
H14   H     H_    0.633813 0.079191 0.442951 0.150793
H15   H     H_    0.633803 0.922079 0.442979 0.151023
H16   H     H_    0.623081 0.580208 0.916340 0.123024
H17   H     H_    0.498418 0.341126 0.924271 0.139732
H18   H     H_    0.927721 0.599209 0.637505 0.162784
H19   H     H_    0.928469 0.427701 0.668851 0.165499
H20   H     H_    0.070286 0.588938 0.643585 0.167084
H21   H     H_    0.071717 0.420630 0.662246 0.168005
H22   H     H_    0.066488 0.348148 0.529991 0.159900
H23   H     H_    0.076146 0.646812 0.496913 0.178414
H24   H     H_    0.923865 0.352836 0.536781 0.163121
H25   H     H_    0.930986 0.647316 0.483662 0.158672
N1    N     N_1   0.501390 0.724970 0.502570 -0.143640
N2    N     N_1   0.501390 0.275030 0.502570 -0.149856
O1    O     O_R   0.379360 0.575970 0.499860 -0.570334
O2    O     O_R   0.379360 0.424030 0.499860 -0.557814
O3    O     O_R   0.499910 0.575920 0.316720 -0.565294
O4    O     O_R   0.499910 0.424080 0.316720 -0.558233
O5    O     O_R   0.620490 0.575900 0.499870 -0.583011
O6    O     O_R   0.620490 0.424100 0.499870 -0.570484
O7    O     O_R   0.499950 0.575950 0.683010 -0.584525
O8    O     O_R   0.499950 0.424050 0.683010 -0.589170
C35   C     C_2   0.497316 0.683047 0.079557 0.370907
H26   H     H_    0.553239 0.724749 0.067048 0.041967
O9    O     O_2   0.434987 0.715159 0.130033 -0.559334
C36   C     C_2   0.351243 0.408421 0.084302 0.301728
H27   H     H_    0.307595 0.382086 0.015641 0.072648
O10   O     O_2   0.336141 0.398213 0.195836 -0.557057
C37   C     C_R   0.641633 0.407632 0.090993 0.101259
C38   C     C_R   0.723079 0.443554 0.075937 -0.157891
C39   C     C_R   0.792231 0.397136 0.124976 -0.144899
C40   C     C_R   0.780707 0.315042 0.190128 -0.112022
C41   C     C_R   0.699867 0.278725 0.205295 -0.132546
C42   C     C_R   0.630582 0.324522 0.155353 -0.119441
H28   H     H_    0.733451 0.507462 0.027022 0.114838
H29   H     H_    0.854716 0.425013 0.112400 0.115451
H30   H     H_    0.834401 0.279514 0.228494 0.120269
H31   H     H_    0.690868 0.215023 0.255508 0.115022
H32   H     H_    0.568325 0.295353 0.167165 0.138232
C43   C     C_R   0.082430 0.575147 0.267417 0.098036
C44   C     C_R   0.166207 0.576197 0.220551 -0.140935
C45   C     C_R   0.198204 0.650791 0.153506 -0.120350
C46   C     C_R   0.147930 0.726863 0.132202 -0.110398
C47   C     C_R   0.065689 0.728538 0.178417 -0.150558
C48   C     C_R   0.033105 0.654017 0.245482 -0.170068
H33   H     H_    0.207382 0.518584 0.234975 0.176185
H34   H     H_    0.262220 0.649436 0.118058 0.171485
H35   H     H_    0.172829 0.784746 0.080393 0.127349
H36   H     H_    0.026985 0.788148 0.162847 0.122816
H37   H     H_    0.969938 0.660956 0.281043 0.120356
C49   C     C_R   0.078919 0.405417 0.264597 0.069847
C50   C     C_R   0.138511 0.339935 0.304804 -0.125120
C51   C     C_R   0.162610 0.267967 0.226953 -0.085411
C52   C     C_R   0.129107 0.260015 0.107143 -0.130700
C53   C     C_R   0.071669 0.324407 0.064265 -0.144766
C54   C     C_R   0.047266 0.396410 0.141487 -0.157217
H38   H     H_    0.168852 0.343033 0.394313 0.134404
H39   H     H_    0.208242 0.218621 0.259389 0.126427
H40   H     H_    0.148305 0.204417 0.047086 0.116045
H41   H     H_    0.046383 0.319015 0.970611 0.122037
H42   H     H_    0.004026 0.446509 0.104415 0.119388

loop_
_geom_bond_atom_site_label_1
_geom_bond_atom_site_label_2
_ccdc_geom_bond_type
C54   H42   S    
C8    C13   S    
Cu1   Cu2   S    
C4    C8    S    
C3    C6    S    
C17   H15   S    
C6    C9    S    
C40   C41   A    
Cu2   O4    S    
C44   H33   S    
C49   C54   A    
C47   C48   A    
C7    C26   S    
C2    C29   S    
Cu1   O5    S    
C6    H25   S    
C46   C47   A    
C19   C21   S    
C16   H14   S    
C18   H6    S    
C38   H28   S    
C20   C25   S    
C41   H31   S    
C29   C33   S    
C18   C19   S    
C25   N2    T    
C43   C48   A    
C32   H16   S    
C45   H34   S    
C37   C42   A    
Cu1   O7    S    
C16   C17   S    
C4    H21   S    
C1    O2    A    
C14   O4    A    
C31   C33   S    
Cu1   O1    S    
C1    C15   S    
Cu2   N2    S    
C9    C10   S    
C40   H30   S    
Cu2   O8    S    
C2    C34   S    
C42   H32   S    
C23   H10   S    
C21   C22   S    
C28   C35   S    
C6    H18   S    
C53   C54   A    
C19   H7    S    
C46   H35   S    
C33   H17   S    
C7    C12   T    
C27   C31   S    
C50   C51   A    
C28   C32   S    
C35   O9    D    
C3    C8    S    
C45   C46   A    
Cu2   O2    S    
C39   C40   A    
Cu1   O3    S    
C17   C21   S    
C30   H1    S    
C11   C49   S    
C17   H4    S    
C32   C34   S    
C36   H27   S    
C5    C9    S    
C39   H29   S    
C18   H8    S    
C3    H20   S    
C11   C43   S    
C31   C32   S    
C20   C23   S    
C30   C31   S    
C16   C20   S    
C33   C34   S    
C14   O3    A    
C51   H39   S    
C36   O10   D    
C52   H40   S    
C27   O7    A    
C22   H13   S    
C13   C15   T    
C1    O1    A    
C27   O8    A    
Cu2   O6    S    
C50   H38   S    
C24   N1    T    
C23   H12   S    
C5    H24   S    
C37   C38   A    
C5    H19   S    
C35   H26   S    
C19   H9    S    
C29   C36   S    
C10   H2    S    
C26   O5    A    
C28   C30   S    
C34   C37   S    
C44   C45   A    
C53   H41   S    
C48   H37   S    
C8    C11   S    
C47   H36   S    
C49   C50   A    
C22   H11   S    
Cu1   N1    S    
C18   C20   S    
C51   C52   A    
C2    C14   S    
C9    C12   S    
C10   C11   S    
C29   C30   S    
C38   C39   A    
C4    C5    S    
C41   C42   A    
C21   C24   S    
C4    H22   S    
C52   C53   A    
C26   O6    A    
C22   C23   S    
C10   H3    S    
C2    C28   S    
C43   C44   A    
C16   H5    S    
C3    H23   S    
