data_mof_unit_66822.cif
_audit_creation_date              2012-12-11T14:30:50-0500
_audit_creation_method            fapswitch 2.2
_symmetry_space_group_name_H-M    P1
_symmetry_Int_Tables_number       1
_space_group_crystal_system       triclinic
_cell_length_a                    8.358449
_cell_length_b                    15.110297
_cell_length_c                    15.096576
_cell_angle_alpha                 96.185686
_cell_angle_beta                  100.133702
_cell_angle_gamma                 98.339013
_cell_volume                      1839.62238808

loop_
_atom_site_label
_atom_site_type_symbol
_atom_type_description
_atom_site_fract_x
_atom_site_fract_y
_atom_site_fract_z
_atom_type_partial_charge
Ba1   Ba    Ba6+2 0.154730 0.543770 0.458180 1.727896
Ba2   Ba    Ba6+2 0.655430 0.456220 0.541750 1.696399
C1    C     C_3   0.485747 0.866963 0.189795 -0.401919
C2    C     C_3   0.383363 0.786000 0.218854 0.818947
C3    C     C_3   0.615334 0.737226 0.671479 0.316941
C4    C     C_3   0.706863 0.832366 0.708342 -0.400604
C5    C     C_3   0.828506 0.221957 0.780000 0.740736
C6    C     C_3   0.744307 0.152911 0.832732 -0.291568
C7    C     C_3   0.380575 0.258730 0.782312 0.743725
C8    C     C_3   0.333267 0.212844 0.864543 0.336819
C9    C     C_R   0.188470 0.168583 0.545403 0.027000
C10   C     C_R   0.122641 0.074616 0.536541 -0.158132
C11   C     C_R   0.973362 0.889980 0.532714 -0.130202
C12   C     C_3   0.888269 0.779985 0.241099 0.508895
C13   C     C_R   0.128557 0.926147 0.588182 0.375360
C14   C     C_R   0.209957 0.012308 0.580641 0.320623
C15   C     C_R   0.901015 0.796574 0.524175 0.084375
C16   C     C_R   0.741552 0.767667 0.473738 -0.288474
C17   C     C_R   0.923209 0.201760 0.468068 -0.002138
C18   C     C_R   0.856382 0.107506 0.458160 -0.015761
C19   C     C_R   0.955712 0.044082 0.492064 -0.051796
C20   C     C_R   0.691782 0.074505 0.416960 -0.072433
C21   C     C_R   0.627175 0.982991 0.404648 -0.140723
C22   C     C_R   0.718135 0.919977 0.441060 -0.010932
C23   C     C_3   0.934571 0.869557 0.206440 0.356935
C24   C     C_R   0.883991 0.950744 0.486732 -0.047877
C25   C     C_R   0.646023 0.827957 0.436417 -0.054483
C26   C     C_R   0.088323 0.229367 0.511160 -0.256799
C27   C     C_R   0.256850 0.473041 0.768964 -0.255694
C28   C     C_R   0.156299 0.440451 0.825638 0.021549
C29   C     C_R   0.210881 0.457547 0.919627 -0.186657
C30   C     C_R   0.360445 0.515872 0.958910 -0.023380
C31   C     C_R   0.447987 0.562980 0.899992 0.308351
C32   C     C_R   0.400806 0.534765 0.804584 0.031096
C33   C     C_R   0.600986 0.550074 0.091435 -0.104673
C34   C     C_3   0.617465 0.235011 0.254053 0.733831
C35   C     C_R   0.669719 0.559123 0.183117 -0.025538
C36   C     C_R   0.412306 0.487147 0.213137 0.080426
C37   C     C_R   0.336734 0.490029 0.122493 -0.144205
C38   C     C_R   0.431082 0.521258 0.059108 -0.005779
C39   C     C_R   0.576312 0.527161 0.244082 -0.241183
C40   C     C_3   0.628341 0.139498 0.208440 0.388926
C41   C     C_3   0.078862 0.652739 0.735499 0.315646
C42   C     C_3   0.122103 0.677092 0.838073 -0.424142
C43   C     C_3   0.138637 0.264163 0.193606 1.110858
C44   C     C_3   0.214130 0.201847 0.129709 -0.320931
H1    H     H_    0.968256 0.599497 0.717764 0.081795
H2    H     H_    0.248172 0.717194 0.858177 0.136926
H3    H     H_    0.116262 0.615454 0.871292 0.074481
H4    H     H_    0.410664 0.921033 0.177999 0.093070
H5    H     H_    0.296669 0.164015 0.169223 0.071512
H6    H     H_    0.460679 0.732690 0.232202 -0.116215
H7    H     H_    0.531577 0.847487 0.127114 0.110025
H8    H     H_    0.703515 0.696609 0.647533 0.002317
H9    H     H_    0.514397 0.740223 0.613782 0.061363
H10   H     H_    0.884949 0.923240 0.244059 -0.083192
H11   H     H_    0.671151 0.093520 0.785853 0.085435
H12   H     H_    0.836740 0.129968 0.883265 0.068782
H13   H     H_    0.659763 0.182150 0.870354 0.093079
H14   H     H_    0.262959 0.275002 0.745988 -0.067860
H15   H     H_    0.250284 0.253461 0.895011 -0.014297
H16   H     H_    0.949858 0.786054 0.313619 -0.055459
H17   H     H_    0.500133 0.963366 0.370569 0.088503
H18   H     H_    0.609016 0.118507 0.392770 0.047379
H19   H     H_    0.686099 0.697584 0.469075 0.055734
H20   H     H_    0.140027 0.300300 0.518767 0.065282
H21   H     H_    0.132277 0.426391 0.960673 0.085572
H22   H     H_    0.752466 0.765185 0.235203 -0.169918
H23   H     H_    0.633948 0.528866 0.314428 0.068376
H24   H     H_    0.214372 0.456946 0.696201 0.053021
H25   H     H_    0.071696 0.887775 0.221967 0.039061
H26   H     H_    0.530999 0.221696 0.300253 -0.056952
O1    O     O_2   0.174080 0.723060 0.553930 -0.404392
O2    O     O_3   0.264584 0.305822 0.270653 -0.644847
O3    O     O_3   0.942007 0.712504 0.188039 -0.544747
O4    O     O_2   0.636200 0.276890 0.446040 -0.495824
O5    O     O_3   0.908720 0.390410 0.449080 -0.459417
O6    O     O_3   0.439930 0.334910 0.611650 -0.446232
O7    O     O_3   0.773203 0.282972 0.300038 -0.618062
O8    O     O_3   0.402060 0.547860 0.609750 -0.484073
O9    O     O_3   0.872630 0.381370 0.659060 -0.479950
O10   O     O_2   0.853957 0.469056 0.815480 -0.489389
O11   O     O_3   0.862051 0.306002 0.834532 -0.626597
O12   O     O_3   0.901570 0.609580 0.550840 -0.519254
O13   O     O_3   0.408220 0.452130 0.390170 -0.479712
O14   O     O_2   0.675490 0.547140 0.721820 -0.462773
O15   O     O_3   0.548465 0.702032 0.741501 -0.634034
O16   O     O_2   0.533916 0.183384 0.565528 -0.485877
O17   O     O_3   0.440746 0.197493 0.723905 -0.580102
O18   O     O_3   0.370350 0.665080 0.388270 -0.473941
O19   O     O_2   0.328466 0.820919 0.465879 -0.489331
O20   O     O_3   0.047988 0.730597 0.698684 -0.618996
O21   O     O_3   0.323559 0.817855 0.295873 -0.608359
O22   O     O_2   0.134790 0.452800 0.278150 -0.412784
O23   O     O_3   0.937650 0.618620 0.340860 -0.487439
O24   O     O_2   0.995939 0.548386 0.181576 -0.467891
P1    P     P_3+3 0.004200 0.709230 0.580350 1.029594
P2    P     P_3+3 0.305000 0.425570 0.290900 1.089272
P3    P     P_3+3 0.885775 0.608124 0.223111 1.004204
P4    P     P_3+3 0.806080 0.290760 0.419570 1.003906
P5    P     P_3+3 0.939621 0.393873 0.778498 0.971002
P6    P     P_3+3 0.421935 0.782796 0.395217 0.921765
P7    P     P_3+3 0.507846 0.584038 0.721291 0.972733
P8    P     P_3+3 0.398838 0.219797 0.609974 1.038689
O25   O     O_3   0.243347 0.749809 0.150478 -0.611759
C45   C     C_3   0.285174 0.713762 0.069218 0.146012
H27   H     H_    0.408991 0.693740 0.078856 0.063912
H28   H     H_    0.280532 0.764428 0.021266 0.040534
H29   H     H_    0.192134 0.653391 0.038422 0.085875
H30   H     H_    0.709211 0.107783 0.256524 -0.041078
H31   H     H_    0.504870 0.096356 0.195574 -0.121739
O26   O     O_3   0.691681 0.141746 0.128143 -0.645350
C46   C     C_3   0.672631 0.053497 0.082187 0.162691
H32   H     H_    0.540362 0.026101 0.054492 0.026782
H33   H     H_    0.727730 0.007874 0.127230 0.083580
H34   H     H_    0.737521 0.055740 0.024185 0.046499
H35   H     H_    0.183035 0.627963 0.710459 -0.007596
H36   H     H_    0.033295 0.717526 0.861975 0.096487
O27   O     O_3   0.068665 0.330036 0.145267 -0.664259
C47   C     C_3   0.972687 0.295693 0.058127 0.053622
H37   H     H_    0.890393 0.231322 0.057648 0.116408
H38   H     H_    0.896674 0.346377 0.035716 0.062576
H39   H     H_    0.052408 0.286474 0.007565 0.046589
O28   O     O_3   0.011661 0.211385 0.226082 -0.623104
C48   C     C_3   0.071167 0.144691 0.276601 0.152358
H40   H     H_    0.176875 0.173130 0.332847 0.023929
H41   H     H_    0.102189 0.088954 0.232284 -0.004152
H42   H     H_    0.972484 0.112443 0.307616 0.047283
H43   H     H_    0.282037 0.240788 0.085667 0.094538
H44   H     H_    0.115465 0.150532 0.086092 0.021071
H45   H     H_    0.818438 0.829233 0.759340 0.117137
H46   H     H_    0.744181 0.867715 0.652830 0.031471
H47   H     H_    0.626486 0.871904 0.741769 0.125835
H48   H     H_    0.595609 0.893899 0.243029 0.059539
H49   H     H_    0.744102 0.226453 0.715677 0.065433
O29   O     O_3   0.977669 0.197326 0.763680 -0.683333
C49   C     C_3   0.946361 0.116507 0.703330 0.069244
H50   H     H_    0.866325 0.123016 0.638486 0.029736
H51   H     H_    0.894599 0.057558 0.733388 0.034376
H52   H     H_    0.065653 0.102287 0.691231 0.130677
O30   O     O_3   0.495874 0.341495 0.804165 -0.658253
C50   C     C_3   0.567972 0.366640 0.897300 0.155975
H53   H     H_    0.652478 0.321487 0.922223 0.043805
H54   H     H_    0.474933 0.369188 0.940569 -0.054369
H55   H     H_    0.642128 0.434686 0.907049 0.094817
H56   H     H_    0.442069 0.212141 0.918005 -0.049251
O31   O     O_3   0.254318 0.122787 0.836705 -0.637079
C51   C     C_3   0.199862 0.087535 0.911193 0.147305
H57   H     H_    0.304863 0.087200 0.967713 0.034834
H58   H     H_    0.136741 0.016933 0.889885 0.015204
H59   H     H_    0.108563 0.125838 0.934977 0.052292
O32   O     O_3   0.205509 0.877770 0.650796 -0.617375
C52   C     C_3   0.202982 0.916707 0.739694 0.210819
H60   H     H_    0.079192 0.932568 0.746082 -0.007066
H61   H     H_    0.300179 0.976813 0.761901 0.128798
H62   H     H_    0.233754 0.868156 0.787445 0.072938
O33   O     O_3   0.368061 0.039090 0.630633 -0.627690
C53   C     C_3   0.477340 0.991203 0.592658 0.259293
H63   H     H_    0.449129 0.985780 0.518037 0.035170
H64   H     H_    0.473718 0.923497 0.614274 0.081076
H65   H     H_    0.604583 0.028111 0.616912 0.031785
H66   H     H_    0.684366 0.560380 0.046189 0.067738
H67   H     H_    0.206511 0.466868 0.102391 0.133194
O34   O     O_3   0.543571 0.647359 0.934558 -0.664870
C54   C     C_3   0.709787 0.653451 0.924095 0.169291
H68   H     H_    0.791270 0.682431 0.990187 0.097675
H69   H     H_    0.737841 0.702426 0.877496 0.088741
H70   H     H_    0.745387 0.587986 0.902115 0.034203
O35   O     O_3   0.865226 0.860929 0.112659 -0.636139
C55   C     C_3   0.973521 0.909878 0.066565 0.135392
H71   H     H_    0.086522 0.879188 0.066242 0.075533
H72   H     H_    0.006677 0.982048 0.096783 0.007106
H73   H     H_    0.910833 0.907126 0.994912 0.048153
O36   O     O_3   0.538498 0.287905 0.193585 -0.700339
C56   C     C_3   0.635834 0.323683 0.134450 0.173938
H74   H     H_    0.576108 0.376278 0.104132 -0.000277
H75   H     H_    0.633714 0.273400 0.075406 0.077041
H76   H     H_    0.762116 0.356141 0.169268 0.124489

loop_
_geom_bond_atom_site_label_1
_geom_bond_atom_site_label_2
_ccdc_geom_bond_type
C42   H3    S    
C5    O11   S    
C19   C24   A    
C34   O36   S    
Ba1   O18   S    
Ba1   O5    S    
O35   C55   S    
O25   C45   S    
C34   C40   S    
C17   C18   A    
C51   H59   S    
O31   C51   S    
C36   P2    S    
C44   H43   S    
C5    C6    S    
C56   H75   S    
O9    P5    S    
C43   C44   S    
Ba1   O12   S    
O1    P1    D    
C49   H51   S    
C54   H68   S    
C55   H72   S    
C2    H6    S    
O12   P1    S    
O34   C54   S    
C33   C35   A    
C22   C24   A    
C46   H32   S    
C4    H47   S    
C6    H13   S    
C3    C4    S    
O23   P3    S    
C55   H71   S    
O22   P2    D    
C13   C14   A    
C12   H16   S    
O24   P3    D    
O5    P4    S    
Ba1   Ba2   S    
C40   O26   S    
O36   C56   S    
C13   O32   S    
O13   P2    S    
C53   H65   S    
C6    H12   S    
C12   C23   S    
Ba2   O12   S    
O33   C53   S    
O18   P6    S    
C10   C14   A    
Ba1   O22   S    
C48   H42   S    
C21   C22   A    
C23   H10   S    
C9    P8    S    
C23   H25   S    
C52   H61   S    
C41   H1    S    
C7    C8    S    
C47   H39   S    
C8    O31   S    
C46   H34   S    
C43   O27   S    
C21   H17   S    
Ba2   P4    S    
C54   H69   S    
C53   H64   S    
C50   H55   S    
O14   P7    D    
O26   C46   S    
O16   P8    D    
C1    H4    S    
C47   H38   S    
O20   P1    S    
C31   C32   A    
C56   H76   S    
C43   O28   S    
Ba1   O13   S    
C49   H52   S    
C33   H66   S    
O8    P7    S    
O6    P8    S    
C3    H8    S    
C31   O34   S    
C51   H57   S    
C36   C39   A    
O2    P2    S    
Ba1   P1    S    
C37   C38   A    
C7    O30   S    
C4    H45   S    
Ba2   O13   S    
C27   C32   A    
C43   O2    S    
C16   H19   S    
C53   H63   S    
Ba1   P2    S    
C26   H20   S    
C40   H31   S    
C5    H49   S    
C27   C28   A    
Ba2   O6    S    
C6    H11   S    
O7    P4    S    
C56   H74   S    
C42   H36   S    
C28   C29   A    
Ba1   O23   S    
C22   C25   A    
O3    P3    S    
C15   C16   A    
O32   C52   S    
C52   H62   S    
C17   C26   A    
C41   H35   S    
O15   P7    S    
C4    H46   S    
C18   C20   A    
C54   H70   S    
C11   C13   A    
C41   C42   S    
C48   H40   S    
C50   H54   S    
C11   C24   A    
C8    H15   S    
O19   P6    D    
C7    O17   S    
C1    C2    S    
C8    H56   S    
C35   P3    S    
Ba2   O4    S    
C47   H37   S    
C39   H23   S    
C27   H24   S    
C2    O25   S    
C23   O35   S    
O11   P5    S    
C14   O33   S    
C20   C21   A    
C3    H9    S    
C29   C30   A    
C16   C25   A    
C41   O20   S    
C51   H58   S    
O29   C49   S    
C34   O7    S    
O21   P6    S    
C44   H44   S    
O27   C47   S    
O4    P4    D    
C49   H50   S    
C25   P6    S    
C32   P7    S    
C11   C15   A    
C7    H14   S    
Ba1   O1    S    
C12   O3    S    
C1    H48   S    
C33   C38   A    
C40   H30   S    
C5    O29   S    
O17   P8    S    
Ba2   O5    S    
O30   C50   S    
C30   C31   A    
C17   P4    S    
C1    H7    S    
C36   C37   A    
C45   H28   S    
C9    C26   A    
C10   C19   A    
C28   P5    S    
O10   P5    D    
Ba2   O14   S    
C30   C38   S    
C44   H5    S    
C35   C39   A    
Ba2   O8    S    
C29   H21   S    
C20   H18   S    
C2    O21   S    
C3    O15   S    
C34   H26   S    
C18   C19   A    
C15   P1    S    
C45   H27   S    
C48   H41   S    
Ba1   O8    S    
C12   H22   S    
C50   H53   S    
Ba2   O9    S    
C52   H60   S    
C37   H67   S    
C45   H29   S    
C42   H2    S    
C9    C10   A    
O28   C48   S    
C46   H33   S    
C55   H73   S    
