data_mof_unit_38991.cif
_audit_creation_date              2012-12-10T17:47:51-0500
_audit_creation_method            fapswitch 2.2
_symmetry_space_group_name_H-M    P1
_symmetry_Int_Tables_number       1
_space_group_crystal_system       triclinic
_cell_length_a                    14.727227
_cell_length_b                    14.514939
_cell_length_c                    14.330483
_cell_angle_alpha                 77.253186
_cell_angle_beta                  102.207919
_cell_angle_gamma                 113.830205
_cell_volume                      2707.32564796

loop_
_atom_site_label
_atom_site_type_symbol
_atom_type_description
_atom_site_fract_x
_atom_site_fract_y
_atom_site_fract_z
_atom_type_partial_charge
C1    C     C_R   0.880703 0.311356 0.512970 0.800750
C2    C     C_R   0.119304 0.688622 0.487060 0.801465
C3    C     C_R   0.638918 0.078193 0.517942 0.023015
C4    C     C_R   0.361667 0.920890 0.482476 0.022644
C5    C     C_R   0.666506 0.027646 0.609121 0.081210
C6    C     C_R   0.334450 0.971305 0.390966 0.081478
C7    C     C_R   0.537820 0.035711 0.472520 0.068982
C8    C     C_R   0.462893 0.963000 0.527921 0.068404
C9    C     C_R   0.491399 0.937987 0.627255 -0.213339
C10   C     C_R   0.509624 0.060544 0.373143 -0.212116
C11   C     C_R   0.591365 0.960834 0.664583 -0.202844
C12   C     C_R   0.409785 0.037686 0.335548 -0.203991
C13   C     C_R   0.695717 0.628679 0.313290 -0.199095
C14   C     C_R   0.304062 0.370598 0.686387 -0.113037
C15   C     C_R   0.785202 0.614805 0.352958 0.032633
C16   C     C_R   0.215026 0.385669 0.647254 0.061440
C17   C     C_R   0.720729 0.522142 0.497965 0.020870
C18   C     C_R   0.278892 0.476942 0.501642 0.010024
C19   C     C_R   0.628359 0.535928 0.464489 -0.035068
C20   C     C_R   0.371137 0.462815 0.534986 -0.039666
C21   C     C_R   0.615524 0.587433 0.368941 0.093037
C22   C     C_R   0.384020 0.411337 0.630560 0.066819
C23   C     C_R   0.000060 0.500023 0.668917 0.807832
C24   C     C_R   0.999943 0.499991 0.331081 0.807161
C25   C     C_R   0.547023 0.495634 0.520507 0.079404
C26   C     C_R   0.452402 0.502915 0.478877 0.085445
C27   C     C_R   0.441659 0.549034 0.382092 -0.255387
C28   C     C_R   0.557822 0.449639 0.617320 -0.254822
C29   C     C_R   0.521239 0.590929 0.329060 -0.178185
C30   C     C_R   0.478321 0.407934 0.670426 -0.168335
C31   C     C_1   0.000207 0.500135 0.771223 -0.209834
C32   C     C_1   0.999799 0.499918 0.228767 -0.217784
C33   C     C_1   0.000227 0.500163 0.856648 -0.019187
C34   C     C_1   0.999773 0.499925 0.143334 -0.023299
C35   C     C_1   0.000083 0.500100 0.957278 -0.003104
C36   C     C_1   0.999911 0.500011 0.042697 -0.003859
C37   C     C_R   0.812788 0.201964 0.526220 -0.168557
C38   C     C_R   0.187369 0.797944 0.473936 -0.168730
C39   C     C_R   0.768362 0.046862 0.643706 -0.046687
C40   C     C_R   0.232728 0.952435 0.355933 -0.047523
C41   C     C_R   0.842384 0.130657 0.596988 -0.076519
C42   C     C_R   0.158335 0.869115 0.402576 -0.077632
C43   C     C_R   0.711499 0.172397 0.480800 -0.082794
C44   C     C_R   0.288475 0.827263 0.519881 -0.080126
Cu1   Cu    Cu3+1 0.081740 0.475690 0.523180 0.945987
Cu2   Cu    Cu3+1 0.918260 0.524310 0.476820 0.941509
H1    H     H_    0.609128 0.929768 0.738859 0.166905
H2    H     H_    0.392288 0.068625 0.261164 0.163330
H3    H     H_    0.371505 0.552462 0.343929 0.138871
H4    H     H_    0.628028 0.446379 0.655517 0.137303
H5    H     H_    0.437383 0.898276 0.677015 0.164358
H6    H     H_    0.563919 0.100374 0.323643 0.163326
H7    H     H_    0.506216 0.623194 0.254724 0.183612
H8    H     H_    0.493580 0.376368 0.744920 0.187331
H9    H     H_    0.266316 0.522513 0.433794 0.126705
H10   H     H_    0.733183 0.476226 0.565624 0.122676
H11   H     H_    0.153980 0.356638 0.689727 0.157976
H12   H     H_    0.846797 0.644876 0.311105 0.140277
N1    N     N_R   0.795420 0.560790 0.441960 -0.166509
N2    N     N_R   0.204580 0.439210 0.558040 -0.179931
O1    O     O_R   0.977910 0.338120 0.530560 -0.570359
O2    O     O_R   0.022090 0.661880 0.469440 -0.569137
O3    O     O_R   0.839850 0.379180 0.491410 -0.556373
O4    O     O_R   0.160150 0.620820 0.508590 -0.555544
O5    O     O_R   0.069040 0.479460 0.643530 -0.562225
O6    O     O_R   0.930960 0.520540 0.356470 -0.567869
O7    O     O_R   0.930990 0.520530 0.604380 -0.568344
O8    O     O_R   0.069010 0.479470 0.395620 -0.566089
C45   C     C_R   0.317964 0.753899 0.598562 0.132854
C46   C     C_R   0.391153 0.718780 0.588763 -0.099999
C47   C     C_R   0.420568 0.652581 0.663867 -0.144789
C48   C     C_R   0.374621 0.617684 0.747578 -0.095052
C49   C     C_R   0.299886 0.649877 0.756881 -0.105475
C50   C     C_R   0.271918 0.718169 0.683039 -0.156906
H13   H     H_    0.426489 0.744134 0.523754 0.130483
H14   H     H_    0.478739 0.627961 0.656937 0.145352
H15   H     H_    0.396777 0.565466 0.805126 0.151802
H16   H     H_    0.264019 0.622389 0.821580 0.139513
H17   H     H_    0.214706 0.743475 0.691555 0.107603
C51   C     C_R   0.680846 0.245766 0.403057 0.133580
C52   C     C_R   0.725920 0.282539 0.317997 -0.140620
C53   C     C_R   0.695935 0.349870 0.244614 -0.125196
C54   C     C_R   0.620123 0.379988 0.254954 -0.123375
C55   C     C_R   0.575341 0.344283 0.339353 -0.128853
C56   C     C_R   0.606778 0.279103 0.413998 -0.102647
H18   H     H_    0.783731 0.258571 0.308565 0.105931
H19   H     H_    0.730942 0.378068 0.179394 0.131988
H20   H     H_    0.596161 0.431182 0.197664 0.137506
H21   H     H_    0.516433 0.367414 0.347128 0.144050
H22   H     H_    0.572126 0.252910 0.479448 0.129713
C57   C     C_R   0.052820 0.862013 0.381663 0.161592
C58   C     C_R   0.999376 0.853968 0.288308 -0.149466
C59   C     C_R   0.907233 0.865635 0.266132 -0.143388
C60   C     C_R   0.865617 0.880656 0.337899 -0.106051
C61   C     C_R   0.916343 0.884357 0.431919 -0.156999
C62   C     C_R   0.009921 0.875741 0.453734 -0.123421
H23   H     H_    0.030327 0.841731 0.232152 0.127108
H24   H     H_    0.868225 0.863125 0.193177 0.169927
H25   H     H_    0.794025 0.889255 0.320737 0.161892
H26   H     H_    0.884238 0.896250 0.487339 0.127890
H27   H     H_    0.050388 0.883009 0.525941 0.119980
C63   C     C_R   0.948018 0.138051 0.617025 0.157943
C64   C     C_R   0.990773 0.125864 0.543965 -0.123106
C65   C     C_R   0.084580 0.117775 0.564694 -0.156498
C66   C     C_R   0.135662 0.120361 0.658616 -0.115780
C67   C     C_R   0.094146 0.133727 0.731398 -0.141969
C68   C     C_R   0.001838 0.145029 0.710316 -0.142909
H28   H     H_    0.950067 0.119469 0.471765 0.119901
H29   H     H_    0.116598 0.107160 0.508471 0.128285
H30   H     H_    0.207450 0.112195 0.674932 0.163766
H31   H     H_    0.133372 0.135229 0.804296 0.157780
H32   H     H_    0.971073 0.156153 0.767244 0.128065
C69   C     C_R   0.796797 0.974632 0.723461 0.113711
C70   C     C_R   0.813803 0.893476 0.702426 -0.119354
C71   C     C_R   0.841377 0.825742 0.777269 -0.142365
C72   C     C_R   0.851734 0.838491 0.873382 -0.088152
C73   C     C_R   0.834331 0.918889 0.894794 -0.105715
C74   C     C_R   0.806706 0.986762 0.820117 -0.194228
H33   H     H_    0.805788 0.882944 0.628248 0.116050
H34   H     H_    0.854681 0.763366 0.760765 0.130982
H35   H     H_    0.873103 0.786017 0.931257 0.138845
H36   H     H_    0.842293 0.928609 0.969235 0.143316
H37   H     H_    0.793505 0.048933 0.837302 0.130659
C75   C     C_R   0.204757 0.024348 0.275450 0.117457
C76   C     C_R   0.195161 0.011377 0.179107 -0.192945
C77   C     C_R   0.168055 0.078993 0.103730 -0.125846
C78   C     C_R   0.150793 0.159928 0.124134 -0.089159
C79   C     C_R   0.160805 0.173491 0.219933 -0.138908
C80   C     C_R   0.187903 0.106039 0.295472 -0.120238
H38   H     H_    0.208258 0.948786 0.162706 0.128445
H39   H     H_    0.160391 0.068661 0.029529 0.132605
H40   H     H_    0.129805 0.212193 0.065722 0.140967
H41   H     H_    0.147613 0.236284 0.235653 0.131075
H42   H     H_    0.195678 0.117212 0.369400 0.115302
C81   C     C_2   0.688761 0.684611 0.213184 0.809206
O9    O     O_2   0.655640 0.752258 0.195145 -0.575212
O10   O     O_R   0.723075 0.663949 0.139241 -0.750246
H43   H     H_    0.745571 0.604229 0.159637 0.282311
C82   C     C_2   0.310912 0.314774 0.786194 0.770047
O11   O     O_2   0.276827 0.331813 0.848463 -0.622443
O12   O     O_R   0.351852 0.239530 0.808173 -0.786904
H44   H     H_    0.350303 0.205829 0.878084 0.329854

loop_
_geom_bond_atom_site_label_1
_geom_bond_atom_site_label_2
_ccdc_geom_bond_type
C7    C10   A    
C66   H30   S    
Cu1   N2    S    
C77   C78   A    
Cu2   N1    S    
C27   C29   A    
C49   C50   A    
C11   H1    S    
C61   C62   A    
C9    H5    S    
C4    C8    A    
C10   H6    S    
C79   C80   A    
C70   C71   A    
C7    C8    A    
C39   C41   A    
Cu1   Cu2   S    
C41   C63   S    
C25   C28   A    
C30   H8    S    
C3    C43   A    
C26   C27   A    
C48   H15   S    
C29   H7    S    
Cu2   O2    S    
C60   H25   S    
C19   C21   A    
C5    C11   A    
C3    C7    A    
C45   C46   A    
C6    C12   A    
C65   H29   S    
C67   C68   A    
C53   H19   S    
C72   C73   A    
C42   C57   S    
C16   N2    A    
C23   O7    A    
C78   H40   S    
C17   C19   A    
C57   C62   A    
C28   H4    S    
C76   H38   S    
C35   C36   T    
C8    C9    A    
C39   C69   S    
C49   H16   S    
C31   C33   T    
C46   C47   A    
C14   C16   A    
C34   C36   S    
C70   H33   S    
C24   O6    A    
C74   H37   S    
Cu1   O1    S    
C40   C42   A    
C54   H20   S    
C62   H27   S    
C13   C81   S    
C60   C61   A    
C79   H41   S    
C1    O3    A    
C65   C66   A    
C2    O4    A    
C58   H23   S    
C52   C53   A    
C67   H31   S    
C40   C75   S    
C72   H35   S    
C27   H3    S    
C81   O9    D    
C55   C56   A    
C4    C6    A    
C57   C58   A    
C61   H26   S    
C51   C52   A    
C4    C44   A    
C43   C51   S    
C21   C29   A    
C80   H42   S    
C23   C31   S    
C37   C43   A    
C73   H36   S    
C24   C32   S    
C38   C44   A    
C51   C56   A    
C2    C38   S    
C54   C55   A    
C56   H22   S    
Cu1   O8    S    
C13   C21   A    
C45   C50   A    
C59   C60   A    
C9    C11   A    
C17   H10   S    
C64   H28   S    
C10   C12   A    
C18   H9    S    
C17   N1    A    
C18   N2    A    
C20   C22   A    
C53   C54   A    
C50   H17   S    
C13   C15   A    
Cu1   O5    S    
C76   C77   A    
C15   H12   S    
C6    C40   A    
C55   H21   S    
C78   C79   A    
C63   C68   A    
C46   H13   S    
C69   C70   A    
C66   C67   A    
C81   O10   S    
C22   C30   A    
C15   N1    A    
C52   H18   S    
C48   C49   A    
C3    C5    A    
C1    O1    A    
C82   O11   D    
Cu2   O6    S    
C1    C37   S    
O10   H43   S    
Cu1   O4    S    
Cu2   O3    S    
C23   O5    A    
C5    C39   A    
C25   C26   A    
C47   C48   A    
O12   H44   S    
C82   O12   S    
C14   C22   A    
C47   H14   S    
C20   C26   A    
C77   H39   S    
C28   C30   A    
C58   C59   A    
C33   C35   S    
C12   H2    S    
C75   C80   A    
C18   C20   A    
C16   H11   S    
C37   C41   A    
C63   C64   A    
C19   C25   A    
C24   O8    A    
C69   C74   A    
C38   C42   A    
C2    O2    A    
Cu2   O7    S    
C14   C82   S    
C71   H34   S    
C64   C65   A    
C44   C45   S    
C68   H32   S    
C73   C74   A    
C59   H24   S    
C71   C72   A    
C32   C34   T    
C75   C76   A    
