data_mof_unit_60886.cif
_audit_creation_date              2012-12-10T19:42:48-0500
_audit_creation_method            fapswitch 2.2
_symmetry_space_group_name_H-M    P1
_symmetry_Int_Tables_number       1
_space_group_crystal_system       triclinic
_cell_length_a                    30.480859
_cell_length_b                    30.737408
_cell_length_c                    22.241556
_cell_angle_alpha                 89.945015
_cell_angle_beta                  46.182378
_cell_angle_gamma                 90.04755
_cell_volume                      15035.6876622

loop_
_atom_site_label
_atom_site_type_symbol
_atom_type_description
_atom_site_fract_x
_atom_site_fract_y
_atom_site_fract_z
_atom_type_partial_charge
C1    C     C_R   0.190266 0.190176 0.499342 0.892712
C2    C     C_R   0.843279 0.156709 0.500260 -0.122333
C3    C     C_R   0.940116 0.939375 0.500511 0.886405
C4    C     C_R   0.060743 0.060019 0.499562 0.885120
C5    C     C_R   0.939860 0.060075 0.500346 0.895293
C6    C     C_R   0.560409 0.560030 0.499637 0.889412
C7    C     C_R   0.439787 0.560017 0.500361 0.894725
C8    C     C_R   0.169422 0.250096 0.661043 0.906975
C9    C     C_R   0.830590 0.250175 0.338957 0.902247
C10   C     C_R   0.669426 0.750100 0.661043 0.907953
C11   C     C_R   0.330590 0.750176 0.338958 0.902162
C12   C     C_R   0.502620 0.209045 0.956326 0.192546
C13   C     C_R   0.656563 0.657704 0.501232 -0.091109
C14   C     C_R   0.458655 0.208889 0.044708 0.199523
C15   C     C_R   0.000354 0.710148 0.956377 0.192931
C16   C     C_R   0.956359 0.709991 0.044763 0.198546
C17   C     C_R   0.541270 0.245667 0.913189 0.113039
C18   C     C_R   0.454501 0.245487 0.087037 0.115443
C19   C     C_R   0.041089 0.745752 0.913197 0.112967
C20   C     C_R   0.954314 0.745568 0.087046 0.115026
C21   C     C_R   0.536195 0.281218 0.956585 -0.237488
C22   C     C_R   0.493073 0.281150 0.042888 -0.239587
C23   C     C_R   0.038054 0.780307 0.956553 -0.237178
C24   C     C_R   0.343273 0.656694 0.500226 -0.122275
C25   C     C_R   0.994938 0.780236 0.042853 -0.239388
C26   C     C_1   0.586860 0.247778 0.824130 -0.042392
C27   C     C_1   0.410941 0.247556 0.176028 -0.038632
C28   C     C_1   0.086770 0.747818 0.824135 -0.042419
C29   C     C_1   0.910884 0.747597 0.176032 -0.037966
C30   C     C_1   0.374362 0.248989 0.250548 -0.196828
C31   C     C_1   0.624816 0.249145 0.749549 -0.190595
C32   C     C_1   0.874397 0.749035 0.250546 -0.194762
C33   C     C_1   0.124785 0.749161 0.749552 -0.190464
C34   C     C_3   0.417060 0.169880 0.092236 -0.922079
C35   C     C_R   0.117651 0.130542 0.569716 -0.212689
C36   C     C_3   0.507608 0.170296 0.909697 -0.907719
C37   C     C_3   0.912502 0.672063 0.092333 -0.922170
C38   C     C_3   0.003148 0.672483 0.909787 -0.907721
C39   C     C_3   0.501476 0.353787 0.418422 -0.893721
C40   C     C_3   0.495660 0.354837 0.590359 -0.891509
C41   C     C_3   0.001435 0.853764 0.418561 -0.893879
C42   C     C_3   0.995618 0.854868 0.590521 -0.891675
C43   C     C_3   0.210594 0.410639 0.630688 -0.860660
C44   C     C_3   0.790339 0.384943 0.320483 -0.873629
C45   C     C_3   0.710635 0.910691 0.630513 -0.860728
C46   C     C_R   0.838085 0.113011 0.486903 -0.199788
C47   C     C_3   0.290328 0.884832 0.320304 -0.873879
C48   C     C_3   0.183072 0.110534 0.280744 -0.866541
C49   C     C_3   0.960584 0.167761 0.559632 -0.891959
C50   C     C_3   0.680958 0.611319 0.287904 -0.855088
C51   C     C_3   0.460334 0.667458 0.560090 -0.886323
C52   C     C_3   0.245858 0.182012 0.284080 -0.844180
C53   C     C_3   0.901361 0.238476 0.548016 -0.811339
C54   C     C_3   0.745017 0.680689 0.294356 -0.848112
C55   C     C_3   0.401101 0.738325 0.548636 -0.811206
C56   C     C_3   0.140853 0.215665 0.399882 -0.884791
C57   C     C_R   0.626758 0.624872 0.562216 -0.211284
C58   C     C_3   0.962159 0.213373 0.398505 -0.906054
C59   C     C_3   0.645823 0.724041 0.384436 -0.886670
C60   C     C_3   0.462025 0.713334 0.399034 -0.906507
C61   C     C_3   0.070349 0.171407 0.916969 -0.911595
C62   C     C_3   0.929171 0.330537 0.083407 -0.917373
C63   C     C_3   0.570063 0.671309 0.916975 -0.911869
C64   C     C_3   0.429470 0.830646 0.083403 -0.917307
C65   C     C_R   0.338301 0.613031 0.486435 -0.199656
C66   C     C_R   0.086363 0.097664 0.569531 -0.203844
C67   C     C_R   0.869938 0.080832 0.487117 -0.220886
C68   C     C_R   0.594522 0.592506 0.562143 -0.207643
C69   C     C_R   0.811077 0.189938 0.498475 0.893677
C70   C     C_R   0.370110 0.580830 0.486684 -0.221309
C71   C     C_R   0.096712 0.090905 0.498087 -0.132088
C72   C     C_R   0.905796 0.092286 0.502352 -0.085465
C73   C     C_R   0.594050 0.592205 0.499267 -0.104259
C74   C     C_R   0.405668 0.592221 0.502436 -0.085546
C75   C     C_R   0.143715 0.113385 0.424806 0.060690
C76   C     C_R   0.904602 0.134317 0.526094 0.032246
C77   C     C_R   0.625897 0.624360 0.438614 0.028521
C78   C     C_R   0.404245 0.634199 0.526581 0.033820
C79   C     C_3   0.146128 0.135870 0.362654 -0.030656
C80   C     C_R   0.690118 0.690214 0.499696 0.891399
C81   C     C_3   0.956470 0.162858 0.495032 -0.076704
C82   C     C_3   0.641506 0.642136 0.362939 -0.040208
C83   C     C_3   0.456108 0.662691 0.495587 -0.079666
C84   C     C_3   0.178846 0.173684 0.364117 0.331449
C85   C     C_3   0.924737 0.199378 0.489312 0.365871
C86   C     C_3   0.675255 0.679238 0.365417 0.337375
C87   C     C_3   0.424477 0.699272 0.489848 0.365589
C88   C     C_R   0.990650 0.214544 0.045224 -0.250701
C89   C     C_R   0.009023 0.287458 0.954910 -0.250209
C90   C     C_R   0.490518 0.714500 0.045227 -0.250682
C91   C     C_R   0.311077 0.689937 0.498468 0.893702
C92   C     C_R   0.509169 0.787513 0.954909 -0.250114
C93   C     C_R   0.956082 0.252108 0.086989 0.111181
C94   C     C_R   0.043582 0.249862 0.913141 0.109782
C95   C     C_R   0.456089 0.752113 0.086989 0.111171
C96   C     C_R   0.543589 0.749869 0.913141 0.109841
C97   C     C_R   0.330680 0.249994 0.338965 0.895935
C98   C     C_R   0.669298 0.249888 0.661068 0.910691
C99   C     C_R   0.830755 0.750064 0.338964 0.893282
C100  C     C_R   0.169302 0.749883 0.661069 0.910772
C101  C     C_R   0.965019 0.289093 0.041952 0.215451
C102  C     C_R   0.172888 0.146871 0.426131 0.037013
C103  C     C_R   0.034614 0.212898 0.958242 0.213153
C104  C     C_R   0.465166 0.789148 0.041950 0.215459
C105  C     C_R   0.534482 0.712854 0.958245 0.213548
C106  C     C_1   0.911784 0.251545 0.176003 -0.041619
C107  C     C_1   0.087873 0.250210 0.824087 -0.043330
C108  C     C_1   0.411786 0.751547 0.176003 -0.041577
C109  C     C_1   0.587883 0.750218 0.824088 -0.042951
C110  C     C_1   0.125093 0.250294 0.749494 -0.189935
C111  C     C_1   0.874683 0.250882 0.250560 -0.190501
C112  C     C_1   0.625101 0.750301 0.749495 -0.189178
C113  C     C_R   0.875221 0.166667 0.522608 0.075960
C114  C     C_1   0.374683 0.750883 0.250560 -0.190473
C115  C     C_R   0.314422 0.378863 0.549921 0.124458
C116  C     C_R   0.681774 0.380373 0.458698 0.120406
C117  C     C_R   0.814427 0.878882 0.549872 0.124443
C118  C     C_R   0.181795 0.880347 0.458606 0.120310
C119  C     C_R   0.343635 0.341770 0.501459 -0.179326
C120  C     C_R   0.655361 0.341784 0.501793 -0.157043
C121  C     C_R   0.843629 0.841770 0.501472 -0.179357
C122  C     C_R   0.155361 0.841783 0.501793 -0.156762
C123  C     C_R   0.403546 0.333043 0.462683 -0.215908
C124  C     C_R   0.654204 0.656753 0.441379 0.061541
C125  C     C_R   0.594133 0.333975 0.544811 -0.220947
C126  C     C_R   0.903523 0.833031 0.462757 -0.215958
C127  C     C_R   0.094114 0.833993 0.544896 -0.220684
C128  C     C_R   0.436776 0.364302 0.462731 0.168448
C129  C     C_R   0.560720 0.365329 0.544520 0.170740
C130  C     C_R   0.936753 0.864293 0.462801 0.168449
C131  C     C_R   0.060699 0.865344 0.544602 0.170673
C132  C     C_R   0.408347 0.404374 0.502907 -0.096491
C133  C     C_R   0.590189 0.404666 0.499672 -0.093972
C134  C     C_R   0.908342 0.904380 0.502907 -0.096435
C135  C     C_R   0.374947 0.666604 0.523003 0.075762
C136  C     C_R   0.090186 0.904659 0.499668 -0.094320
C137  C     C_R   0.346483 0.409710 0.550855 0.047722
C138  C     C_R   0.650770 0.410181 0.456744 0.025815
C139  C     C_R   0.846490 0.909733 0.550799 0.047715
C140  C     C_R   0.150789 0.910151 0.456647 0.026217
C141  C     C_3   0.313828 0.446617 0.552385 -0.512167
C142  C     C_3   0.703041 0.441023 0.403312 -0.484855
C143  C     C_3   0.813884 0.946637 0.552224 -0.512400
C144  C     C_3   0.203091 0.940960 0.403089 -0.483243
C145  C     C_R   0.310706 0.309890 0.499172 0.899205
C146  C     C_R   0.157606 0.157266 0.499553 -0.082253
C147  C     C_R   0.689644 0.309809 0.500367 0.902329
C148  C     C_R   0.810705 0.809890 0.499175 0.899170
C149  C     C_R   0.189646 0.809808 0.500365 0.902349
C150  C     C_3   0.278346 0.412402 0.550958 -0.001023
C151  C     C_3   0.739067 0.406441 0.404814 -0.008834
C152  C     C_3   0.778398 0.912419 0.550813 -0.000884
C153  C     C_3   0.239117 0.906384 0.404600 -0.009378
C154  C     C_R   0.559293 0.439118 0.499796 0.889936
C155  C     C_R   0.440118 0.439373 0.500511 0.886336
C156  C     C_R   0.059289 0.939113 0.499795 0.891712
H1    H     H_    0.344322 0.466583 0.494583 0.169050
H2    H     H_    0.463693 0.165107 0.927832 0.243568
H3    H     H_    0.973942 0.184861 0.358931 0.224680
H4    H     H_    0.936651 0.236978 0.394718 0.264261
H5    H     H_    0.005013 0.229177 0.372816 0.237938
H6    H     H_    0.596182 0.722760 0.440591 0.219016
H7    H     H_    0.666627 0.748333 0.395366 0.265984
H8    H     H_    0.652850 0.735048 0.330707 0.237639
H9    H     H_    0.473802 0.684867 0.359379 0.224705
H10   H     H_    0.436619 0.737022 0.395193 0.264402
H11   H     H_    0.504887 0.729062 0.373474 0.238096
H12   H     H_    0.104121 0.173037 0.848002 0.250421
H13   H     H_    0.881204 0.675046 0.160783 0.247971
H14   H     H_    0.095127 0.164181 0.935796 0.241375
H15   H     H_    0.038696 0.144119 0.937255 0.239874
H16   H     H_    0.895432 0.328826 0.152375 0.249867
H17   H     H_    0.960743 0.357867 0.063219 0.241673
H18   H     H_    0.904326 0.337759 0.064684 0.241476
H19   H     H_    0.603848 0.672944 0.848007 0.250241
H20   H     H_    0.594805 0.663955 0.935814 0.241199
H21   H     H_    0.538310 0.644100 0.937251 0.240010
H22   H     H_    0.395719 0.828929 0.152371 0.249889
H23   H     H_    0.461142 0.857898 0.063223 0.241628
H24   H     H_    0.884120 0.669525 0.078150 0.243419
H25   H     H_    0.404660 0.837994 0.064669 0.241550
H26   H     H_    0.938214 0.641372 0.074243 0.246409
H27   H     H_    0.038807 0.676295 0.841167 0.248262
H28   H     H_    0.012892 0.641841 0.925115 0.243616
H29   H     H_    0.959039 0.669306 0.927791 0.243371
H30   H     H_    0.983309 0.186311 0.080625 0.159986
H31   H     H_    0.016366 0.315682 0.919499 0.160990
H32   H     H_    0.483070 0.686228 0.080629 0.159958
H33   H     H_    0.694620 0.471352 0.437157 0.178006
H34   H     H_    0.516620 0.815776 0.919495 0.160997
H35   H     H_    0.425237 0.302721 0.429559 0.172704
H36   H     H_    0.572351 0.303757 0.578683 0.171169
H37   H     H_    0.925205 0.802697 0.429681 0.172714
H38   H     H_    0.072319 0.803792 0.578833 0.171065
H39   H     H_    0.522418 0.378599 0.428114 0.248631
H40   H     H_    0.502606 0.322382 0.442041 0.237123
H41   H     H_    0.529497 0.350743 0.350544 0.245671
H42   H     H_    0.474885 0.378981 0.579388 0.250117
H43   H     H_    0.493646 0.322810 0.569286 0.236095
H44   H     H_    0.844414 0.966574 0.494387 0.169118
H45   H     H_    0.468036 0.353090 0.658276 0.246491
H46   H     H_    0.022381 0.878591 0.428221 0.248505
H47   H     H_    0.002526 0.822378 0.442264 0.237159
H48   H     H_    0.029477 0.850676 0.350682 0.245661
H49   H     H_    0.974846 0.878992 0.579513 0.250031
H50   H     H_    0.993558 0.822820 0.569552 0.236073
H51   H     H_    0.968019 0.853175 0.658435 0.246581
H52   H     H_    0.286345 0.465560 0.611205 0.219111
H53   H     H_    0.718470 0.446028 0.341548 0.219302
H54   H     H_    0.786394 0.965610 0.611013 0.219038
H55   H     H_    0.194733 0.971313 0.436840 0.179470
H56   H     H_    0.218474 0.945922 0.341345 0.219158
H57   H     H_    0.189665 0.381447 0.629628 0.255255
H58   H     H_    0.203292 0.409104 0.687040 0.247045
H59   H     H_    0.187715 0.440063 0.634416 0.240294
H60   H     H_    0.808025 0.356521 0.329044 0.248884
H61   H     H_    0.774197 0.373701 0.291052 0.249455
H62   H     H_    0.827961 0.408602 0.278234 0.245931
H63   H     H_    0.689695 0.881498 0.629477 0.255248
H64   H     H_    0.703302 0.909183 0.686892 0.247003
H65   H     H_    0.687790 0.940116 0.634168 0.240300
H66   H     H_    0.385768 0.172957 0.160671 0.245713
H67   H     H_    0.308010 0.856418 0.328891 0.248881
H68   H     H_    0.274127 0.873567 0.290961 0.249481
H69   H     H_    0.327969 0.908465 0.277967 0.246079
H70   H     H_    0.287841 0.412851 0.492810 0.174494
H71   H     H_    0.752386 0.417051 0.438119 0.170834
H72   H     H_    0.787923 0.912840 0.492640 0.174514
H73   H     H_    0.252496 0.917019 0.437821 0.171368
H74   H     H_    0.565815 0.309222 0.923418 0.161772
H75   H     H_    0.489801 0.309122 0.075465 0.160482
H76   H     H_    0.069271 0.807531 0.923356 0.161881
H77   H     H_    0.388711 0.165421 0.078311 0.244741
H78   H     H_    0.993275 0.807428 0.075396 0.160394
H79   H     H_    0.108800 0.136346 0.625365 0.146049
H80   H     H_    0.811559 0.103899 0.473017 0.170938
H81   H     H_    0.627765 0.624637 0.609970 0.153026
H82   H     H_    0.311992 0.603975 0.472175 0.170878
H83   H     H_    0.052971 0.078674 0.625658 0.170130
H84   H     H_    0.867983 0.047506 0.473282 0.137678
H85   H     H_    0.570780 0.567685 0.610166 0.162489
H86   H     H_    0.368355 0.547541 0.472486 0.137757
H87   H     H_    0.154541 0.084401 0.288098 0.256182
H88   H     H_    0.444550 0.140164 0.073888 0.246102
H89   H     H_    0.196936 0.132663 0.230567 0.240055
H90   H     H_    0.224079 0.095273 0.261879 0.246236
H91   H     H_    0.981511 0.138094 0.559210 0.241391
H92   H     H_    0.989788 0.196016 0.543304 0.245676
H93   H     H_    0.915121 0.172040 0.623646 0.257667
H94   H     H_    0.651587 0.587209 0.292659 0.255246
H95   H     H_    0.705457 0.630092 0.229529 0.238181
H96   H     H_    0.714330 0.593488 0.284453 0.248904
H97   H     H_    0.480147 0.637387 0.560652 0.243022
H98   H     H_    0.490590 0.695131 0.542885 0.243496
H99   H     H_    0.542959 0.174216 0.841085 0.248185
H100  H     H_    0.415034 0.672494 0.623949 0.257279
H101  H     H_    0.099896 0.144196 0.389811 0.152221
H102  H     H_    0.000217 0.151765 0.433612 0.153763
H103  H     H_    0.600420 0.653228 0.377268 0.151747
H104  H     H_    0.499708 0.651495 0.434190 0.151812
H105  H     H_    0.265357 0.207038 0.295957 0.231811
H106  H     H_    0.273701 0.152139 0.262604 0.227234
H107  H     H_    0.249395 0.194027 0.233762 0.245977
H108  H     H_    0.877243 0.261710 0.541108 0.246206
H109  H     H_    0.868978 0.228150 0.614325 0.222589
H110  H     H_    0.519208 0.140694 0.924855 0.243519
H111  H     H_    0.940163 0.255884 0.532270 0.232102
H112  H     H_    0.763419 0.705589 0.308059 0.231845
H113  H     H_    0.765768 0.648991 0.286901 0.227270
H114  H     H_    0.758771 0.689499 0.234829 0.244981
H115  H     H_    0.377308 0.761719 0.541399 0.246112
H116  H     H_    0.368412 0.727994 0.614959 0.222238
H117  H     H_    0.439873 0.755540 0.533274 0.232034
H118  H     H_    0.095948 0.210364 0.464144 0.226521
H119  H     H_    0.164875 0.242193 0.401163 0.268503
H120  H     H_    0.133282 0.226445 0.359986 0.233227
O1    O     O_R   0.178350 0.230070 0.500010 -0.627509
O2    O     O_R   0.919740 0.045800 0.568860 -0.613951
O3    O     O_R   0.580260 0.545800 0.431140 -0.623080
O4    O     O_R   0.419740 0.545800 0.568860 -0.614113
O5    O     O_R   0.011410 0.045760 0.568860 -0.627847
O6    O     O_R   0.988590 0.045760 0.431140 -0.630775
O7    O     O_R   0.511410 0.545760 0.568860 -0.628139
O8    O     O_R   0.488590 0.545760 0.431140 -0.630898
O9    O     O_R   0.230030 0.178320 0.500020 -0.619977
O10   O     O_R   0.769970 0.178320 0.499980 -0.627712
O11   O     O_R   0.730030 0.678320 0.500020 -0.622599
O12   O     O_R   0.821650 0.230070 0.499990 -0.630607
O13   O     O_R   0.269970 0.678320 0.499980 -0.627714
O14   O     O_R   0.285150 0.275890 0.378020 -0.621036
O15   O     O_R   0.714850 0.275890 0.621980 -0.616722
O16   O     O_R   0.785150 0.775890 0.378020 -0.620882
O17   O     O_R   0.214850 0.775890 0.621980 -0.616633
O18   O     O_R   0.336840 0.224130 0.378040 -0.614160
O19   O     O_R   0.663160 0.224130 0.621960 -0.617799
O20   O     O_R   0.836840 0.724130 0.378040 -0.613719
O21   O     O_R   0.163160 0.724130 0.621960 -0.617908
O22   O     O_R   0.269970 0.321680 0.499990 -0.628843
O23   O     O_R   0.678350 0.730070 0.500010 -0.625665
O24   O     O_R   0.730030 0.321680 0.500010 -0.626706
O25   O     O_R   0.769970 0.821680 0.499990 -0.628899
O26   O     O_R   0.230030 0.821680 0.500010 -0.626517
O27   O     O_R   0.321650 0.269930 0.500010 -0.622417
O28   O     O_R   0.678350 0.269930 0.499990 -0.623986
O29   O     O_R   0.821650 0.769930 0.500010 -0.622350
O30   O     O_R   0.178350 0.769930 0.499990 -0.624056
O31   O     O_R   0.163160 0.275870 0.621980 -0.619403
O32   O     O_R   0.836840 0.275870 0.378020 -0.624679
O33   O     O_R   0.663160 0.775870 0.621980 -0.619183
O34   O     O_R   0.321650 0.730070 0.499990 -0.630461
O35   O     O_R   0.336840 0.775870 0.378020 -0.624644
O36   O     O_R   0.214850 0.224110 0.621990 -0.615459
O37   O     O_R   0.785150 0.224110 0.378010 -0.612515
O38   O     O_R   0.714850 0.724110 0.621990 -0.616245
O39   O     O_R   0.285150 0.724110 0.378010 -0.612553
O40   O     O_R   0.580260 0.454160 0.431100 -0.626754
O41   O     O_R   0.419740 0.454160 0.568900 -0.624692
O42   O     O_R   0.080260 0.954160 0.431100 -0.626669
O43   O     O_R   0.919740 0.954160 0.568900 -0.624767
O44   O     O_R   0.511410 0.454120 0.568820 -0.619459
O45   O     O_R   0.488590 0.454120 0.431180 -0.619338
O46   O     O_R   0.011410 0.954120 0.568820 -0.618596
O47   O     O_R   0.988590 0.954120 0.431180 -0.619307
O48   O     O_R   0.080260 0.045800 0.431140 -0.622670
Zn1   Zn    Zn3+2 0.215490 0.284560 0.500000 0.939275
Zn2   Zn    Zn3+2 0.954010 0.000000 0.591950 0.956473
Zn3   Zn    Zn3+2 0.545990 0.500000 0.408050 0.938193
Zn4   Zn    Zn3+2 0.454010 0.500000 0.591950 0.957195
Zn5   Zn    Zn3+2 0.784510 0.284560 0.500000 0.935649
Zn6   Zn    Zn3+2 0.715490 0.784560 0.500000 0.940079
Zn7   Zn    Zn3+2 0.284510 0.784560 0.500000 0.936076
Zn8   Zn    Zn3+2 0.284510 0.215440 0.500020 0.960337
Zn9   Zn    Zn3+2 0.715490 0.215440 0.499980 0.955090
Zn10  Zn    Zn3+2 0.784510 0.715440 0.500020 0.958126
Zn11  Zn    Zn3+2 0.215490 0.715440 0.499980 0.955028
Zn12  Zn    Zn3+2 0.045990 1.000000 0.408050 0.938815

loop_
_geom_bond_atom_site_label_1
_geom_bond_atom_site_label_2
_ccdc_geom_bond_type
C151  H71   S    
O36   Zn8   S    
O33   Zn6   S    
C136  C140  A    
C90   C95   A    
C52   H105  S    
C30   C97   S    
C53   H108  S    
O19   Zn9   S    
C67   H84   S    
C132  C155  S    
C11   O35   A    
C118  C153  S    
C89   C94   A    
C52   C84   S    
C48   H90   S    
C59   H8    S    
C70   C74   A    
C3    O43   A    
C63   C105  S    
C62   C101  S    
C69   O10   A    
C21   C22   A    
C130  C134  A    
C48   H87   S    
C118  C140  A    
C51   H100  S    
C36   H99   S    
C97   O18   A    
C122  C149  S    
C44   H62   S    
C99   O20   A    
C93   C101  A    
O12   Zn5   S    
C13   C124  A    
C120  C125  A    
O13   Zn11  S    
O18   Zn8   S    
C47   C153  S    
O40   Zn3   S    
C132  C137  A    
O45   Zn3   S    
C142  H33   S    
C39   H39   S    
C17   C21   A    
C133  C154  S    
C46   H80   S    
C142  C151  S    
C19   C23   A    
C1    O1    A    
O37   Zn9   S    
O43   Zn2   S    
C16   C20   A    
C83   H104  S    
O16   Zn6   S    
C24   C65   A    
C129  C133  A    
O41   Zn4   S    
C141  H1    S    
C28   C33   T    
C131  C136  A    
C56   H118  S    
C107  C110  T    
C109  C112  T    
C55   H115  S    
C51   C83   S    
C50   H96   S    
C6    C73   S    
C37   H24   S    
C47   H67   S    
C91   O13   A    
C89   C101  A    
C44   H60   S    
O47   Zn12  S    
C90   C105  A    
O21   Zn11  S    
C148  O29   A    
C40   H43   S    
C119  C123  A    
C96   C109  S    
C60   H9    S    
C61   H12   S    
C141  H52   S    
C59   H6    S    
C126  H37   S    
C77   C82   S    
C53   H109  S    
C21   H74   S    
O44   Zn4   S    
O24   Zn5   S    
C127  C131  A    
C49   H92   S    
C95   C108  S    
C92   C104  A    
C125  C129  A    
C69   O12   A    
C77   C124  A    
C73   C77   A    
C53   C85   S    
O5    Zn2   S    
C41   H46   S    
C51   H98   S    
C75   C79   S    
C4    C71   S    
C57   H81   S    
O7    Zn4   S    
O48   Zn12  S    
C40   C129  S    
C84   C102  S    
C98   O19   A    
C54   H113  S    
O39   Zn11  S    
C8    O31   A    
O27   Zn8   S    
C5    C72   S    
C58   H3    S    
C37   H13   S    
C79   C84   S    
C13   C57   A    
C108  C114  T    
C65   C70   A    
C92   C96   A    
C38   H28   S    
O29   Zn10  S    
C42   H49   S    
C67   C72   A    
C118  C122  A    
C31   C98   S    
C122  C127  A    
C139  C143  S    
C3    O47   A    
C115  C137  A    
C156  O42   A    
C56   H120  S    
C42   C131  S    
C61   H15   S    
C2    C69   S    
C50   H94   S    
O23   Zn6   S    
O17   Zn7   S    
C153  H73   S    
C141  C150  S    
C9    O37   A    
C106  C111  T    
C94   C107  S    
C60   H11   S    
C5    O6    A    
C79   H101  S    
O32   Zn5   S    
C134  C139  A    
C54   C86   S    
C64   H23   S    
O38   Zn10  S    
C53   H111  S    
C62   H17   S    
O22   Zn1   S    
C116  C120  A    
C8    C110  S    
C93   C106  S    
C68   H85   S    
C8    O36   A    
C76   C113  A    
C41   H48   S    
C19   C28   S    
C43   C150  S    
C25   H78   S    
C115  C119  A    
C86   C124  S    
C65   H82   S    
C35   H79   S    
C57   C68   A    
C99   O16   A    
C64   C104  S    
O15   Zn5   S    
C39   C128  S    
C18   C22   A    
C5    O2    A    
C14   C34   S    
C155  O45   A    
C52   H106  S    
C3    C134  S    
C45   H65   S    
C85   C113  S    
C100  O21   A    
O35   Zn7   S    
O46   Zn2   S    
C9    O32   A    
C40   H42   S    
C54   H114  S    
C144  H55   S    
C55   C87   S    
C59   H7    S    
C7    O8    A    
C45   H64   S    
C142  H53   S    
C34   H77   S    
C116  C151  S    
C81   C85   S    
C145  O27   A    
C83   C87   S    
C96   C105  A    
C58   C85   S    
C150  H70   S    
C6    O7    A    
O30   Zn11  S    
C1    O9    A    
C63   H20   S    
C117  C139  A    
C15   C19   A    
C143  H44   S    
C81   H102  S    
C48   C79   S    
O42   Zn12  S    
C61   C103  S    
C29   C32   T    
C41   C130  S    
C20   C25   A    
C126  C130  A    
C49   C81   S    
C80   O23   A    
C154  O40   A    
C78   C83   S    
C22   H75   S    
C12   C17   A    
C10   C112  S    
C7    C74   S    
C78   C135  A    
C16   C37   S    
C49   H93   S    
C61   H14   S    
C39   H41   S    
C13   C80   S    
C133  C138  A    
C89   H31   S    
C6    O3    A    
O26   Zn7   S    
C92   H34   S    
C56   C84   S    
C143  H54   S    
C34   H88   S    
C87   C135  S    
C138  C142  S    
C145  O22   A    
C155  O41   A    
C82   C86   S    
C54   H112  S    
O1    Zn1   S    
C35   C146  A    
O28   Zn9   S    
C48   H89   S    
C64   H22   S    
C66   C71   A    
C47   H69   S    
C121  C148  S    
O14   Zn1   S    
C49   H91   S    
C143  C152  S    
C10   O38   A    
C94   C103  A    
O8    Zn3   S    
C123  H35   S    
C7    O4    A    
C51   H97   S    
C144  H56   S    
C50   C82   S    
C91   O34   A    
C137  C141  S    
C147  O28   A    
C82   H103  S    
C44   H61   S    
C140  C144  S    
C119  C145  S    
C39   H40   S    
C35   C66   A    
C45   C152  S    
C58   H4    S    
C37   H26   S    
C42   H50   S    
C125  H36   S    
O6    Zn12  S    
O34   Zn7   S    
C46   C67   A    
C40   H45   S    
C120  C147  S    
C149  O26   A    
C74   C78   A    
C55   H116  S    
O31   Zn1   S    
C58   H5    S    
O2    Zn2   S    
C70   H86   S    
C50   H95   S    
C9    C111  S    
C47   H68   S    
C52   H107  S    
C66   H83   S    
C14   C18   A    
C72   C76   A    
C43   H59   S    
O9    Zn8   S    
C2    C46   A    
C17   C26   S    
C136  C156  S    
C2    C113  A    
C15   C16   A    
C62   H18   S    
C97   O14   A    
C144  C153  S    
C11   C114  S    
C117  C121  A    
C152  H72   S    
O10   Zn9   S    
C75   C102  A    
C12   C36   S    
C23   H76   S    
C36   H2    S    
C88   H30   S    
C26   C31   T    
C27   C30   T    
C1    C146  S    
C128  C132  A    
C60   C87   S    
C116  C138  A    
C20   C29   S    
C55   H117  S    
C44   C151  S    
O3    Zn3   S    
C42   H51   S    
C127  H38   S    
C154  O44   A    
C68   C73   A    
C38   H27   S    
O25   Zn6   S    
C15   C38   S    
C148  O25   A    
C56   H119  S    
C4    O5    A    
C64   H25   S    
C24   C135  A    
C12   C14   A    
C45   H63   S    
O20   Zn10  S    
C41   H47   S    
C43   H57   S    
C24   C91   S    
C88   C103  A    
C95   C104  A    
O4    Zn4   S    
O11   Zn10  S    
C10   O33   A    
C88   C93   A    
C149  O30   A    
C80   O11   A    
C36   H110  S    
C18   C27   S    
C100  O17   A    
C76   C81   S    
C156  O46   A    
C63   H19   S    
C38   H29   S    
C62   H16   S    
C63   H21   S    
C32   C99   S    
C33   C100  S    
C98   O15   A    
C59   C86   S    
C121  C126  A    
C102  C146  A    
C71   C75   A    
C43   H58   S    
C123  C128  A    
C90   H32   S    
C11   O39   A    
C115  C150  S    
C117  C152  S    
C23   C25   A    
C147  O24   A    
C60   H10   S    
C4    O48   A    
C34   H66   S    
