data_mof_unit_25748.cif
_audit_creation_date              2012-12-10T17:47:05-0500
_audit_creation_method            fapswitch 2.2
_symmetry_space_group_name_H-M    P1
_symmetry_Int_Tables_number       1
_space_group_crystal_system       triclinic
_cell_length_a                    10.099978
_cell_length_b                    10.622593
_cell_length_c                    13.447014
_cell_angle_alpha                 93.318295
_cell_angle_beta                  80.09392
_cell_angle_gamma                 89.263948
_cell_volume                      1418.42921721

loop_
_atom_site_label
_atom_site_type_symbol
_atom_type_description
_atom_site_fract_x
_atom_site_fract_y
_atom_site_fract_z
_atom_type_partial_charge
C1    C     C_R   0.501141 0.738084 0.486361 0.943758
C2    C     C_R   0.621826 0.933633 0.455856 0.165795
C3    C     C_R   0.624939 0.056861 0.496472 0.110103
C4    C     C_R   0.473088 0.498805 0.686197 0.898174
C5    C     C_R   0.501838 0.125665 0.524978 -0.206643
C6    C     C_R   0.834055 0.602482 0.674350 0.184378
C7    C     C_R   0.875507 0.595374 0.768774 0.146311
C8    C     C_R   0.001006 0.539509 0.772716 0.078261
C9    C     C_R   0.084135 0.497909 0.682613 -0.204438
C10   C     C_R   0.049446 0.517256 0.588533 0.043708
C11   C     C_R   0.910283 0.539107 0.586297 0.039951
C12   C     C_1   0.450364 0.487001 0.791607 -0.166675
C13   C     C_R   0.949137 0.474314 0.413041 0.119009
C14   C     C_R   0.090129 0.459616 0.415728 0.203963
C15   C     C_R   0.499412 0.260844 0.510679 0.861138
C16   C     C_R   0.526968 0.495491 0.313753 0.905513
C17   C     C_1   0.549230 0.468561 0.208304 -0.158411
C18   C     C_2   0.544959 0.418279 0.017023 0.154665
C19   C     C_2   0.437156 0.465794 0.985251 0.128904
C20   C     C_1   0.439234 0.475617 0.880273 0.049902
C21   C     C_1   0.555230 0.442335 0.120262 0.044048
C22   C     C_3   0.060943 0.549204 0.867964 -0.353272
C23   C     C_R   0.248958 0.896098 0.477016 0.237819
C24   C     C_3   0.122109 0.679630 0.878388 -0.714241
C25   C     C_3   0.171573 0.374587 0.329592 -0.333545
C26   C     C_3   0.212422 0.246563 0.362551 -0.758558
C27   C     C_3   0.754337 0.102003 0.529142 -0.315165
C28   C     C_3   0.858614 0.144883 0.442164 -0.796507
C29   C     C_3   0.908650 0.484943 0.309918 -0.305346
C30   C     C_3   0.853668 0.363208 0.265796 -0.805964
C31   C     C_R   0.130920 0.952002 0.532284 -0.179944
C32   C     C_R   0.137066 0.059323 0.595665 -0.202004
C33   C     C_R   0.260035 0.117318 0.596242 -0.135534
C34   C     C_R   0.379280 0.062540 0.538707 0.048941
C35   C     C_R   0.375848 0.941529 0.492941 0.011175
C36   C     C_R   0.498896 0.871800 0.466813 -0.208391
H1    H     H_    0.166850 0.436897 0.687847 0.186747
H2    H     H_    0.322854 0.231517 0.341903 0.264682
H3    H     H_    0.178007 0.238566 0.444570 0.268457
H4    H     H_    0.165409 0.168715 0.323096 0.236420
H5    H     H_    0.115222 0.349472 0.269411 0.190138
H6    H     H_    0.251370 0.421468 0.281418 0.245785
H7    H     H_    0.823399 0.132068 0.368667 0.273869
H8    H     H_    0.881140 0.244842 0.456896 0.259386
H9    H     H_    0.953932 0.089986 0.436191 0.253472
H10   H     H_    0.733378 0.177852 0.590586 0.217810
H11   H     H_    0.799469 0.024397 0.564827 0.218483
H12   H     H_    0.034170 0.914986 0.523099 0.186011
H13   H     H_    0.772020 0.324407 0.319901 0.284544
H14   H     H_    0.814844 0.384250 0.196134 0.262741
H15   H     H_    0.929817 0.286557 0.244195 0.236553
H16   H     H_    0.840218 0.566987 0.312823 0.259467
H17   H     H_    0.994776 0.515227 0.254140 0.204652
H18   H     H_    0.045658 0.102549 0.638643 0.172195
H19   H     H_    0.261777 0.204709 0.641595 0.146236
H20   H     H_    0.217945 0.684148 0.824051 0.252821
H21   H     H_    0.052817 0.755470 0.863263 0.270556
H22   H     H_    0.141769 0.699557 0.956010 0.279432
H23   H     H_    0.984158 0.533079 0.935317 0.249806
H24   H     H_    0.140758 0.475511 0.865559 0.207652
I1    I     I_    0.270490 0.551353 0.085434 -0.413059
I2    I     I_    0.741960 0.780207 0.663085 -0.321090
I3    I     I_    0.753648 0.678753 0.904644 -0.292875
I4    I     I_    0.704863 0.316213 0.920926 -0.367741
I5    I     I_    0.800945 0.845348 0.368698 -0.356685
I6    I     I_    0.225878 0.777359 0.348522 -0.296139
N1    N     N_R   0.857120 0.501200 0.500900 -0.123178
N2    N     N_R   0.142720 0.501280 0.500940 -0.103340
O1    O     O_R   0.385310 0.683220 0.500000 -0.590269
O2    O     O_R   0.614640 0.683250 0.500010 -0.560717
O3    O     O_R   0.368830 0.499960 0.640340 -0.638595
O4    O     O_R   0.598160 0.499980 0.640350 -0.583750
O5    O     O_R   0.385360 0.316750 0.499990 -0.624447
O6    O     O_R   0.614690 0.316780 0.500000 -0.608365
O7    O     O_R   0.401840 0.500020 0.359650 -0.590363
O8    O     O_R   0.631170 0.500040 0.359660 -0.619240
Zn1   Zn    Zn3+2 0.346870 0.499980 0.499990 0.960953
Zn2   Zn    Zn3+2 0.653130 0.500020 0.500010 0.970105

loop_
_geom_bond_atom_site_label_1
_geom_bond_atom_site_label_2
_ccdc_geom_bond_type
C33   H19   S    
C30   H15   S    
O2    Zn2   S    
C16   O7    A    
O1    Zn1   S    
C19   C20   S    
C4    O4    A    
C2    I5    S    
C26   H4    S    
C7    C8    A    
C23   I6    S    
C13   C29   S    
O8    Zn2   S    
C18   C19   D    
C22   H24   S    
C26   H3    S    
C2    C36   A    
C18   C21   S    
C34   C35   A    
O4    Zn2   S    
C35   C36   A    
C8    C9    A    
C8    C22   S    
C4    C12   S    
C9    C10   A    
C30   H14   S    
C22   H23   S    
C13   C14   A    
N1    Zn2   S    
C32   H18   S    
C11   N1    A    
C28   H9    S    
C25   H5    S    
C6    C11   A    
C26   H2    S    
C25   C26   S    
C28   H8    S    
C1    O1    A    
C23   C31   A    
C29   C30   S    
C31   C32   A    
C5    C34   A    
C12   C20   T    
C9    H1    S    
C33   C34   A    
O7    Zn1   S    
C7    I3    S    
C27   H10   S    
C15   O5    A    
C30   H13   S    
C23   C35   A    
C31   H12   S    
C22   C24   S    
O3    Zn1   S    
C13   N1    A    
C27   H11   S    
N2    Zn1   S    
C14   N2    A    
C16   O8    A    
C24   H21   S    
C3    C5    A    
C25   H6    S    
C6    C7    A    
C10   N2    A    
C24   H20   S    
C28   H7    S    
C1    O2    A    
C32   C33   A    
C6    I2    S    
C3    C27   S    
C2    C3    A    
C18   I4    S    
C16   C17   S    
C29   H17   S    
C19   I1    S    
C14   C25   S    
C17   C21   T    
C5    C15   S    
C10   C11   A    
C15   O6    A    
C24   H22   S    
O6    Zn2   S    
C27   C28   S    
O5    Zn1   S    
C4    O3    A    
C1    C36   S    
C29   H16   S    
