data_mof_unit_45404.cif
_audit_creation_date              2012-12-10T17:28:36-0500
_audit_creation_method            fapswitch 2.2
_symmetry_space_group_name_H-M    P1
_symmetry_Int_Tables_number       1
_space_group_crystal_system       triclinic
_cell_length_a                    10.307035
_cell_length_b                    11.955599
_cell_length_c                    12.928673
_cell_angle_alpha                 92.876693
_cell_angle_beta                  90.082547
_cell_angle_gamma                 86.547597
_cell_volume                      1588.26142841

loop_
_atom_site_label
_atom_site_type_symbol
_atom_type_description
_atom_site_fract_x
_atom_site_fract_y
_atom_site_fract_z
_atom_type_partial_charge
C1    C     C_R   0.498488 0.521745 0.700480 0.832767
C2    C     C_R   0.496295 0.561740 0.132279 -0.274451
C3    C     C_R   0.505465 0.445792 0.974397 0.117625
C4    C     C_R   0.497017 0.554192 0.025404 0.118991
C5    C     C_R   0.432631 0.949614 0.374620 -0.339048
C6    C     C_R   0.561600 0.050768 0.626814 -0.353269
C7    C     C_R   0.433374 0.834419 0.389982 0.034892
C8    C     C_R   0.562551 0.165696 0.611127 0.004548
C9    C     C_R   0.516795 0.861745 0.559763 -0.086472
C10   C     C_R   0.480037 0.138735 0.441014 -0.038044
C11   C     C_R   0.518785 0.978057 0.547557 0.109436
C12   C     C_R   0.501844 0.478252 0.299537 0.946542
C13   C     C_R   0.477081 0.022361 0.453358 0.094879
C14   C     C_R   0.735656 0.504205 0.526445 0.902390
C15   C     C_R   0.264715 0.503692 0.527252 0.905419
C16   C     C_R   0.876825 0.327641 0.649816 -0.153643
C17   C     C_R   0.121709 0.719638 0.600264 -0.152802
C18   C     C_R   0.950037 0.237668 0.690376 0.262611
C19   C     C_R   0.048718 0.821956 0.604531 0.250890
C20   C     C_R   0.085647 0.236046 0.687523 -0.156905
C21   C     C_R   0.913413 0.822255 0.603556 -0.151993
C22   C     C_R   0.147565 0.324406 0.646639 -0.198101
C23   C     C_R   0.503359 0.465311 0.188413 -0.124137
C24   C     C_R   0.852457 0.721262 0.596733 -0.193766
C25   C     C_R   0.074715 0.416194 0.606339 0.090756
C26   C     C_R   0.925040 0.617361 0.582353 0.094940
C27   C     C_R   0.937886 0.417227 0.606860 0.044788
C28   C     C_R   0.061661 0.616657 0.583865 0.043466
C29   C     C_R   0.133414 0.511724 0.572483 -0.235505
C30   C     C_R   0.866553 0.512844 0.571585 -0.238346
C31   C     C_3   0.882415 0.146654 0.740424 -0.984811
C32   C     C_3   0.116684 0.929540 0.612799 -0.945814
C33   C     C_3   0.480344 0.769382 0.019264 -0.956794
C34   C     C_R   0.497998 0.534662 0.811462 -0.087249
C35   C     C_3   0.522531 0.230632 0.980390 -0.959531
C36   C     C_R   0.489318 0.652544 0.968352 0.215986
C37   C     C_R   0.513121 0.347438 0.031412 0.220248
C38   C     C_R   0.489896 0.641164 0.860982 -0.206631
C39   C     C_R   0.511819 0.358802 0.138811 -0.198372
C40   C     C_R   0.505866 0.438237 0.867544 -0.286436
H1    H     H_    0.854673 0.900371 0.612035 0.143913
H2    H     H_    0.512109 0.356776 0.827059 0.178512
H3    H     H_    0.517380 0.284577 0.183819 0.159538
H4    H     H_    0.483955 0.715366 0.815933 0.157081
H5    H     H_    0.445841 0.174530 0.369959 0.125095
H6    H     H_    0.548485 0.826581 0.631677 0.113978
H7    H     H_    0.592759 0.221346 0.673665 0.131765
H8    H     H_    0.400347 0.778583 0.328473 0.137072
H9    H     H_    0.952659 0.085561 0.775634 0.252915
H10   H     H_    0.816247 0.183890 0.802330 0.242957
H11   H     H_    0.825002 0.100969 0.681346 0.245782
H12   H     H_    0.143952 0.168304 0.720412 0.145285
H13   H     H_    0.047091 0.003152 0.605970 0.258424
H14   H     H_    0.167746 0.936809 0.688291 0.236077
H15   H     H_    0.188945 0.930595 0.549245 0.256915
H16   H     H_    0.475193 0.835195 0.961451 0.242097
H17   H     H_    0.391396 0.781260 0.067899 0.241249
H18   H     H_    0.567514 0.782236 0.067990 0.246650
H19   H     H_    0.527801 0.164765 0.038142 0.244993
H20   H     H_    0.435508 0.217606 0.931524 0.241887
H21   H     H_    0.611574 0.219014 0.931846 0.238718
H22   H     H_    0.398839 0.981184 0.301611 0.148261
H23   H     H_    0.593266 0.019313 0.700430 0.148643
H24   H     H_    0.772757 0.331060 0.660025 0.156579
H25   H     H_    0.224828 0.722461 0.614445 0.174059
H26   H     H_    0.251985 0.323427 0.654508 0.175050
H27   H     H_    0.748997 0.726065 0.608818 0.166839
H28   H     H_    0.490083 0.643213 0.172749 0.180569
N1    N     N_R   0.523130 0.207800 0.519340 -0.099268
N2    N     N_R   0.476870 0.792200 0.480660 -0.101860
O1    O     O_R   0.506170 0.421700 0.658830 -0.667135
O2    O     O_R   0.493830 0.578300 0.341170 -0.623839
O3    O     O_R   0.491330 0.609310 0.646410 -0.660535
O4    O     O_R   0.508670 0.390690 0.353590 -0.618411
O5    O     O_R   0.690650 0.406190 0.506220 -0.606622
O6    O     O_R   0.309350 0.593810 0.493780 -0.617783
O7    O     O_R   0.675800 0.593810 0.493800 -0.607880
O8    O     O_R   0.324200 0.406190 0.506200 -0.610751
Zn1   Zn    Zn3+2 0.509910 0.374730 0.508290 0.929025
Zn2   Zn    Zn3+2 0.490090 0.625270 0.491710 0.925107

loop_
_geom_bond_atom_site_label_1
_geom_bond_atom_site_label_2
_ccdc_geom_bond_type
C4    C36   A    
C33   H18   S    
C12   O4    A    
C7    N2    A    
O1    Zn1   S    
C12   C23   S    
C8    N1    A    
C1    O1    A    
C34   C40   A    
C28   C29   A    
C35   C37   S    
C24   C26   A    
C2    H28   S    
C15   O8    A    
C33   C36   S    
C35   H19   S    
C14   O7    A    
C22   H26   S    
C24   H27   S    
C22   C25   A    
C32   H15   S    
C5    C13   A    
C33   H16   S    
C40   H2    S    
C15   O6    A    
C12   O2    A    
C9    H6    S    
C27   C30   A    
C31   H9    S    
C19   C32   S    
C32   H14   S    
C1    C34   S    
C15   C29   S    
C25   C29   A    
N2    Zn2   S    
C9    N2    A    
C6    C11   A    
C5    C7    A    
O8    Zn1   S    
C39   H3    S    
C14   C30   S    
O2    Zn2   S    
C35   H20   S    
C6    H23   S    
C2    C4    A    
C38   H4    S    
C10   H5    S    
C35   H21   S    
C9    C11   A    
C21   H1    S    
C16   C18   A    
C20   C22   A    
C3    C40   A    
C26   C30   A    
O4    Zn1   S    
N1    Zn1   S    
C31   H10   S    
C3    C4    A    
C32   H13   S    
O7    Zn2   S    
C33   H17   S    
C19   C21   A    
C34   C38   A    
C17   C28   A    
C26   C28   A    
O6    Zn2   S    
C31   H11   S    
C10   C13   A    
C6    C8    A    
C25   C27   A    
C17   H25   S    
C1    O3    A    
C7    H8    S    
C36   C38   A    
C8    H7    S    
C20   H12   S    
C14   O5    A    
C11   C13   A    
C16   C27   A    
C23   C39   A    
C17   C19   A    
O3    Zn2   S    
C5    H22   S    
C18   C20   A    
C10   N1    A    
C3    C37   A    
C37   C39   A    
C21   C24   A    
C2    C23   A    
C18   C31   S    
C16   H24   S    
O5    Zn1   S    
