data_mof_unit_14469.cif
_audit_creation_date              2012-12-10T17:35:37-0500
_audit_creation_method            fapswitch 2.2
_symmetry_space_group_name_H-M    P1
_symmetry_Int_Tables_number       1
_space_group_crystal_system       triclinic
_cell_length_a                    10.714418
_cell_length_b                    12.317225
_cell_length_c                    13.188423
_cell_angle_alpha                 116.665016
_cell_angle_beta                  77.39102
_cell_angle_gamma                 101.485942
_cell_volume                      1507.63243022

loop_
_atom_site_label
_atom_site_type_symbol
_atom_type_description
_atom_site_fract_x
_atom_site_fract_y
_atom_site_fract_z
_atom_type_partial_charge
C1    C     C_R   0.513616 0.854858 0.286504 0.771656
C2    C     C_3   0.121980 0.003949 0.504287 0.101155
C3    C     C_3   0.039374 0.981495 0.606806 -0.401614
C4    C     C_3   0.079533 0.903058 0.390558 -0.389818
C5    C     C_R   0.319186 0.279247 0.017805 -0.196997
C6    C     C_R   0.454726 0.227696 0.834353 -0.049184
C7    C     C_R   0.617705 0.812993 0.088855 -0.188496
C8    C     C_R   0.652028 0.732351 0.975884 -0.154300
C9    C     C_R   0.602440 0.609699 0.937003 -0.183476
C10   C     C_R   0.512476 0.565542 0.010221 0.080710
C11   C     C_R   0.468116 0.650909 0.122219 0.083297
C12   C     C_R   0.739057 0.003867 0.505412 0.761810
C13   C     C_R   0.464378 0.439797 0.975941 0.075238
C14   C     C_R   0.367159 0.403010 0.050434 0.170120
C15   C     C_R   0.315992 0.490301 0.155159 -0.243951
C16   C     C_R   0.363868 0.612601 0.189655 -0.205998
C17   C     C_R   0.509361 0.349125 0.869468 -0.258474
C18   C     C_R   0.362255 0.191870 0.909753 -0.201590
C19   C     C_R   0.528669 0.772923 0.163645 -0.098635
C20   C     C_R   0.707912 0.348691 0.330740 -0.304748
C21   C     C_R   0.324439 0.758505 0.644474 0.072482
C22   C     C_R   0.285881 0.661224 0.675303 -0.261569
C23   C     C_R   0.481241 0.145022 0.713349 0.789773
C24   C     C_R   0.351760 0.558125 0.620737 -0.194920
C25   C     C_R   0.457882 0.551049 0.534096 -0.005639
C26   C     C_R   0.493804 0.653211 0.505313 0.292095
C27   C     C_R   0.529662 0.447085 0.475157 -0.038207
C28   C     C_R   0.635418 0.448008 0.389421 0.183192
C29   C     C_R   0.668556 0.547992 0.362577 -0.293034
C30   C     C_R   0.599427 0.647981 0.419014 -0.191475
C31   C     C_R   0.501870 0.341455 0.497141 0.015736
C32   C     C_R   0.675832 0.248197 0.356711 0.054258
C33   C     C_R   0.259908 0.002033 0.502694 0.770119
C34   C     C_3   0.957202 0.132107 0.513741 0.043213
C35   C     C_3   0.099265 0.130475 0.517530 -0.397510
C36   C     C_3   0.895564 0.977938 0.604887 -0.402395
C37   C     C_3   0.933525 0.899546 0.390965 -0.052852
C38   C     C_3   0.877621 0.005772 0.504977 0.099074
Cu1   Cu    Cu3+1 0.529690 0.098270 0.475420 0.913796
Cu2   Cu    Cu3+1 0.470310 0.901730 0.524580 0.912771
H1    H     H_    0.098800 0.812191 0.378640 0.152125
H2    H     H_    0.847123 0.885042 0.592869 0.170054
H3    H     H_    0.318766 0.097833 0.883154 0.142989
H4    H     H_    0.237965 0.464042 0.210574 0.140092
H5    H     H_    0.245096 0.250737 0.074333 0.127315
H6    H     H_    0.584920 0.370196 0.810075 0.147763
H7    H     H_    0.664444 0.906138 0.118762 0.146529
H8    H     H_    0.720939 0.764265 0.918866 0.135460
H9    H     H_    0.955920 0.136456 0.431565 0.108131
H10   H     H_    0.316050 0.676776 0.269037 0.166469
H11   H     H_    0.731521 0.171315 0.311885 0.114513
H12   H     H_    0.749260 0.549172 0.296949 0.146665
H13   H     H_    0.789016 0.348888 0.265225 0.132298
H14   H     H_    0.423199 0.332730 0.560631 0.121949
H15   H     H_    0.272705 0.838097 0.687306 0.117772
H16   H     H_    0.317685 0.485627 0.648069 0.132405
H17   H     H_    0.204583 0.665729 0.741747 0.140331
H18   H     H_    0.632844 0.719305 0.391715 0.208400
H19   H     H_    0.159865 0.151922 0.447145 0.154691
H20   H     H_    0.130082 0.202588 0.599298 0.171967
H21   H     H_    0.849334 0.040039 0.689440 0.177426
H22   H     H_    0.067118 0.055085 0.689109 0.156667
H23   H     H_    0.884331 0.811477 0.392666 0.162547
H24   H     H_    0.139111 0.920609 0.317768 0.166549
N1    N     N_R   0.574690 0.246280 0.438200 -0.179052
N2    N     N_R   0.426100 0.754320 0.561190 -0.203993
O1    O     O_R   0.537340 0.972510 0.318130 -0.578759
O2    O     O_R   0.487200 0.806530 0.359650 -0.595688
O3    O     O_R   0.707380 0.082980 0.479220 -0.601030
O4    O     O_R   0.657240 0.917000 0.520740 -0.606036
O5    O     O_R   0.512800 0.193470 0.640350 -0.585087
O6    O     O_R   0.462660 0.027490 0.681870 -0.585234
O7    O     O_R   0.342760 0.083000 0.479260 -0.588056
O8    O     O_R   0.292620 0.917020 0.520780 -0.597020
C39   C     C_3   0.907363 0.255476 0.605630 -0.384270
C40   C     C_3   0.874322 0.270501 0.729429 -0.836020
H25   H     H_    0.780340 0.217304 0.741644 0.236685
H26   H     H_    0.951541 0.243509 0.754377 0.251627
H27   H     H_    0.863865 0.368105 0.787403 0.233467
H28   H     H_    0.982718 0.331332 0.603577 0.187898
H29   H     H_    0.822658 0.273228 0.582206 0.227143
H30   H     H_    0.056065 0.893173 0.602737 0.176173
H31   H     H_    0.635320 0.552847 0.848673 0.127026
C41   C     C_3   0.908508 0.898222 0.278459 -0.424910
C42   C     C_3   0.930312 0.775789 0.175327 -0.850832
H32   H     H_    0.031222 0.756485 0.160515 0.254191
H33   H     H_    0.863823 0.700518 0.189330 0.246188
H34   H     H_    0.910883 0.778742 0.097315 0.247672
H35   H     H_    0.807533 0.912966 0.285889 0.207845
H36   H     H_    0.972030 0.972122 0.259820 0.203351

loop_
_geom_bond_atom_site_label_1
_geom_bond_atom_site_label_2
_ccdc_geom_bond_type
C2    C35   S    
C12   O3    A    
C21   N2    A    
C36   H2    S    
C40   H27   S    
C22   H17   S    
C7    C8    A    
C42   H32   S    
C11   C19   A    
C29   C30   A    
Cu2   O4    S    
C28   C29   A    
C16   H10   S    
C15   H4    S    
C3    H22   S    
C4    H1    S    
C15   C16   A    
C1    O2    A    
C35   H19   S    
C34   C35   S    
C41   C42   S    
C8    C9    A    
C37   C41   S    
C9    C10   A    
C34   C39   S    
Cu2   N2    S    
C13   C14   A    
Cu1   N1    S    
C41   H36   S    
C37   H23   S    
C40   H25   S    
C42   H33   S    
C6    C18   A    
C1    C19   S    
C27   C31   A    
C26   N2    A    
C23   O5    A    
C17   H6    S    
Cu1   Cu2   S    
C21   H15   S    
C39   H29   S    
C5    C18   A    
C20   C28   A    
C25   C26   A    
C5    H5    S    
C35   H20   S    
C7    H7    S    
C2    C4    S    
C39   C40   S    
C8    H8    S    
C32   H11   S    
C37   C38   S    
C11   C16   A    
C3    H30   S    
Cu1   O3    S    
C24   C25   A    
C5    C14   A    
C9    H31   S    
C2    C33   S    
C33   O7    A    
C26   C30   A    
C7    C19   A    
C22   C24   A    
C24   H16   S    
C41   H35   S    
C36   H21   S    
C20   C32   A    
C42   H34   S    
C31   N1    A    
C6    C17   A    
C12   O4    A    
C34   H9    S    
Cu2   O6    S    
C34   C38   S    
Cu1   O1    S    
C23   O6    A    
C40   H26   S    
C20   H13   S    
C10   C13   A    
C25   C27   A    
C4    H24   S    
C13   C17   A    
C36   C38   S    
C2    C3    S    
C18   H3    S    
C3    C36   S    
C6    C23   S    
C30   H18   S    
C1    O1    A    
Cu2   O8    S    
Cu1   O7    S    
C31   H14   S    
C12   C38   S    
C10   C11   A    
C33   O8    A    
C39   H28   S    
C4    C37   S    
Cu2   O2    S    
C27   C28   A    
Cu1   O5    S    
C14   C15   A    
C21   C22   A    
C32   N1    A    
C29   H12   S    
