data_mof_unit_36488.cif
_audit_creation_date              2013-03-05T16:13:54-0500
_audit_creation_method            fapswitch 2.2
_symmetry_space_group_name_H-M    P1
_symmetry_Int_Tables_number       1
_space_group_crystal_system       triclinic
_cell_length_a                    20.26562
_cell_length_b                    22.603607
_cell_length_c                    6.949451
_cell_angle_alpha                 89.967003
_cell_angle_beta                  87.502459
_cell_angle_gamma                 90.004807
_cell_volume                      3180.35302151

loop_
_atom_site_label
_atom_site_type_symbol
_atom_site_description
_atom_site_fract_x
_atom_site_fract_y
_atom_site_fract_z
_atom_type_partial_charge
O1    O     O_R   0.751270 0.447300 0.600030 -0.592752
O2    O     O_R   0.248730 0.947300 0.399970 -0.593120
O3    O     O_R   0.613530 0.440160 0.952150 -0.551025
O4    O     O_R   0.386470 0.940160 0.047850 -0.558444
O5    O     O_R   0.613050 0.552700 0.122560 -0.568824
O6    O     O_R   0.386950 0.052700 0.877440 -0.572071
C1    C     C_R   0.591255 0.425568 0.786256 1.107697
C2    C     C_R   0.408811 0.925652 0.213839 1.110046
O7    O     O_R   0.750780 0.440350 0.929820 -0.583223
O8    O     O_R   0.249220 0.940350 0.070180 -0.582878
O9    O     O_R   0.751280 0.552900 0.100070 -0.613054
O10   O     O_R   0.248720 0.052900 0.899930 -0.613472
C3    C     C_R   0.773092 0.425398 0.758449 1.011023
C4    C     C_R   0.226928 0.925384 0.241612 1.011682
O11   O     O_R   0.613040 0.447100 0.622520 -0.564455
O12   O     O_R   0.386960 0.947100 0.377480 -0.559890
O13   O     O_3   0.682160 0.536920 0.777780 -0.294451
O14   O     O_3   0.317840 0.036920 0.222220 -0.293552
V1    V     V_3+5 0.682160 0.493150 0.052630 1.289081
V2    V     V_3+5 0.317840 0.993150 0.947370 1.284307
O15   O     O_R   0.750790 0.559840 0.429870 -0.616178
O16   O     O_R   0.249210 0.059840 0.570130 -0.615701
C5    C     C_R   0.774012 0.573916 0.258542 0.929513
C6    C     C_R   0.225986 0.073917 0.741407 0.930287
O17   O     O_R   0.613540 0.559650 0.452200 -0.581352
O18   O     O_R   0.386460 0.059650 0.547800 -0.576855
C7    C     C_R   0.591250 0.574194 0.286425 1.061293
C8    C     C_R   0.408735 0.074243 0.713513 1.055473
V3    V     V_3+5 0.682160 0.506850 0.552630 1.252143
V4    V     V_3+5 0.317840 0.006850 0.447370 1.254458
O19   O     O_3   0.682150 0.463080 0.277610 -0.235999
O20   O     O_3   0.317850 0.963080 0.722390 -0.237639
C9    C     C_R   0.583180 0.863468 0.219274 0.223958
C10   C     C_R   0.416602 0.363583 0.787736 0.222611
C11   C     C_R   0.465183 0.884069 0.218039 -0.340767
C12   C     C_R   0.534755 0.384050 0.784284 -0.336187
C13   C     C_R   0.469401 0.594262 0.305973 0.334027
C14   C     C_R   0.530163 0.094892 0.677918 0.337290
C15   C     C_R   0.417454 0.634356 0.336930 -0.214758
C16   C     C_R   0.581179 0.135578 0.639675 -0.218109
C17   C     C_R   0.427869 0.695472 0.344428 0.260583
C18   C     C_R   0.570350 0.196687 0.641239 0.259148
C19   C     C_R   0.491399 0.719163 0.293185 -0.014503
C20   C     C_R   0.507799 0.219570 0.706278 -0.014416
C21   C     C_R   0.545688 0.678573 0.278638 0.042841
C22   C     C_R   0.454119 0.178598 0.729796 0.044194
C23   C     C_R   0.503566 0.781370 0.259823 0.120472
C24   C     C_R   0.495889 0.281552 0.742994 0.120792
C25   C     C_R   0.569743 0.802201 0.242599 -0.053200
C26   C     C_R   0.429875 0.302185 0.767780 -0.051552
C27   C     C_R   0.621928 0.761462 0.247787 -0.070429
C28   C     C_R   0.378007 0.260960 0.779609 -0.069653
C29   C     C_R   0.610205 0.701103 0.259096 -0.152143
C30   C     C_R   0.389983 0.200638 0.766023 -0.155380
C31   C     C_R   0.452445 0.823185 0.234215 -0.154542
C32   C     C_R   0.547303 0.323162 0.767031 -0.151027
C33   C     C_R   0.530978 0.904737 0.209594 0.266692
C34   C     C_R   0.469014 0.404893 0.789801 0.270078
C35   C     C_R   0.534848 0.616196 0.287620 -0.356757
C36   C     C_R   0.465077 0.116384 0.712815 -0.354249
H1    H     H_    0.401914 0.809489 0.220842 0.184847
H2    H     H_    0.597910 0.309141 0.777202 0.183094
H3    H     H_    0.368252 0.617422 0.369878 0.226374
H4    H     H_    0.629936 0.119494 0.596729 0.227639
C37   C     C_R   0.170902 0.882705 0.256627 -0.311226
C38   C     C_R   0.829156 0.382759 0.743537 -0.311556
C39   C     C_R   0.161484 0.838347 0.116307 0.362245
C40   C     C_R   0.838728 0.338508 0.884256 0.360929
C41   C     C_R   0.103844 0.803641 0.127173 -0.212282
C42   C     C_R   0.896358 0.303801 0.873294 -0.212846
C43   C     C_R   0.055551 0.810922 0.277895 0.113542
C44   C     C_R   0.944510 0.310989 0.722105 0.113451
C45   C     C_R   0.065513 0.854672 0.419139 0.360158
C46   C     C_R   0.934425 0.354664 0.580550 0.360122
C47   C     C_R   0.123187 0.889359 0.407800 -0.253691
C48   C     C_R   0.876750 0.389340 0.591968 -0.252080
C49   C     C_R   0.904268 0.685951 0.399600 0.361729
C50   C     C_R   0.095698 0.185972 0.600299 0.362639
C51   C     C_R   0.847888 0.649401 0.405700 -0.288051
C52   C     C_R   0.152052 0.149392 0.594117 -0.285079
C53   C     C_R   0.943563 0.690519 0.225366 0.112922
C54   C     C_R   0.056483 0.190564 0.774661 0.112345
N1    N     N_2   0.997510 0.774777 0.293392 0.020067
N2    N     N_2   0.002530 0.274831 0.706462 0.020278
N3    N     N_2   0.001148 0.726930 0.203454 -0.035085
N4    N     N_2   0.998927 0.226997 0.796671 -0.035289
C55   C     C_R   0.830702 0.615822 0.244861 -0.163932
C56   C     C_R   0.169297 0.115821 0.755030 -0.165179
C57   C     C_R   0.870751 0.619726 0.075541 -0.137817
C58   C     C_R   0.129323 0.119750 0.924479 -0.139661
C59   C     C_R   0.926776 0.655883 0.067633 -0.077829
C60   C     C_R   0.073323 0.155927 0.932455 -0.078437
H5    H     H_    0.859792 0.593663 0.950139 0.143488
H6    H     H_    0.140324 0.093697 0.049958 0.143780
H7    H     H_    0.097289 0.770188 0.018177 0.203094
H8    H     H_    0.903014 0.270425 0.982599 0.203055
N5    N     N_R   0.545304 0.966853 0.181175 0.265147
O21   O     O_R   0.508064 0.007374 0.262578 -0.385414
O22   O     O_R   0.595207 0.983457 0.069889 -0.252578
N6    N     N_R   0.454970 0.467575 0.794947 0.263537
O23   O     O_R   0.491482 0.503910 0.888936 -0.381772
O24   O     O_R   0.405762 0.489003 0.702967 -0.263731
N7    N     N_R   0.922899 0.714438 0.573852 0.240106
O25   O     O_R   0.877678 0.734116 0.696237 -0.347286
O26   O     O_R   0.983978 0.712833 0.624263 -0.394367
N8    N     N_R   0.077014 0.214471 0.426028 0.240228
O27   O     O_R   0.122201 0.234173 0.303487 -0.348241
O28   O     O_R   0.015918 0.212859 0.375779 -0.394763
N9    N     N_R   0.017827 0.864300 0.575950 0.260671
O29   O     O_R   0.036169 0.887058 0.737140 -0.370156
O30   O     O_R   0.955242 0.854856 0.554446 -0.285243
N10   N     N_R   0.981988 0.364225 0.423340 0.260613
O31   O     O_R   0.963509 0.386862 0.262054 -0.370256
O32   O     O_R   0.044600 0.354863 0.444557 -0.284239
H9    H     H_    0.129655 0.923566 0.514509 0.187168
H10   H     H_    0.870186 0.423476 0.484957 0.187274
H11   H     H_    0.957639 0.656830 0.936966 0.196513
H12   H     H_    0.042523 0.156892 0.063240 0.196622
N11   N     N_R   0.210732 0.826326 0.966270 0.254669
O33   O     O_R   0.193041 0.810538 0.795933 -0.333072
O34   O     O_R   0.272701 0.822465 0.006646 -0.357697
N12   N     N_R   0.789638 0.326596 0.034848 0.254308
O35   O     O_R   0.807522 0.311343 0.205564 -0.333501
O36   O     O_R   0.727659 0.322360 0.994891 -0.358274
H13   H     H_    0.672928 0.775681 0.237867 0.181355
H14   H     H_    0.327318 0.274759 0.806105 0.180683
N13   N     N_R   0.650154 0.884185 0.210765 0.257960
O37   O     O_R   0.688398 0.873448 0.059572 -0.302248
O38   O     O_R   0.671369 0.917510 0.347527 -0.247827
N14   N     N_R   0.349708 0.384129 0.810919 0.258503
O39   O     O_R   0.309229 0.377511 0.672242 -0.296956
O40   O     O_R   0.330563 0.413093 0.965168 -0.254027
N15   N     N_R   0.454047 0.531763 0.300965 0.272316
O41   O     O_R   0.497001 0.491638 0.344047 -0.372034
O42   O     O_R   0.395052 0.514510 0.259422 -0.259239
N16   N     N_R   0.545287 0.032281 0.669589 0.270022
O43   O     O_R   0.505200 0.992968 0.745867 -0.368433
O44   O     O_R   0.602228 0.014293 0.598030 -0.267607
N17   N     N_R   0.375907 0.730877 0.431860 0.238676
O45   O     O_R   0.388632 0.766430 0.572809 -0.346034
O46   O     O_R   0.314648 0.720759 0.393364 -0.313522
N18   N     N_R   0.620470 0.233313 0.549772 0.238543
O47   O     O_R   0.604884 0.270116 0.414948 -0.348289
O48   O     O_R   0.682566 0.223241 0.577595 -0.314117
H15   H     H_    0.652801 0.672151 0.253977 0.091142
H16   H     H_    0.347859 0.171325 0.782483 0.093813
H17   H     H_    0.818604 0.645732 0.539347 0.179302
H18   H     H_    0.181272 0.145703 0.460376 0.178915

loop_
_geom_bond_atom_site_label_1
_geom_bond_atom_site_label_2
_geom_bond_distance
_ccdc_geom_bond_type
C38   C40   1.417695 A    
O11   V3    1.990399 S    
C45   C47   1.406698 A    
C1    C12   1.480917 S    
C42   H8    1.082881 S    
O4    C2    1.299334 A    
V1    O19   1.704470 S    
C51   C55   1.407690 A    
N5    O21   1.300768 A    
C23   C25   1.421425 A    
N15   O42   1.301900 A    
O9    V1    1.983756 S    
C46   C48   1.406730 A    
O16   C6    1.300445 A    
N2    N4    1.250037 D    
O3    C1    1.299018 A    
N9    O30   1.301165 A    
C46   N10   1.441288 S    
C50   C52   1.409157 A    
N8    O27   1.301400 A    
C9    C25   1.419180 A    
C9    N13   1.434517 S    
C54   C60   1.401289 A    
O9    C5    1.302119 A    
C41   C43   1.411706 A    
C60   H12   1.080152 S    
O7    C3    1.300212 A    
O13   V1    2.150577 S    
O5    C7    1.298018 A    
O7    V1    1.996155 S    
O6    C8    1.298186 A    
C20   C22   1.432467 A    
C25   C27   1.403973 A    
C18   N18   1.436701 S    
C26   C28   1.404351 A    
C59   H11   1.080149 S    
O3    V1    1.985438 S    
O14   V4    1.705562 S    
O8    V2    1.995426 S    
C14   N16   1.448735 S    
C57   C59   1.398001 A    
C19   C23   1.444393 A    
C30   H16   1.082659 S    
C24   C26   1.420223 A    
C38   C48   1.404694 A    
C2    O12   1.296590 A    
C5    C55   1.488746 S    
C52   C56   1.407694 A    
C16   C18   1.398597 A    
C17   C19   1.425099 A    
O10   V2    1.983658 S    
C18   C20   1.424493 A    
C29   H15   1.082660 S    
N10   O31   1.301659 A    
N5    O22   1.301223 A    
C28   C30   1.387488 A    
C58   H6    1.083178 S    
C43   N1    1.432251 S    
C3    C38   1.490163 S    
C8    C36   1.486756 S    
O17   V3    1.982231 S    
C10   C26   1.419393 A    
C11   C31   1.403718 A    
C27   H13   1.081664 S    
C34   N6    1.445326 S    
C44   C46   1.414394 A    
O8    C4    1.300176 A    
C40   N12   1.437472 S    
C43   C45   1.414397 A    
C28   H14   1.081699 S    
C51   H17   1.083315 S    
C37   C39   1.417731 A    
C54   N4    1.430679 S    
O15   V3    1.997994 S    
C39   C41   1.406308 A    
C2    C11   1.480711 S    
C53   C59   1.401305 A    
N14   O40   1.301096 A    
C39   N11   1.437628 S    
N13   O38   1.300742 A    
C12   C32   1.403848 A    
V4    O20   2.151633 S    
C6    C56   1.488867 S    
C50   C54   1.423668 A    
C58   C60   1.397998 A    
C49   C53   1.423630 A    
N17   O45   1.301794 A    
C33   N5    1.445417 S    
C22   C30   1.404522 A    
O1    V3    1.980383 S    
C49   C51   1.409059 A    
N7    O26   1.301538 A    
C13   C35   1.416448 A    
C19   C21   1.432828 A    
C10   N14   1.435455 S    
C44   N2    1.432300 S    
N11   O34   1.301602 A    
C14   C36   1.416656 A    
N10   O32   1.301104 A    
N16   O44   1.301748 A    
N1    N3    1.250027 D    
C56   C58   1.402797 A    
O18   V4    1.982574 S    
O15   C5    1.300390 A    
N15   O41   1.300965 A    
C32   H2    1.078700 S    
C49   N7    1.436758 S    
O1    C3    1.301749 A    
N12   O36   1.301669 A    
N13   O37   1.301130 A    
N18   O48   1.301539 A    
C15   H3    1.083104 S    
C23   C31   1.419282 A    
N6    O24   1.301133 A    
V2    O20   1.705188 S    
C24   C32   1.418918 A    
C21   C35   1.427852 A    
C9    C33   1.414265 A    
O16   V4    1.998723 S    
C22   C36   1.427861 A    
O18   C8    1.297888 A    
N16   O43   1.300917 A    
C41   H7    1.082861 S    
C16   H4    1.082608 S    
N11   O33   1.301768 A    
C45   N9    1.441310 S    
O5    V1    1.987791 S    
O17   C7    1.297791 A    
O6    V2    1.987257 S    
O10   C6    1.302015 A    
C12   C34   1.412124 A    
C37   C47   1.404641 A    
C11   C33   1.411607 A    
O2    V4    1.980480 S    
C55   C57   1.402757 A    
N14   O39   1.301205 A    
V3    O19   2.152645 S    
C7    C35   1.485701 S    
O13   V3    1.706280 S    
C14   C16   1.400317 A    
N17   O46   1.301558 A    
N8    O28   1.301542 A    
C31   H1    1.077684 S    
C1    O11   1.296953 A    
N6    O23   1.300511 A    
C48   H10   1.083542 S    
C4    C37   1.489977 S    
C50   N8    1.436725 S    
O14   V2    2.151588 S    
C57   H5    1.083178 S    
O2    C4    1.301801 A    
C13   N15   1.447304 S    
C17   N17   1.436466 S    
C21   C29   1.404135 A    
O4    V2    1.985095 S    
C52   H18   1.083315 S    
C47   H9    1.083544 S    
C15   C17   1.398804 A    
C13   C15   1.398747 A    
N7    O25   1.301402 A    
C10   C34   1.414742 A    
C40   C42   1.406313 A    
N18   O47   1.301775 A    
C42   C44   1.411726 A    
C27   C29   1.386442 A    
N12   O35   1.301827 A    
N9    O29   1.301743 A    
O12   V4    1.990940 S    
C53   N3    1.430601 S    
C20   C24   1.442686 A    
