data_mof_unit_26273.cif
_audit_creation_date              2012-12-10T20:41:55-0500
_audit_creation_method            fapswitch 2.2
_symmetry_space_group_name_H-M    P1
_symmetry_Int_Tables_number       1
_space_group_crystal_system       triclinic
_cell_length_a                    14.938528
_cell_length_b                    15.200545
_cell_length_c                    9.909726
_cell_angle_alpha                 90.226711
_cell_angle_beta                  89.410536
_cell_angle_gamma                 89.74668
_cell_volume                      2250.07971052

loop_
_atom_site_label
_atom_site_type_symbol
_atom_type_description
_atom_site_fract_x
_atom_site_fract_y
_atom_site_fract_z
_atom_type_partial_charge
C1    C     C_R   0.382265 0.877857 0.500151 0.940427
C2    C     C_R   0.921808 0.509848 0.072284 0.159864
C3    C     C_R   0.578068 0.995405 0.071225 0.082349
C4    C     C_R   0.076481 0.483197 0.069078 0.048875
C5    C     C_R   0.578125 0.995282 0.926006 0.143967
C6    C     C_R   0.076253 0.483791 0.925406 0.206486
C7    C     C_R   0.421611 0.994456 0.930235 0.083030
C8    C     C_R   0.921814 0.509458 0.930018 0.026737
C9    C     C_3   0.343809 0.055701 0.922733 -0.509943
C10   C     C_3   0.858107 0.584892 0.921291 -0.575027
C11   C     C_3   0.345450 0.059658 0.076280 0.765175
C12   C     C_R   0.378931 0.118703 0.500617 0.941379
C13   C     C_3   0.859783 0.587759 0.075001 0.783274
C14   C     C_R   0.621448 0.118411 0.499809 0.869513
C15   C     C_R   0.620179 0.880655 0.499395 0.881764
C16   C     C_R   0.122126 0.617792 0.499738 0.889136
C17   C     C_R   0.121570 0.382325 0.499421 0.890340
C18   C     C_R   0.242831 0.183369 0.591904 -0.000005
C19   C     C_R   0.296933 0.766814 0.622024 0.027419
C20   C     C_R   0.824722 0.757348 0.417601 0.023492
C21   C     C_R   0.786280 0.276914 0.624043 -0.081248
C22   C     C_R   0.315314 0.187256 0.502409 -0.131102
C23   C     C_R   0.882146 0.378095 0.500486 0.922303
C24   C     C_R   0.327387 0.801677 0.500232 -0.153499
C25   C     C_R   0.813339 0.684622 0.500380 -0.129532
C26   C     C_R   0.825944 0.303139 0.502771 -0.142884
C27   C     C_R   0.329537 0.261028 0.420709 -0.178236
C28   C     C_R   0.305848 0.760126 0.378178 -0.175762
C29   C     C_R   0.734479 0.671968 0.574551 -0.198973
C30   C     C_R   0.812217 0.254224 0.384494 -0.184408
C31   C     C_R   0.669253 0.736785 0.572982 -0.197264
C32   C     C_R   0.746876 0.189969 0.383791 -0.180770
C33   C     C_R   0.266029 0.327544 0.419948 -0.228557
C34   C     C_R   0.880392 0.619835 0.500595 0.934789
C35   C     C_R   0.241047 0.695459 0.377950 -0.202915
C36   C     C_R   0.684223 0.812812 0.497139 -0.139327
C37   C     C_R   0.695887 0.175845 0.501109 -0.145230
C38   C     C_R   0.189592 0.318713 0.500738 -0.129644
C39   C     C_R   0.198558 0.672998 0.499787 -0.135128
C40   C     C_R   0.759883 0.821771 0.415627 0.038766
C41   C     C_R   0.720571 0.214633 0.622374 0.041943
C42   C     C_R   0.179862 0.249355 0.589481 0.061595
C43   C     C_R   0.232753 0.702751 0.621914 0.055499
C44   C     C_3   0.826612 0.895175 0.416916 0.175726
C45   C     C_3   0.169942 0.115257 0.603816 0.740430
C46   C     C_3   0.663882 0.260333 0.726836 0.207696
C47   C     C_3   0.101346 0.189696 0.600858 0.085129
C48   C     C_3   0.184924 0.739149 0.743675 0.112793
C49   C     C_3   0.255979 0.810967 0.743663 0.736756
C50   C     C_3   0.898820 0.824018 0.419663 0.731054
C51   C     C_3   0.737845 0.329121 0.732299 0.762114
C52   C     C_R   0.421609 0.995286 0.072277 0.067004
H1    H     H_    0.388340 0.266045 0.356269 0.182090
H2    H     H_    0.598240 0.283472 0.687553 0.056460
H3    H     H_    0.057008 0.191313 0.511028 0.074010
H4    H     H_    0.115217 0.761422 0.722872 0.116386
H5    H     H_    0.360486 0.118949 0.872644 0.218184
H6    H     H_    0.284496 0.021324 0.883144 0.275622
H7    H     H_    0.888239 0.643506 0.872092 0.202377
H8    H     H_    0.792675 0.564331 0.879312 0.235828
H9    H     H_    0.318324 0.181804 0.112883 0.345311
H10   H     H_    0.256740 0.966815 0.107302 0.311748
H11   H     H_    0.957109 0.673887 0.085247 0.307827
H12   H     H_    0.333710 0.781602 0.282525 0.179961
H13   H     H_    0.738196 0.619740 0.121695 0.349748
H14   H     H_    0.868283 0.991111 0.307258 0.354652
H15   H     H_    0.617027 0.243813 0.906568 0.354331
H16   H     H_    0.001685 0.166122 0.719873 0.343355
H17   H     H_    0.154827 0.708438 0.926817 0.329483
H18   H     H_    0.115776 0.037052 0.733357 0.366719
H19   H     H_    0.278927 0.833938 0.931916 0.327918
H20   H     H_    0.992182 0.769039 0.312185 0.352866
H21   H     H_    0.840031 0.360850 0.840152 0.354378
H22   H     H_    0.164641 0.091424 0.409203 0.330963
H23   H     H_    0.724437 0.613332 0.634608 0.188079
H24   H     H_    0.183977 0.893079 0.637479 0.341058
H25   H     H_    0.908932 0.825055 0.617288 0.299930
H26   H     H_    0.680726 0.409704 0.604748 0.294048
H27   H     H_    0.693736 0.933854 0.116012 0.219258
H28   H     H_    0.699536 0.045267 0.115234 0.185951
H29   H     H_    0.169361 0.509344 0.212490 0.232054
H30   H     H_    0.158299 0.400417 0.168593 0.219538
H31   H     H_    0.700890 0.043218 0.878961 0.222711
H32   H     H_    0.693010 0.932069 0.875036 0.161065
H33   H     H_    0.180340 0.404934 0.874589 0.191866
H34   H     H_    0.847498 0.269067 0.291321 0.189020
H35   H     H_    0.205395 0.513116 0.882268 0.234615
H36   H     H_    0.608560 0.728803 0.632466 0.169911
H37   H     H_    0.732855 0.155758 0.290439 0.186400
H38   H     H_    0.275280 0.384112 0.355217 0.156176
H39   H     H_    0.220065 0.668284 0.282197 0.173307
H40   H     H_    0.821350 0.937694 0.508644 0.060171
N1    N     N_R   0.499140 0.000000 0.142800 -0.096024
N2    N     N_R   0.999140 0.500000 0.142800 -0.153992
N3    N     N_R   0.499160 0.000000 0.857150 -0.086425
N4    N     N_R   0.999160 0.500000 0.857150 -0.113114
N5    N     N_3   0.660158 0.991710 0.143705 -0.359173
N6    N     N_3   0.159523 0.465057 0.133758 -0.475544
N7    N     N_3   0.660271 0.990695 0.850670 -0.381464
N8    N     N_3   0.157293 0.467996 0.850851 -0.363131
O1    O     O_R   0.408400 0.908380 0.614690 -0.564642
O2    O     O_R   0.591610 0.908390 0.614650 -0.616621
O3    O     O_R   0.091610 0.591610 0.614650 -0.579815
O4    O     O_R   0.091610 0.408390 0.614650 -0.570658
O5    O     O_R   0.591590 0.091600 0.385310 -0.605385
O6    O     O_R   0.591590 0.908400 0.385310 -0.591012
O7    O     O_R   0.091590 0.591600 0.385310 -0.655160
O8    O     O_R   0.091590 0.408400 0.385310 -0.655021
O9    O     O_3   0.370691 0.142406 0.125569 -0.738004
O10   O     O_3   0.267877 0.027398 0.140915 -0.732225
O11   O     O_3   0.897593 0.664974 0.128586 -0.730485
O12   O     O_R   0.408400 0.091620 0.614690 -0.618793
O13   O     O_3   0.777213 0.567600 0.135446 -0.722483
O14   O     O_3   0.825406 0.942080 0.295621 -0.716015
O15   O     O_3   0.657000 0.210042 0.844639 -0.716756
O16   O     O_3   0.056219 0.202999 0.724048 -0.703110
O17   O     O_3   0.191780 0.681848 0.853450 -0.733958
O18   O     O_3   0.171996 0.071452 0.727506 -0.694419
O19   O     O_3   0.313444 0.808886 0.854673 -0.711553
O20   O     O_3   0.952377 0.821051 0.302619 -0.663183
O21   O     O_3   0.782962 0.329487 0.855827 -0.694029
O22   O     O_3   0.166015 0.056470 0.493637 -0.766536
O23   O     O_R   0.908400 0.408380 0.614690 -0.603420
O24   O     O_3   0.222550 0.895893 0.718448 -0.767156
O25   O     O_3   0.950338 0.823949 0.538216 -0.817062
O26   O     O_3   0.710635 0.414160 0.693547 -0.793214
O27   O     O_R   0.908400 0.591620 0.614690 -0.624245
O28   O     O_R   0.408370 0.908370 0.385350 -0.628922
O29   O     O_R   0.408370 0.091630 0.385350 -0.553796
O30   O     O_R   0.908370 0.408370 0.385350 -0.610652
O31   O     O_R   0.908370 0.591630 0.385350 -0.554368
O32   O     O_R   0.591610 0.091610 0.614650 -0.581001
Zn1   Zn    Zn3+2 0.500010 1.000000 0.653130 1.022620
Zn2   Zn    Zn3+2 0.000010 0.500000 0.653130 1.007010
Zn3   Zn    Zn3+2 0.499980 1.000000 0.346870 1.026269
Zn4   Zn    Zn3+2 0.999980 0.500000 0.346870 0.973921

loop_
_geom_bond_atom_site_label_1
_geom_bond_atom_site_label_2
_ccdc_geom_bond_type
C45   O18   S    
C30   C32   A    
C21   C26   A    
C4    N6    S    
H28   N5    S    
C11   O9    S    
C10   H8    S    
C8    N4    A    
O27   Zn2   S    
C12   O12   A    
O12   Zn1   S    
H9    O9    S    
C14   O32   A    
C27   C33   A    
O4    Zn2   S    
C46   O15   S    
C50   O20   S    
C15   O6    A    
O3    Zn2   S    
C7    C52   A    
O8    Zn4   S    
C18   C42   A    
C20   C40   A    
C20   C25   A    
H19   O19   S    
C12   C22   S    
N3    Zn1   S    
C48   H4    S    
C9    H6    S    
C23   C26   S    
C2    C13   S    
H15   O15   S    
C20   C50   S    
C11   C52   S    
C16   O7    A    
O29   Zn3   S    
C14   O5    A    
C5    N7    S    
C28   C35   A    
O32   Zn1   S    
N2    Zn4   S    
C41   C46   S    
C1    O28   A    
C30   H34   S    
C43   C48   S    
C44   H40   S    
C25   C34   S    
O5    Zn3   S    
C44   O14   S    
H31   N7    S    
C11   O10   S    
H11   O11   S    
H30   N6    S    
C46   H2    S    
C5    N3    A    
C19   C43   A    
C45   C47   S    
C25   C29   A    
C47   O16   S    
O30   Zn4   S    
C19   C49   S    
C12   O29   A    
O23   Zn2   S    
H24   O24   S    
C2    N2    A    
C4    C6    A    
O31   Zn4   S    
O28   Zn3   S    
C34   O27   A    
C23   O23   A    
C3    C5    A    
C49   O24   S    
C46   C51   S    
C23   O30   A    
C6    N8    S    
C35   C39   A    
O7    Zn4   S    
C3    N5    S    
C16   O3    A    
C32   H37   S    
H10   O10   S    
C36   C40   A    
H20   O20   S    
C52   N1    A    
C3    N1    A    
C50   O25   S    
C32   C37   A    
C9    C11   S    
H16   O16   S    
C4    N2    A    
C28   H12   S    
C8    C10   S    
O6    Zn3   S    
H22   O22   S    
C34   O31   A    
C26   C30   A    
C6    N4    A    
C22   C27   A    
C51   O21   S    
C21   C41   A    
C17   O8    A    
H26   O26   S    
C18   C45   S    
C1    O1    A    
C15   C36   S    
C21   C51   S    
H25   O25   S    
C47   H3    S    
H35   N8    S    
C44   C50   S    
C7    C9    S    
C48   C49   S    
C31   H36   S    
H14   O14   S    
C18   C22   A    
C51   O26   S    
H13   O13   S    
H27   N5    S    
C2    C8    A    
C24   C28   A    
N1    Zn3   S    
C10   C13   S    
N4    Zn2   S    
C27   H1    S    
C38   C42   A    
C48   O17   S    
C29   H23   S    
O1    Zn1   S    
C45   O22   S    
C7    N3    A    
H21   O21   S    
C33   C38   A    
H32   N7    S    
C10   H7    S    
O2    Zn1   S    
C29   C31   A    
H33   N8    S    
C33   H38   S    
C14   C37   S    
C17   O4    A    
C49   O19   S    
H18   O18   S    
H17   O17   S    
C19   C24   A    
C9    H5    S    
C42   C47   S    
C15   O2    A    
C37   C41   A    
C16   C39   S    
C40   C44   S    
C17   C38   S    
C39   C43   A    
C1    C24   S    
C13   O11   S    
H29   N6    S    
C31   C36   A    
C13   O13   S    
C35   H39   S    
