data_mof_unit_5626.cif
_audit_creation_date              2012-12-11T16:41:16-0500
_audit_creation_method            fapswitch 2.2
_symmetry_space_group_name_H-M    P1
_symmetry_Int_Tables_number       1
_space_group_crystal_system       triclinic
_cell_length_a                    6.924077
_cell_length_b                    23.200484
_cell_length_c                    23.626025
_cell_angle_alpha                 112.508656
_cell_angle_beta                  91.375333
_cell_angle_gamma                 91.212315
_cell_volume                      3503.30591429

loop_
_atom_site_label
_atom_site_type_symbol
_atom_type_description
_atom_site_fract_x
_atom_site_fract_y
_atom_site_fract_z
_atom_type_partial_charge
O1    O     O_R   0.505740 0.453370 0.547760 -0.533643
O2    O     O_R   0.169520 0.427650 0.423350 -0.532904
O3    O     O_R   0.005620 0.546630 0.452240 -0.541674
C1    C     C_R   0.335731 0.407389 0.400198 0.694288
O4    O     O_R   0.175610 0.445960 0.545510 -0.537226
O5    O     O_R   0.011740 0.565080 0.575280 -0.542735
C2    C     C_R   0.344851 0.434248 0.562352 0.647425
O6    O     O_R   0.499610 0.434920 0.424720 -0.532918
O7    O     O_3   0.341310 0.539060 0.509620 -0.374055
V1    V     V_3+5 0.063960 0.492750 0.498220 1.450866
O8    O     O_R   0.682400 0.572350 0.576650 -0.544325
C3    C     C_R   0.856142 0.590170 0.601148 0.699031
O9    O     O_R   0.676320 0.554040 0.454490 -0.544900
C4    C     C_R   0.844917 0.565971 0.437518 0.683323
V2    V     V_3+5 0.564740 0.507250 0.501780 1.427177
O10   O     O_3   0.837250 0.460940 0.490380 -0.346516
C5    C     C_R   0.775519 0.884968 0.123112 -0.154017
H1    H     H_    0.644446 0.904603 0.113326 0.121468
C6    C     C_R   0.764201 0.849443 0.159326 -0.138020
H2    H     H_    0.625352 0.843394 0.176802 0.101256
C7    C     C_R   0.930217 0.823244 0.173852 0.094896
C8    C     C_R   0.108135 0.833654 0.151093 -0.135731
H3    H     H_    0.238559 0.813513 0.160566 0.099653
C9    C     C_R   0.119622 0.869397 0.114957 -0.156955
H4    H     H_    0.258916 0.876336 0.098240 0.119959
C10   C     C_R   0.953355 0.895545 0.100462 -0.055932
C11   C     C_R   0.065553 0.789604 0.256100 -0.146689
H5    H     H_    0.190198 0.820683 0.262413 0.112615
C12   C     C_R   0.052746 0.754673 0.292916 -0.148952
H6    H     H_    0.168103 0.759848 0.326430 0.109785
C13   C     C_R   0.891569 0.714642 0.287445 0.080903
C14   C     C_R   0.743498 0.710604 0.244121 -0.149056
H7    H     H_    0.618858 0.679523 0.237806 0.110817
C15   C     C_R   0.756305 0.745536 0.207306 -0.147807
H8    H     H_    0.640951 0.740360 0.173791 0.110331
C16   C     C_R   0.917491 0.785562 0.212773 0.081476
C17   C     C_R   0.700984 0.666499 0.349097 -0.139426
H9    H     H_    0.570536 0.686636 0.339635 0.099715
C18   C     C_R   0.689541 0.630725 0.385204 -0.162251
H10   H     H_    0.550256 0.623759 0.401911 0.118795
C19   C     C_R   0.855837 0.604577 0.399680 -0.054337
C20   C     C_R   0.033659 0.615189 0.377046 -0.159344
H11   H     H_    0.164756 0.595557 0.386818 0.119884
C21   C     C_R   0.044933 0.650744 0.340859 -0.142770
H12   H     H_    0.183772 0.656815 0.323390 0.100631
C22   C     C_R   0.878886 0.676940 0.326348 0.095264
C23   C     C_R   0.888708 0.643768 0.660941 -0.063666
C24   C     C_R   0.920310 0.855733 0.839371 -0.071126
C25   C     C_R   0.698375 0.799832 0.752249 -0.190332
C26   C     C_R   0.749098 0.852647 0.804490 -0.156196
C27   C     C_R   0.042945 0.804811 0.819690 -0.234612
C28   C     C_R   0.991502 0.751022 0.767164 0.153215
C29   C     C_R   0.817237 0.748339 0.733306 0.159380
C30   C     C_R   0.765894 0.694614 0.680734 -0.237393
C31   C     C_R   0.059757 0.646746 0.695862 -0.132988
C32   C     C_R   0.110333 0.699503 0.748199 -0.182915
H13   H     H_    0.634914 0.693363 0.654156 0.120753
H14   H     H_    0.157376 0.608248 0.682024 0.124831
H15   H     H_    0.564839 0.799082 0.727051 0.120838
H16   H     H_    0.243823 0.700219 0.773404 0.129610
H17   H     H_    0.651511 0.891145 0.818256 0.126598
H18   H     H_    0.173968 0.806099 0.846263 0.125360
C33   C     C_R   0.337479 0.349291 0.342479 -0.111821
C34   C     C_R   0.475963 0.147065 0.159720 -0.069304
C35   C     C_R   0.650738 0.215597 0.252952 -0.181760
C36   C     C_R   0.643204 0.163105 0.198019 -0.168048
C37   C     C_R   0.315254 0.185567 0.177733 -0.220715
C38   C     C_R   0.323256 0.239688 0.232545 0.151893
C39   C     C_R   0.491936 0.255033 0.271161 0.112034
C40   C     C_R   0.497791 0.309143 0.326763 -0.112586
C41   C     C_R   0.172454 0.332656 0.302932 -0.150677
C42   C     C_R   0.165064 0.278755 0.249121 -0.194499
H19   H     H_    0.047549 0.361790 0.313533 0.137365
H20   H     H_    0.783337 0.225268 0.280634 0.140880
H21   H     H_    0.035037 0.267850 0.220040 0.121590
H22   H     H_    0.769334 0.134617 0.185687 0.130534
H23   H     H_    0.185453 0.174225 0.148491 0.121420
C43   C     C_R   0.277359 0.128698 0.889745 -0.160994
H24   H     H_    0.147161 0.120548 0.910464 0.121717
C44   C     C_R   0.266387 0.164292 0.853516 -0.141070
H25   H     H_    0.128505 0.183099 0.848185 0.101097
C45   C     C_R   0.431318 0.176221 0.825458 0.095947
C46   C     C_R   0.608050 0.151919 0.835314 -0.138107
H26   H     H_    0.737653 0.159039 0.813772 0.099307
C47   C     C_R   0.619381 0.116823 0.872075 -0.162134
H27   H     H_    0.757533 0.098557 0.878193 0.117458
C48   C     C_R   0.453975 0.104495 0.899557 -0.054660
C49   C     C_R   0.573351 0.253633 0.784979 -0.149628
H28   H     H_    0.703348 0.258460 0.813006 0.110395
C50   C     C_R   0.561281 0.288824 0.748359 -0.139381
H29   H     H_    0.684093 0.318407 0.748142 0.118344
C51   C     C_R   0.393964 0.285438 0.712065 0.094779
C52   C     C_R   0.239498 0.245532 0.713141 -0.141127
H30   H     H_    0.107570 0.242203 0.686366 0.117826
C53   C     C_R   0.251904 0.210070 0.749498 -0.149103
H31   H     H_    0.130822 0.179299 0.748313 0.108302
C54   C     C_R   0.418811 0.213703 0.786160 0.081070
C55   C     C_R   0.291902 0.298704 0.614742 -0.103461
H32   H     H_    0.236864 0.250818 0.596958 0.155940
C56   C     C_R   0.279120 0.333965 0.577775 -0.022807
C57   C     C_R   0.355608 0.396239 0.600530 -0.192785
C58   C     C_R   0.444287 0.421872 0.660169 -0.007079
C59   C     C_R   0.455925 0.385099 0.695621 -0.106379
H33   H     H_    0.520339 0.405071 0.741525 0.155666
C60   C     C_R   0.380394 0.323592 0.673557 0.000147
O11   O     O_R   0.309730 0.065160 0.075230 -0.536756
O12   O     O_R   0.633800 0.053970 0.954410 -0.543155
O13   O     O_R   0.797580 0.934860 0.924760 -0.538716
C61   C     C_R   0.464541 0.065936 0.937433 0.687218
O14   O     O_R   0.639820 0.072410 0.076610 -0.542507
O15   O     O_R   0.803650 0.953440 0.047830 -0.538727
C62   C     C_R   0.474314 0.091437 0.100570 0.701843
O16   O     O_R   0.303670 0.046590 0.952160 -0.540135
O17   O     O_3   0.468000 0.960960 0.990410 -0.365521
V3    V     V_3+5 0.745380 0.007240 0.001780 1.401157
O18   O     O_R   0.132940 0.946010 0.045600 -0.542104
C63   C     C_R   0.964324 0.934106 0.062580 0.695070
O19   O     O_R   0.126920 0.927560 0.923400 -0.539055
C64   C     C_R   0.953108 0.909575 0.899005 0.703908
V4    V     V_3+5 0.244590 0.992720 0.998240 1.404694
O20   O     O_3   0.972110 0.039040 0.009600 -0.369352
C65   C     C_1   0.663527 0.320950 0.368781 0.288948
N1    N     N_1   0.796069 0.329744 0.402142 -0.319009
C66   C     C_2   0.191613 0.304223 0.514687 0.412193
H34   H     H_    0.197236 0.327716 0.482929 0.052626
O21   O     O_2   0.112397 0.252524 0.497057 -0.519403
C67   C     C_2   0.520031 0.487698 0.687023 0.370287
H35   H     H_    0.494918 0.519294 0.663856 0.039869
O22   O     O_2   0.611291 0.507799 0.735929 -0.527691

loop_
_geom_bond_atom_site_label_1
_geom_bond_atom_site_label_2
_ccdc_geom_bond_type
C43   C48   A    
C31   C32   A    
C57   C58   A    
V3    O20   S    
C11   C12   A    
C19   C20   A    
C53   H31   S    
C37   H23   S    
C10   C63   S    
C1    O6    A    
O17   V3    S    
C18   C19   A    
C7    C16   S    
O11   C62   A    
C29   C30   A    
C28   C29   A    
C1    C33   S    
C52   H30   S    
C55   C60   A    
C5    C10   A    
O13   V3    S    
C66   O21   D    
C6    C7    A    
C17   H9    S    
C9    C10   A    
C3    C23   S    
O5    C3    A    
C25   C29   A    
C34   C62   S    
V2    O10   S    
O18   C63   A    
C15   H8    S    
O19   C64   A    
C56   C57   A    
O8    V2    S    
C24   C27   A    
C6    H2    S    
C38   C39   A    
C13   C22   S    
O1    V2    S    
O7    V1    S    
C49   C54   A    
C17   C22   A    
C61   O16   A    
C24   C26   A    
C52   C53   A    
O9    C4    A    
O12   C61   A    
O13   C64   A    
C58   C59   A    
C27   H18   S    
C20   C21   A    
C42   H21   S    
O4    V1    S    
C21   C22   A    
C24   C64   S    
O19   V4    S    
C47   C48   A    
C37   C38   A    
C34   C37   A    
C9    H4    S    
C44   C45   A    
C58   C67   S    
C18   H10   S    
O4    C2    A    
C43   H24   S    
C47   H27   S    
C45   C46   A    
C35   H20   S    
C32   H16   S    
C56   C66   S    
C14   C15   A    
O2    C1    A    
C67   O22   D    
C12   H6    S    
O16   V4    S    
C40   C65   S    
C50   C51   A    
C46   H26   S    
C33   C40   A    
C38   C42   A    
C36   H22   S    
C5    H1    S    
C43   C44   A    
C59   C60   A    
O12   V3    S    
O3    C4    A    
C23   C30   A    
C46   C47   A    
C49   C50   A    
C55   H32   S    
O6    V2    S    
C55   C56   A    
C4    C19   S    
C45   C54   S    
C8    C9    A    
C20   H11   S    
C67   H35   S    
O2    V1    S    
C11   H5    S    
C21   H12   S    
C23   C31   A    
O11   V4    S    
O1    C2    A    
C13   C14   A    
C8    H3    S    
C33   C41   A    
C44   H25   S    
O5    V1    S    
O8    C3    A    
C53   C54   A    
C48   C61   S    
C11   C16   A    
C25   H15   S    
O15   C63   A    
C14   H7    S    
O9    V2    S    
O7    V2    S    
C27   C28   A    
C12   C13   A    
O3    V1    S    
V1    O10   S    
C50   H29   S    
C35   C39   A    
C51   C52   A    
C5    C6    A    
C15   C16   A    
C35   C36   A    
C39   C40   A    
O14   C62   A    
O18   V4    S    
C51   C60   S    
C41   C42   A    
C49   H28   S    
C17   C18   A    
C25   C26   A    
C2    C57   S    
C31   H14   S    
C41   H19   S    
C59   H33   S    
C26   H17   S    
V4    O20   S    
O15   V3    S    
C65   N1    T    
C7    C8    A    
O14   V3    S    
O17   V4    S    
C28   C32   A    
C34   C36   A    
C66   H34   S    
C30   H13   S    
