data_mof_unit_23225.cif
_audit_creation_date              2012-12-10T19:47:16-0500
_audit_creation_method            fapswitch 2.2
_symmetry_space_group_name_H-M    P1
_symmetry_Int_Tables_number       1
_space_group_crystal_system       triclinic
_cell_length_a                    15.024326
_cell_length_b                    14.1312
_cell_length_c                    10.644086
_cell_angle_alpha                 90.000019
_cell_angle_beta                  89.014122
_cell_angle_gamma                 89.999988
_cell_volume                      2259.53004916

loop_
_atom_site_label
_atom_site_type_symbol
_atom_type_description
_atom_site_fract_x
_atom_site_fract_y
_atom_site_fract_z
_atom_type_partial_charge
C1    C     C_R   0.327742 0.499871 0.493976 0.956181
C2    C     C_R   0.672258 0.499871 0.506023 0.956183
C3    C     C_R   0.231685 0.500383 0.486674 -0.199168
C4    C     C_R   0.768315 0.500383 0.513326 -0.199168
C5    C     C_R   0.183502 0.425492 0.430939 0.367567
C6    C     C_R   0.816498 0.425491 0.569061 0.367570
C7    C     C_R   0.091198 0.427842 0.438412 -0.197153
C8    C     C_R   0.908802 0.427842 0.561588 -0.197155
C9    C     C_R   0.047783 0.504242 0.495355 0.049101
C10   C     C_R   0.952217 0.504242 0.504645 0.049100
C11   C     C_R   0.483615 0.104951 0.389695 -0.243124
C12   C     C_R   0.516385 0.104951 0.610305 -0.243125
C13   C     C_R   0.483633 0.204315 0.391861 0.117703
C14   C     C_R   0.516367 0.204315 0.608139 0.117703
C15   C     C_R   0.500000 0.053150 0.500000 0.129426
C16   C     C_R   0.555477 0.894680 0.580446 -0.261549
C17   C     C_R   0.444523 0.894680 0.419554 -0.261550
C18   C     C_R   0.554261 0.795340 0.579142 0.117484
C19   C     C_R   0.445739 0.795340 0.420858 0.117484
C20   C     C_R   0.500000 0.946462 0.500000 0.132816
C21   C     C_R   0.509897 0.500158 0.259670 0.936744
C22   C     C_R   0.490103 0.500158 0.740330 0.936744
C23   C     C_R   0.560455 0.672323 0.098822 0.466454
C24   C     C_R   0.439545 0.672322 0.901178 0.466462
C25   C     C_R   0.532186 0.757729 0.046263 -0.310781
C26   C     C_R   0.467813 0.757729 0.953739 -0.310762
C27   C     C_R   0.478072 0.586322 0.942776 -0.088293
C28   C     C_R   0.521928 0.586322 0.057224 -0.088288
C29   C     C_R   0.521039 0.500263 0.124955 -0.047802
C30   C     C_R   0.478961 0.500263 0.875044 -0.047803
C31   C     C_R   0.508391 0.414202 0.063001 -0.149983
C32   C     C_R   0.491609 0.414202 0.936999 -0.149982
C33   C     C_R   0.095122 0.580379 0.543123 -0.143417
C34   C     C_R   0.904878 0.580379 0.456877 -0.143416
C35   C     C_R   0.186715 0.578501 0.538612 -0.142539
C36   C     C_R   0.813285 0.578502 0.461389 -0.142540
H1    H     H_    0.510720 0.346945 0.111658 0.172605
H2    H     H_    0.489280 0.346945 0.888341 0.172605
H3    H     H_    0.600638 0.930328 0.642820 0.152367
H4    H     H_    0.399362 0.930328 0.357180 0.152367
H5    H     H_    0.597097 0.756246 0.641203 0.118999
H6    H     H_    0.402903 0.756246 0.358797 0.119000
H7    H     H_    0.559208 0.824408 0.078126 0.182066
H8    H     H_    0.440790 0.824408 0.921876 0.182069
H9    H     H_    0.061162 0.639996 0.586445 0.169611
H10   H     H_    0.938838 0.639996 0.413556 0.169611
H11   H     H_    0.222248 0.637602 0.578423 0.242363
H12   H     H_    0.777752 0.637602 0.421577 0.242364
H13   H     H_    0.052486 0.370840 0.398708 0.196346
H14   H     H_    0.947514 0.370839 0.601291 0.196346
H15   H     H_    0.472032 0.069299 0.301518 0.142901
H16   H     H_    0.527968 0.069299 0.698482 0.142901
H17   H     H_    0.470516 0.242724 0.306416 0.156904
H18   H     H_    0.529484 0.242724 0.693584 0.156904
N1    N     N_R   0.500000 0.252470 0.500000 -0.100659
N2    N     N_R   0.500000 0.747550 0.500000 -0.064670
O1    O     O_R   0.369060 0.579480 0.500010 -0.604158
O2    O     O_R   0.630940 0.579480 0.499990 -0.604159
O3    O     O_R   0.369050 0.420520 0.500010 -0.551716
O4    O     O_R   0.630950 0.420520 0.499990 -0.551715
O5    O     O_R   0.500000 0.579490 0.316770 -0.614856
O6    O     O_R   0.500000 0.579490 0.683230 -0.614855
O7    O     O_R   0.499990 0.420540 0.316770 -0.626693
O8    O     O_R   0.500010 0.420540 0.683230 -0.626693
Zn1   Zn    Zn3+2 0.500000 0.606140 0.500000 1.050077
Zn2   Zn    Zn3+2 0.500000 0.393860 0.500000 1.067040
S1    S     S_3+6 0.658783 0.675073 0.187751 0.013722
O9    O     O_2   0.641381 0.725919 0.309557 -0.340148
O10   O     O_2   0.692289 0.576953 0.213721 -0.309043
O11   O     O_3   0.737916 0.734023 0.105938 -0.514258
H19   H     H_    0.724869 0.801925 0.120184 0.359058
S2    S     S_3+6 0.341217 0.675072 0.812249 0.013718
O12   O     O_2   0.358620 0.725917 0.690443 -0.340156
O13   O     O_2   0.307710 0.576953 0.786281 -0.309043
O14   O     O_3   0.262085 0.734024 0.894062 -0.514267
H20   H     H_    0.275123 0.801925 0.879797 0.359066
S3    S     S_3+6 0.234039 0.331244 0.345477 0.045242
O15   O     O_2   0.270908 0.260588 0.436359 -0.251866
O16   O     O_2   0.167001 0.282300 0.264778 -0.266512
O17   O     O_3   0.317192 0.372325 0.252892 -0.553892
H21   H     H_    0.290046 0.423404 0.202627 0.346506
S4    S     S_3+6 0.765961 0.331243 0.654522 0.045241
O18   O     O_2   0.729092 0.260587 0.563640 -0.251866
O19   O     O_2   0.832999 0.282299 0.735222 -0.266514
O20   O     O_3   0.682808 0.372325 0.747108 -0.553895
H22   H     H_    0.709955 0.423401 0.797376 0.346508

loop_
_geom_bond_atom_site_label_1
_geom_bond_atom_site_label_2
_ccdc_geom_bond_type
C19   N2    A    
C4    C36   A    
C6    S4    S    
C33   H9    S    
C24   C27   A    
C35   H11   S    
C25   H7    S    
C26   H8    S    
S3    O15   D    
C28   C29   A    
C24   C26   A    
C1    O3    A    
O3    Zn2   S    
C2    O4    A    
N2    Zn1   S    
C17   C20   A    
C23   S1    S    
C17   C19   A    
C11   C15   A    
O11   H19   S    
C34   H10   S    
C32   H2    S    
C9    C10   S    
C21   O5    A    
C19   H6    S    
C18   N2    A    
C14   N1    A    
O7    Zn2   S    
O4    Zn2   S    
C27   C30   A    
C9    C33   A    
S2    O14   S    
C12   H16   S    
C13   H17   S    
S3    O16   D    
C15   C20   S    
S1    O9    D    
C7    H13   S    
C4    C6    A    
C18   H5    S    
C5    C7    A    
O17   H21   S    
C6    C8    A    
C25   C26   A    
O20   H22   S    
C21   C29   S    
C31   H1    S    
S1    O10   D    
C17   H4    S    
O8    Zn2   S    
C2    C4    S    
O14   H20   S    
C1    O1    A    
C22   O6    A    
O2    Zn1   S    
C31   C32   A    
C12   C15   A    
C3    C35   A    
C16   C20   A    
C10   C34   A    
C16   C18   A    
C23   C28   A    
S2    O13   D    
C14   H18   S    
C12   C14   A    
S4    O19   D    
C5    S3    S    
C8    H14   S    
N1    Zn2   S    
C24   S2    S    
S3    O17   S    
C7    C9    A    
C22   C30   S    
O6    Zn1   S    
O1    Zn1   S    
S2    O12   D    
C3    C5    A    
C2    O2    A    
S4    O20   S    
S1    O11   S    
C29   C31   A    
C30   C32   A    
C11   C13   A    
C33   C35   A    
C36   H12   S    
C34   C36   A    
C23   C25   A    
C21   O7    A    
C11   H15   S    
C16   H3    S    
C22   O8    A    
O5    Zn1   S    
C8    C10   A    
S4    O18   D    
C27   C28   A    
C1    C3    S    
C13   N1    A    
