data_mof_unit_30522.cif
_audit_creation_date              2012-10-26T21:21:37-0400
_audit_creation_method            fapswitch 2.2
_symmetry_space_group_name_H-M    P1
_symmetry_Int_Tables_number       1
_space_group_crystal_system       triclinic
_cell_length_a                    14.292702
_cell_length_b                    10.864869
_cell_length_c                    9.679573
_cell_angle_alpha                 91.267692
_cell_angle_beta                  87.855081
_cell_angle_gamma                 91.584168
_cell_volume                      1501.16286778

loop_
_atom_site_label
_atom_site_type_symbol
_atom_type_description
_atom_site_fract_x
_atom_site_fract_y
_atom_site_fract_z
_atom_type_partial_charge
C1    C     C_R   0.504841 0.263275 0.498049 0.539879
C2    C     C_R   0.467904 0.061094 0.392372 -0.095814
C3    C     C_R   0.464844 0.933758 0.396648 -0.085355
C4    C     C_R   0.331374 0.499613 0.502043 0.558721
C5    C     C_R   0.497741 0.873341 0.510945 -0.006165
C6    C     C_R   0.674762 0.522697 0.109781 0.188233
C7    C     C_R   0.744728 0.599978 0.046036 0.270423
C8    C     C_R   0.725604 0.656358 0.922711 -0.100392
C9    C     C_R   0.642609 0.628311 0.858214 -0.113197
C10   C     C_R   0.573131 0.553839 0.923040 0.086729
C11   C     C_R   0.580902 0.529929 0.066117 0.146324
C12   C     C_1   0.770939 0.497060 0.496572 0.000636
C13   C     C_R   0.423998 0.463962 0.079591 0.034617
C14   C     C_R   0.425330 0.453064 0.932996 0.346959
C15   C     C_R   0.498880 0.738007 0.502950 0.533198
C16   C     C_R   0.668582 0.499454 0.498264 0.529919
C17   C     C_1   0.228853 0.498414 0.505594 0.022335
C18   C     C_1   0.143266 0.497217 0.505684 0.019345
C19   C     C_1   0.042537 0.495940 0.503827 0.053305
C20   C     C_1   0.957037 0.495273 0.501529 0.051441
C21   C     C_1   0.856393 0.495477 0.498612 0.014196
C22   C     C_3   0.673543 0.294648 0.126265 -0.245018
C23   C     C_R   0.616617 0.134372 0.692400 -0.129167
C24   C     C_R   0.638728 0.083528 0.816673 -0.078695
C25   C     C_R   0.598494 0.970876 0.854880 0.284693
C26   C     C_R   0.549071 0.899693 0.757660 -0.102148
C27   C     C_R   0.534993 0.944603 0.623453 -0.017218
C28   C     C_R   0.556021 0.070445 0.602300 0.026608
C29   C     C_R   0.513271 0.129998 0.494552 0.005915
Cu1   Cu    Cu3+1 0.499990 0.499990 0.640660 1.020214
Cu2   Cu    Cu3+1 0.500010 0.500010 0.359340 1.008134
H1    H     H_    0.434686 0.105829 0.308852 0.176493
H2    H     H_    0.711441 0.879801 0.165493 0.390500
H3    H     H_    0.768454 0.417143 0.220705 0.298088
H4    H     H_    0.734909 0.244832 0.082252 0.162160
H5    H     H_    0.620595 0.299483 0.045679 0.145044
H6    H     H_    0.642977 0.241573 0.214242 0.207270
H7    H     H_    0.905039 0.710626 0.305412 0.373536
H8    H     H_    0.776978 0.716350 0.871414 0.186256
H9    H     H_    0.633275 0.669682 0.760344 0.169957
H10   H     H_    0.645294 0.225119 0.669089 0.133180
H11   H     H_    0.681917 0.135948 0.887023 0.138079
H12   H     H_    0.515760 0.816080 0.793748 0.182082
H13   H     H_    0.433402 0.882440 0.312227 0.189912
H14   H     H_    0.362528 0.435158 0.139753 0.178013
H15   H     H_    0.276975 0.259865 0.703087 0.355889
N1    N     N_R   0.500820 0.501210 0.147910 -0.256910
N2    N     N_R   0.500850 0.501290 0.852040 -0.258058
N3    N     N_2   0.704130 0.414971 0.176574 -0.495575
O1    O     O_R   0.499990 0.319640 0.618810 -0.441416
O2    O     O_2   0.255843 0.479558 0.830473 -0.270468
O3    O     O_3   0.340099 0.283709 0.735054 -0.489217
O4    O     O_2   0.566872 0.032697 0.117503 -0.328507
O5    O     O_2   0.543571 0.814576 0.056525 -0.310596
O6    O     O_3   0.714571 0.904583 0.067513 -0.507856
O7    O     O_2   0.909705 0.510173 0.116829 -0.275854
O8    O     O_2   0.911863 0.720329 0.031064 -0.243131
O9    O     O_3   0.841557 0.683565 0.277777 -0.543605
O10   O     O_R   0.500000 0.319660 0.381240 -0.510335
O11   O     O_R   0.376050 0.499990 0.618810 -0.396229
O12   O     O_R   0.376060 0.500010 0.381240 -0.508121
O13   O     O_R   0.500000 0.680340 0.618760 -0.537340
O14   O     O_R   0.500010 0.680360 0.381190 -0.459586
O15   O     O_R   0.623940 0.499990 0.618760 -0.530530
O16   O     O_R   0.623950 0.500010 0.381190 -0.441973
O17   O     O_2   0.272918 0.307164 0.982331 -0.287368
S1    S     S_3+6 0.321131 0.381009 0.869519 0.052205
S2    S     S_3+6 0.602944 0.928199 0.028756 -0.030884
S3    S     S_3+6 0.856382 0.627425 0.115635 0.016242

loop_
_geom_bond_atom_site_label_1
_geom_bond_atom_site_label_2
_ccdc_geom_bond_type
H2    O6    S    
C23   C24   A    
O9    S3    S    
C7    S3    S    
C6    C7    A    
C8    H8    S    
Cu1   O15   S    
C22   H5    S    
C9    C10   A    
Cu2   O12   S    
C11   N1    A    
C19   C20   T    
C23   H10   S    
C15   O14   A    
C14   S1    S    
C4    O11   A    
C1    C29   S    
C2    C3    A    
Cu1   O1    S    
C7    C8    A    
C6    N3    S    
O2    S1    D    
C13   C14   A    
C24   C25   A    
H15   O3    S    
C13   H14   S    
C22   H4    S    
O3    S1    S    
C5    C27   A    
C26   C27   A    
C25   S2    S    
C2    C29   A    
C22   N3    S    
C4    C17   S    
C4    O12   A    
Cu1   N2    S    
C28   C29   A    
Cu2   N1    S    
C15   O13   A    
C26   H12   S    
C17   C18   T    
C1    O10   A    
Cu1   O13   S    
C10   N2    A    
Cu1   Cu2   S    
C3    H13   S    
C5    C15   S    
O5    S2    D    
C10   C11   A    
H7    O9    S    
Cu2   O14   S    
C27   C28   A    
O17   S1    D    
C20   C21   S    
C24   H11   S    
C2    H1    S    
O7    S3    D    
C1    O1    A    
Cu2   O10   S    
C6    C11   A    
Cu2   O16   S    
O4    S2    D    
O6    S2    S    
C18   C19   S    
H3    N3    S    
C14   N2    A    
C16   O16   A    
C16   O15   A    
O8    S3    D    
C25   C26   A    
C23   C28   A    
C22   H6    S    
C13   N1    A    
C12   C21   T    
C9    H9    S    
C12   C16   S    
C8    C9    A    
C3    C5    A    
Cu1   O11   S    
