data_mof_unit_5823.cif
_audit_creation_date              2012-12-11T17:06:29-0500
_audit_creation_method            fapswitch 2.2
_symmetry_space_group_name_H-M    P1
_symmetry_Int_Tables_number       1
_space_group_crystal_system       triclinic
_cell_length_a                    6.96069
_cell_length_b                    14.511066
_cell_length_c                    15.969401
_cell_angle_alpha                 90.495439
_cell_angle_beta                  89.909417
_cell_angle_gamma                 89.936745
_cell_volume                      1612.95847093

loop_
_atom_site_label
_atom_site_type_symbol
_atom_type_description
_atom_site_fract_x
_atom_site_fract_y
_atom_site_fract_z
_atom_type_partial_charge
O1    O     O_R   0.494400 0.415450 0.412630 -0.536763
O2    O     O_R   0.823940 0.405730 0.586760 -0.521977
O3    O     O_R   0.994240 0.584550 0.587370 -0.542429
C1    C     C_R   0.655115 0.383742 0.615414 0.707243
O4    O     O_R   0.824110 0.404430 0.413240 -0.543688
O5    O     O_R   0.994420 0.583240 0.412620 -0.542503
C2    C     C_R   0.655500 0.382339 0.384154 0.687636
O6    O     O_R   0.494230 0.416760 0.587380 -0.532133
O7    O     O_3   0.660800 0.558670 0.500000 -0.376357
V1    V     V_3+5 0.935650 0.489120 0.500000 1.436237
O8    O     O_R   0.324140 0.594270 0.413240 -0.542046
C3    C     C_R   0.155136 0.615931 0.384117 0.683266
O9    O     O_R   0.323960 0.595570 0.586760 -0.543975
C4    C     C_R   0.154789 0.617748 0.615529 0.668935
V2    V     V_3+5 0.435660 0.510880 0.500000 1.416913
O10   O     O_3   0.160640 0.441330 0.500000 -0.345975
C5    C     C_3   0.955021 0.721289 0.726867 -0.111944
C6    C     C_3   0.047480 0.709541 0.814320 -0.145559
H1    H     H_    0.976780 0.678046 0.869450 0.096927
H2    H     H_    0.807829 0.698958 0.709340 0.107936
C7    C     C_3   0.122794 0.809038 0.810052 -0.004357
C8    C     C_3   0.030437 0.821597 0.723378 -0.144801
C9    C     C_3   0.218504 0.786949 0.681466 -0.145358
C10   C     C_3   0.310962 0.775209 0.768925 -0.111543
C11   C     C_3   0.235553 0.674906 0.772420 -0.146044
C12   C     C_3   0.143187 0.687440 0.685751 -0.003556
H3    H     H_    0.945595 0.882462 0.703628 0.095163
H4    H     H_    0.289177 0.818463 0.626337 0.097180
H5    H     H_    0.458149 0.797551 0.786450 0.109605
H6    H     H_    0.320471 0.614064 0.792156 0.093408
C13   C     C_R   0.272540 0.815386 0.239372 0.099365
C14   C     C_R   0.118376 0.815195 0.183003 -0.112515
C15   C     C_R   0.966928 0.753383 0.198812 -0.181393
H7    H     H_    0.844572 0.750774 0.157341 0.132441
C16   C     C_R   0.978078 0.689704 0.264817 -0.179249
H8    H     H_    0.863350 0.640276 0.272335 0.126259
C17   C     C_R   0.141342 0.685627 0.316871 -0.109239
C18   C     C_R   0.284015 0.752117 0.304442 0.099500
C19   C     C_3   0.494781 0.739733 0.292509 -0.409949
C20   C     C_3   0.482415 0.809048 0.221954 -0.397409
H9    H     H_    0.531216 0.668943 0.270588 0.165600
H10   H     H_    0.578562 0.765177 0.347193 0.173993
H11   H     H_    0.512502 0.778704 0.159135 0.169901
H12   H     H_    0.558286 0.874746 0.236007 0.167294
C21   C     C_R   0.489427 0.253132 0.688040 0.032536
C22   C     C_R   0.646552 0.312697 0.681197 -0.141817
C23   C     C_R   0.799165 0.300845 0.737767 -0.125025
H13   H     H_    0.921929 0.346187 0.735405 0.135276
C24   C     C_R   0.788693 0.234870 0.801736 -0.202361
H14   H     H_    0.904808 0.230512 0.846392 0.128933
C25   C     C_R   0.623901 0.179834 0.811819 -0.084912
C26   C     C_R   0.477452 0.188657 0.752473 0.006778
C27   C     C_3   0.268437 0.205363 0.766818 -0.493826
C28   C     C_3   0.281297 0.276753 0.697164 0.321665
H15   H     H_    0.241556 0.237073 0.829363 0.147364
H16   H     H_    0.181217 0.143006 0.753983 0.162585
H17   H     H_    0.262856 0.348329 0.721394 0.062231
C29   C     C_R   0.495898 0.317302 0.255282 0.096235
C30   C     C_R   0.647972 0.316588 0.312730 -0.111109
C31   C     C_R   0.798557 0.253670 0.297508 -0.181644
H18   H     H_    0.920551 0.251347 0.339144 0.135071
C32   C     C_R   0.787009 0.188684 0.231658 -0.176064
H19   H     H_    0.900847 0.138417 0.224588 0.126468
C33   C     C_R   0.624431 0.184624 0.179132 -0.110630
C34   C     C_R   0.484026 0.252762 0.190443 0.097972
C35   C     C_3   0.271987 0.243707 0.200172 -0.405887
C36   C     C_3   0.284691 0.314919 0.270315 -0.396454
H20   H     H_    0.230317 0.174129 0.222271 0.167938
H21   H     H_    0.192687 0.268744 0.144443 0.172149
H22   H     H_    0.248635 0.287115 0.332892 0.171346
H23   H     H_    0.214180 0.381383 0.254816 0.164200
O11   O     O_R   0.771650 0.079500 0.908680 -0.541359
O12   O     O_R   0.441690 0.091800 0.082800 -0.539735
O13   O     O_R   0.271460 0.912980 0.083410 -0.536481
C37   C     C_R   0.610582 0.113900 0.111925 0.692823
O14   O     O_R   0.441930 0.090510 0.909280 -0.537339
O15   O     O_R   0.271690 0.911670 0.908660 -0.539020
C38   C     C_R   0.611041 0.112876 0.880956 0.704466
O16   O     O_R   0.771410 0.080810 0.083440 -0.539846
O17   O     O_3   0.605100 0.937580 0.996050 -0.370463
V3    V     V_3+5 0.330220 0.007110 0.996030 1.393404
O18   O     O_R   0.941980 0.900620 0.909250 -0.541077
C39   C     C_R   0.111152 0.878577 0.880395 0.677439
O19   O     O_R   0.941740 0.901920 0.082770 -0.543799
C40   C     C_R   0.110490 0.880133 0.111772 0.691470
V4    V     V_3+5 0.830220 0.985300 0.996000 1.386096
O20   O     O_3   0.105210 0.054870 0.996020 -0.369172
O21   O     O_3   0.169731 0.262728 0.623285 -0.529622
C41   C     C_3   0.165146 0.170921 0.592601 0.144333
H24   H     H_    0.051601 0.131694 0.625796 0.116803
H25   H     H_    0.305201 0.134688 0.598608 0.104747
C42   C     C_3   0.113160 0.172434 0.500239 -0.721329
H26   H     H_    0.225328 0.210099 0.464910 0.212002
H27   H     H_    0.103412 0.100905 0.475342 0.163132
H28   H     H_    0.972467 0.207295 0.491642 0.219472

loop_
_geom_bond_atom_site_label_1
_geom_bond_atom_site_label_2
_ccdc_geom_bond_type
C35   H20   S    
C6    C7    S    
C16   H8    S    
C1    O6    A    
C19   H9    S    
C1    C22   S    
C21   C22   A    
C17   C18   A    
C5    C12   S    
C16   C17   A    
O14   C38   A    
O5    C3    A    
C18   C19   S    
C35   H21   S    
O15   C39   A    
V2    O10   S    
C5    H2    S    
C13   C20   S    
C31   C32   A    
C6    H1    S    
C9    C12   S    
C2    C30   S    
C3    C17   S    
C10   H5    S    
O17   V4    S    
O8    V2    S    
O19   C40   A    
C20   H11   S    
C23   H13   S    
C24   C25   A    
C32   C33   A    
C9    C10   S    
O1    V2    S    
C41   H25   S    
O7    V1    S    
C35   C36   S    
C30   C31   A    
C7    C8    S    
O12   C37   A    
C6    C11   S    
O12   V3    S    
C15   H7    S    
C19   H10   S    
C27   H15   S    
C25   C26   A    
C7    C39   S    
C10   C11   S    
C23   C24   A    
C19   C20   S    
O4    C2    A    
V4    O20   S    
C21   C26   A    
C29   C30   A    
O18   V4    S    
C42   H28   S    
C31   H18   S    
O2    C1    A    
C32   H19   S    
C29   C34   A    
C13   C14   A    
O15   V3    S    
C42   H27   S    
C5    C6    S    
C9    H4    S    
C4    C12   S    
C41   C42   S    
V3    O20   S    
O3    C4    A    
C21   C28   S    
O18   C39   A    
O6    V2    S    
C8    H3    S    
O9    V2    S    
O13   V3    S    
O2    V1    S    
C26   C27   S    
C27   H16   S    
C11   H6    S    
C22   C23   A    
O1    C2    A    
O19   V4    S    
O17   V3    S    
O14   V3    S    
O5    V1    S    
O11   V4    S    
O8    C3    A    
C27   C28   S    
C5    C8    S    
C13   C18   A    
C36   H22   S    
C14   C15   A    
C11   C12   S    
C25   C38   S    
O4    V1    S    
O3    V1    S    
V1    O10   S    
C33   C34   A    
C28   O21   S    
C14   C40   S    
C42   H26   S    
C15   C16   A    
C33   C37   S    
C36   H23   S    
C34   C35   S    
O13   C40   A    
O7    V2    S    
C29   C36   S    
C20   H12   S    
O21   C41   S    
C24   H14   S    
C7    C10   S    
O11   C38   A    
C8    C9    S    
C41   H24   S    
O9    C4    A    
C37   O16   A    
O16   V4    S    
C28   H17   S    
