data_mof_unit_32676.cif
_audit_creation_date              2012-12-10T16:49:26-0500
_audit_creation_method            fapswitch 2.2
_symmetry_space_group_name_H-M    P1
_symmetry_Int_Tables_number       1
_space_group_crystal_system       triclinic
_cell_length_a                    7.789321
_cell_length_b                    8.607477
_cell_length_c                    12.801274
_cell_angle_alpha                 89.675873
_cell_angle_beta                  87.263455
_cell_angle_gamma                 92.849695
_cell_volume                      856.212707944

loop_
_atom_site_label
_atom_site_type_symbol
_atom_type_description
_atom_site_fract_x
_atom_site_fract_y
_atom_site_fract_z
_atom_type_partial_charge
C1    C     C_R   0.455707 0.205912 0.497791 0.868270
C2    C     C_R   0.544292 0.794088 0.502212 0.868286
C3    C     C_R   0.464493 0.501427 0.699661 0.951479
C4    C     C_R   0.535506 0.498572 0.300338 0.951464
C5    C     C_R   0.558932 0.492591 0.189046 -0.311557
C6    C     C_R   0.441079 0.507433 0.810950 -0.311568
C7    C     C_R   0.338197 0.640918 0.964037 -0.189112
C8    C     C_R   0.661887 0.359171 0.035948 -0.189124
C9    C     C_R   0.334529 0.616471 0.857461 0.551944
C10   C     C_R   0.665531 0.383599 0.142530 0.551946
C11   C     C_R   0.543711 0.416552 0.870540 0.564011
C12   C     C_R   0.456307 0.583477 0.129454 0.564006
C13   C     C_R   0.551395 0.443026 0.976508 -0.123183
C14   C     C_R   0.448670 0.557045 0.023480 -0.123186
C15   C     C_2   0.431243 0.043841 0.504424 0.290051
C16   C     C_2   0.568758 0.956159 0.495584 0.290059
H1    H     H_    0.257692 0.727461 0.999235 0.226536
H2    H     H_    0.742419 0.272651 0.000748 0.226531
N1    N     N_2   0.054030 0.541640 0.471970 0.173822
N2    N     N_2   0.945970 0.458360 0.528030 0.173818
O1    O     O_R   0.609680 0.261530 0.506880 -0.617955
O2    O     O_R   0.390320 0.738470 0.493120 -0.617969
O3    O     O_R   0.323330 0.288220 0.488910 -0.596259
O4    O     O_R   0.676670 0.711780 0.511090 -0.596245
O5    O     O_R   0.619510 0.488830 0.661140 -0.599831
O6    O     O_R   0.380490 0.511170 0.338860 -0.599812
O7    O     O_R   0.333160 0.515520 0.643180 -0.536080
O8    O     O_R   0.666840 0.484480 0.356820 -0.536072
Zn1   Zn    Zn3+2 0.691200 0.482180 0.511990 1.108161
Zn2   Zn    Zn3+2 0.308800 0.517820 0.488010 1.108155
F1    F     F_    0.361385 0.695161 0.175276 -0.687875
F2    F     F_    0.638565 0.304807 0.824730 -0.687855
F3    F     F_    0.764671 0.294662 0.200745 -0.616781
F4    F     F_    0.235410 0.705428 0.799245 -0.616788
O9    O     O_3   0.988466 0.592830 0.383624 -0.519371
C17   C     C_3   0.054995 0.745748 0.365992 0.243003
H3    H     H_    0.194724 0.747524 0.345410 0.214061
H4    H     H_    0.030796 0.818748 0.436219 0.210031
C18   C     C_3   0.965427 0.815882 0.275180 -0.681978
H5    H     H_    0.824668 0.816550 0.293715 0.253247
H6    H     H_    0.016327 0.937281 0.260649 0.245496
H7    H     H_    0.988593 0.746660 0.203348 0.260027
O10   O     O_3   0.011534 0.407180 0.616380 -0.519393
C19   C     C_3   0.945027 0.254255 0.634009 0.242983
H8    H     H_    0.969246 0.181261 0.563782 0.210033
H9    H     H_    0.805296 0.252463 0.654586 0.214051
C20   C     C_3   0.034604 0.184131 0.724824 -0.681946
H10   H     H_    0.011469 0.253374 0.796649 0.259996
H11   H     H_    0.983685 0.062743 0.739373 0.245500
H12   H     H_    0.175358 0.183439 0.706280 0.253254
F5    F     F_    0.267550 0.985355 0.526647 -0.680140
F6    F     F_    0.732453 0.014644 0.473365 -0.680140

loop_
_geom_bond_atom_site_label_1
_geom_bond_atom_site_label_2
_ccdc_geom_bond_type
C2    O2    A    
C4    O6    A    
O10   C19   S    
C1    O1    A    
C8    C13   A    
C1    C15   S    
C15   F5    S    
C20   H12   S    
C2    C16   S    
C20   H10   S    
C19   C20   S    
C3    C6    S    
C6    C9    A    
C3    O7    A    
C5    C10   A    
C20   H11   S    
N1    O9    S    
C13   C14   A    
O7    Zn2   S    
O5    Zn1   S    
C11   C13   A    
C17   H4    S    
C17   H3    S    
C4    O8    A    
C19   H9    S    
C11   F2    S    
O6    Zn2   S    
C18   H7    S    
N2    Zn1   S    
C6    C11   A    
C12   F1    S    
C2    O4    A    
C9    F4    S    
C8    C10   A    
C15   C16   D    
O3    Zn2   S    
C16   F6    S    
C3    O5    A    
N2    O10   S    
C19   H8    S    
C5    C12   A    
C18   H6    S    
C10   F3    S    
C18   H5    S    
C7    C9    A    
O4    Zn1   S    
O8    Zn1   S    
C1    O3    A    
O2    Zn2   S    
N1    Zn2   S    
O1    Zn1   S    
C17   C18   S    
C7    C14   A    
C8    H2    S    
N1    N2    D    
C12   C14   A    
C4    C5    S    
C7    H1    S    
O9    C17   S    
