data_mof_unit_66522.cif
_audit_creation_date              2012-12-10T20:56:41-0500
_audit_creation_method            fapswitch 2.2
_symmetry_space_group_name_H-M    P1
_symmetry_Int_Tables_number       1
_space_group_crystal_system       triclinic
_cell_length_a                    26.397988
_cell_length_b                    33.011322
_cell_length_c                    21.131416
_cell_angle_alpha                 89.999962
_cell_angle_beta                  128.607067
_cell_angle_gamma                 90.000014
_cell_volume                      14389.9715556

loop_
_atom_site_label
_atom_site_type_symbol
_atom_type_description
_atom_site_fract_x
_atom_site_fract_y
_atom_site_fract_z
_atom_type_partial_charge
C1    C     C_R   0.500000 0.145572 0.500000 0.817329
C2    C     C_R   0.500000 0.854427 0.500000 0.824806
C3    C     C_R   0.000000 0.645572 0.500000 0.817331
C4    C     C_R   1.000000 0.354427 0.500000 0.824805
C5    C     C_1   0.500000 0.481276 0.500000 -0.007009
C6    C     C_1   0.500000 0.518745 0.500000 -0.006599
C7    C     C_1   1.000000 0.981275 0.500000 -0.007009
C8    C     C_1   1.000000 0.018745 0.500000 -0.006598
C9    C     C_R   0.384461 0.376483 0.548298 -0.210443
C10   C     C_R   0.629432 0.619047 0.470064 -0.233532
C11   C     C_R   0.615563 0.376488 0.451761 -0.210471
C12   C     C_R   0.370567 0.619048 0.529930 -0.233536
C13   C     C_R   0.884454 0.876484 0.548277 -0.210465
C14   C     C_R   0.129428 0.119048 0.470054 -0.233521
C15   C     C_R   0.115543 0.876483 0.451714 -0.210459
C16   C     C_R   0.870557 0.119046 0.529918 -0.233514
C17   C     C_R   0.359581 0.340922 0.555835 0.500310
C18   C     C_R   0.648898 0.655649 0.456397 0.534035
C19   C     C_R   0.640433 0.340929 0.444201 0.500371
C20   C     C_R   0.351104 0.655650 0.543599 0.534038
C21   C     C_R   0.859578 0.840924 0.555823 0.500347
C22   C     C_R   0.148899 0.155648 0.456389 0.534026
C23   C     C_R   0.140421 0.840923 0.444172 0.500334
C24   C     C_R   0.851092 0.155646 0.543590 0.534035
C25   C     C_R   0.298537 0.326143 0.488287 0.086751
C26   C     C_R   0.706712 0.674398 0.521687 0.120502
C27   C     C_R   0.701476 0.326143 0.511738 0.086767
C28   C     C_R   0.293287 0.674397 0.478312 0.120506
C29   C     C_R   0.798533 0.826143 0.488280 0.086759
C30   C     C_R   0.206710 0.174398 0.521684 0.120497
C31   C     C_R   0.201465 0.826143 0.511716 0.086757
C32   C     C_R   0.793282 0.174398 0.478301 0.120498
C33   C     C_R   0.262677 0.348157 0.415508 -0.107253
C34   C     C_R   0.742709 0.657347 0.599455 -0.139178
C35   C     C_R   0.737346 0.348149 0.584527 -0.107250
C36   C     C_R   0.257286 0.657346 0.400544 -0.139183
C37   C     C_R   0.762668 0.848155 0.415498 -0.107248
C38   C     C_R   0.242698 0.157351 0.599455 -0.139168
C39   C     C_R   0.237328 0.848156 0.584497 -0.107248
C40   C     C_R   0.757287 0.157353 0.400529 -0.139173
C41   C     C_R   0.287345 0.384107 0.409492 -0.128050
C42   C     C_R   0.722002 0.621639 0.612368 -0.119282
C43   C     C_R   0.712688 0.384097 0.590565 -0.128059
C44   C     C_R   0.277991 0.621638 0.387629 -0.119286
C45   C     C_R   0.787331 0.884105 0.409474 -0.128054
C46   C     C_R   0.221985 0.121644 0.612364 -0.119276
C47   C     C_R   0.212663 0.884106 0.590518 -0.128052
C48   C     C_R   0.777993 0.121645 0.387611 -0.119282
C49   C     C_R   0.348212 0.398178 0.475684 -0.170541
C50   C     C_R   0.665518 0.602493 0.547766 -0.153635
C51   C     C_R   0.651821 0.398175 0.524385 -0.170536
C52   C     C_R   0.334477 0.602492 0.452228 -0.153630
C53   C     C_R   0.848200 0.898177 0.475660 -0.170540
C54   C     C_R   0.165505 0.102496 0.547757 -0.153637
C55   C     C_R   0.151795 0.898177 0.524330 -0.170541
C56   C     C_R   0.834473 0.102495 0.452212 -0.153636
C57   C     C_R   0.219320 0.286863 0.491635 0.304517
C58   C     C_R   0.781178 0.713204 0.509315 0.334154
C59   C     C_R   0.780684 0.286862 0.508374 0.304497
C60   C     C_R   0.218822 0.713204 0.490687 0.334146
C61   C     C_R   0.719319 0.786863 0.491633 0.304496
C62   C     C_R   0.281178 0.213204 0.509315 0.334174
C63   C     C_R   0.280680 0.786863 0.508366 0.304497
C64   C     C_R   0.718818 0.213204 0.490679 0.334165
C65   C     C_R   0.196930 0.250092 0.500281 -0.195190
C66   C     C_R   0.803476 0.749940 0.500444 -0.194114
C67   C     C_R   0.803070 0.250092 0.499719 -0.195173
C68   C     C_R   0.196524 0.749940 0.499556 -0.194110
C69   C     C_R   0.696930 0.750092 0.500281 -0.195164
C70   C     C_R   0.303476 0.249940 0.500444 -0.194117
C71   C     C_R   0.303070 0.750092 0.499719 -0.195157
C72   C     C_R   0.696524 0.249940 0.499555 -0.194120
C73   C     C_R   0.228576 0.213247 0.510341 -0.085835
C74   C     C_R   0.772884 0.786935 0.492354 -0.114935
C75   C     C_R   0.771421 0.213248 0.489653 -0.085827
C76   C     C_R   0.227116 0.786935 0.507645 -0.114925
C77   C     C_R   0.728576 0.713247 0.510340 -0.085824
C78   C     C_R   0.272885 0.286935 0.492355 -0.114908
C79   C     C_R   0.271424 0.713247 0.489660 -0.085823
C80   C     C_R   0.727120 0.286935 0.507653 -0.114945
C81   C     C_R   0.500000 0.354446 0.500000 0.816639
C82   C     C_R   0.500000 0.645560 0.500000 0.785072
C83   C     C_R   0.000000 0.854446 0.500000 0.816639
C84   C     C_R   0.000000 0.145560 0.500000 0.785094
C85   C     C_1   0.500000 0.100503 0.500000 -0.124697
C86   C     C_1   0.500000 0.899496 0.500000 -0.130280
C87   C     C_1   1.000000 0.600503 0.500000 -0.124698
C88   C     C_1   1.000000 0.399496 0.500000 -0.130282
C89   C     C_1   0.500000 0.063035 0.500000 0.018360
C90   C     C_1   0.500000 0.936963 0.500000 0.017522
C91   C     C_1   1.000000 0.563035 0.500000 0.018359
C92   C     C_1   1.000000 0.436963 0.500000 0.017521
C93   C     C_1   0.500000 0.018732 0.500000 0.025528
C94   C     C_1   0.500000 0.981266 0.500000 0.025006
C95   C     C_1   1.000000 0.518733 0.500000 0.025527
C96   C     C_1   0.000000 0.481266 0.500000 0.025005
C97   C     C_R   0.641420 0.249621 0.500645 0.961866
C98   C     C_R   0.358590 0.750294 0.499407 0.908751
C99   C     C_R   0.358579 0.249621 0.499354 0.961860
C100  C     C_R   0.641410 0.750294 0.500593 0.908739
C101  C     C_R   0.141421 0.749621 0.500645 0.961873
C102  C     C_R   0.858590 0.250294 0.499407 0.908712
C103  C     C_R   0.858579 0.749621 0.499355 0.961873
C104  C     C_R   0.141410 0.250294 0.500593 0.908711
C105  C     C_R   0.395598 0.250033 0.291118 0.810072
C106  C     C_R   0.604503 0.750056 0.708869 0.797350
C107  C     C_R   0.604402 0.250033 0.708882 0.810067
C108  C     C_R   0.395497 0.750056 0.291131 0.797351
C109  C     C_R   0.895598 0.750033 0.291118 0.810070
C110  C     C_R   0.104503 0.250056 0.708869 0.797351
C111  C     C_R   0.104402 0.750033 0.708882 0.810071
C112  C     C_R   0.895497 0.250056 0.291131 0.797347
C113  C     C_1   0.649373 0.250087 0.799026 -0.155767
C114  C     C_1   0.350183 0.750284 0.201007 -0.167564
C115  C     C_1   0.350627 0.250087 0.200974 -0.155762
C116  C     C_1   0.649817 0.750284 0.798993 -0.167568
C117  C     C_1   0.149373 0.750087 0.799026 -0.155763
C118  C     C_1   0.850183 0.250284 0.201007 -0.167544
C119  C     C_1   0.850627 0.750087 0.200974 -0.155765
C120  C     C_1   0.149817 0.250284 0.798993 -0.167555
C121  C     C_1   0.686758 0.250145 0.873954 -0.001560
C122  C     C_1   0.312654 0.750323 0.126084 -0.005843
C123  C     C_1   0.313242 0.250145 0.126046 -0.001554
C124  C     C_1   0.687346 0.750323 0.873916 -0.005845
C125  C     C_1   0.186758 0.750145 0.873954 -0.001556
C126  C     C_1   0.812654 0.250323 0.126084 -0.005844
C127  C     C_1   0.813242 0.750145 0.126046 -0.001557
C128  C     C_1   0.187346 0.250323 0.873916 -0.005839
C129  C     C_1   0.730980 0.250216 0.962562 0.009887
C130  C     C_1   0.268387 0.750274 0.037487 0.011714
C131  C     C_1   0.269020 0.250216 0.037438 0.009890
C132  C     C_1   0.731613 0.750274 0.962513 0.011715
C133  C     C_1   0.230980 0.750216 0.962562 0.009889
C134  C     C_1   0.768387 0.250274 0.037487 0.011707
C135  C     C_1   0.769020 0.750216 0.037438 0.009889
C136  C     C_1   0.231613 0.250274 0.962513 0.011711
C137  C     C_1   0.500000 0.399508 0.500000 -0.177838
C138  C     C_1   0.500000 0.600509 0.500000 -0.171067
C139  C     C_1   1.000000 0.899508 0.500000 -0.177835
C140  C     C_1   1.000000 0.100509 0.500000 -0.171068
C141  C     C_1   0.500000 0.436973 0.500000 -0.039521
C142  C     C_1   0.500000 0.563047 0.500000 -0.036431
C143  C     C_1   1.000000 0.936973 0.500000 -0.039520
C144  C     C_1   1.000000 0.063047 0.500000 -0.036439
H1    H     H_    0.367524 0.425784 0.470539 0.157673
H2    H     H_    0.649833 0.574632 0.557797 0.155058
H3    H     H_    0.632516 0.425779 0.529547 0.157672
H4    H     H_    0.350159 0.574631 0.442196 0.155057
H5    H     H_    0.867508 0.925783 0.470507 0.157673
H6    H     H_    0.149816 0.074637 0.557786 0.155059
H7    H     H_    0.132485 0.925783 0.529479 0.157674
H8    H     H_    0.850157 0.074636 0.442177 0.155058
H9    H     H_    0.432039 0.387285 0.598900 0.141363
H10   H     H_    0.586535 0.603239 0.420771 0.136736
H11   H     H_    0.567985 0.387295 0.401169 0.141374
H12   H     H_    0.413466 0.603239 0.579221 0.136734
H13   H     H_    0.932033 0.887288 0.598873 0.141372
H14   H     H_    0.086534 0.103239 0.420756 0.136736
H15   H     H_    0.067964 0.887286 0.401116 0.141369
H16   H     H_    0.913452 0.103235 0.579210 0.136736
H17   H     H_    0.215936 0.337180 0.363219 0.164560
H18   H     H_    0.786603 0.671953 0.650134 0.151983
H19   H     H_    0.784086 0.337166 0.636808 0.164562
H20   H     H_    0.213390 0.671952 0.349867 0.151986
H21   H     H_    0.715926 0.837176 0.363213 0.164564
H22   H     H_    0.286589 0.171958 0.650137 0.151975
H23   H     H_    0.284070 0.837178 0.636784 0.164564
H24   H     H_    0.713396 0.171961 0.349851 0.151980
H25   H     H_    0.259515 0.400866 0.353163 0.147647
H26   H     H_    0.749891 0.608732 0.672518 0.145144
H27   H     H_    0.740525 0.400849 0.646901 0.147648
H28   H     H_    0.250099 0.608730 0.327480 0.145146
H29   H     H_    0.759497 0.900861 0.353143 0.147649
H30   H     H_    0.249867 0.108739 0.672515 0.145141
H31   H     H_    0.240496 0.900863 0.646848 0.147648
H32   H     H_    0.750105 0.108741 0.327459 0.145144
O1    O     O_3   0.500000 0.250010 0.500000 -0.462827
O2    O     O_3   0.500000 0.749990 0.500000 -0.454210
O3    O     O_3   1.000000 0.750010 0.500000 -0.462827
O4    O     O_3   1.000000 0.249990 0.500000 -0.454206
O5    O     O_R   0.491650 0.166000 0.544070 -0.610677
O6    O     O_R   0.508350 0.834000 0.455930 -0.604114
O7    O     O_R   0.508350 0.166000 0.455930 -0.610676
O8    O     O_R   0.491650 0.834000 0.544070 -0.604113
O9    O     O_R   0.991650 0.666000 0.544070 -0.610678
O10   O     O_R   0.008350 0.334000 0.455930 -0.604114
O11   O     O_R   0.008350 0.666000 0.455930 -0.610678
O12   O     O_R   0.991650 0.334000 0.544070 -0.604112
O13   O     O_R   0.552380 0.334020 0.544040 -0.622778
O14   O     O_R   0.447620 0.665980 0.455960 -0.629477
O15   O     O_R   0.447620 0.334020 0.455960 -0.622778
O16   O     O_R   0.552380 0.665980 0.544040 -0.629478
O17   O     O_R   0.052380 0.834020 0.544040 -0.622778
O18   O     O_R   0.947620 0.165980 0.455960 -0.629476
O19   O     O_R   0.947620 0.834020 0.455960 -0.622778
O20   O     O_R   0.052380 0.165980 0.544040 -0.629475
O21   O     O_R   0.593780 0.227990 0.455960 -0.584404
O22   O     O_R   0.406220 0.772010 0.544040 -0.588799
O23   O     O_R   0.406220 0.227990 0.544040 -0.584401
O24   O     O_R   0.593780 0.772010 0.455960 -0.588800
O25   O     O_R   0.093780 0.727990 0.455960 -0.584403
O26   O     O_R   0.906220 0.272010 0.544040 -0.588800
O27   O     O_R   0.906220 0.727990 0.544040 -0.584403
O28   O     O_R   0.093780 0.272010 0.455960 -0.588806
O29   O     O_R   0.362170 0.272040 0.455960 -0.658633
O30   O     O_R   0.637830 0.727960 0.544040 -0.665760
O31   O     O_R   0.637830 0.272040 0.544040 -0.658630
O32   O     O_R   0.362170 0.727960 0.455960 -0.665763
O33   O     O_R   0.862170 0.772040 0.455960 -0.658630
O34   O     O_R   0.137830 0.227960 0.544040 -0.665752
O35   O     O_R   0.137830 0.772040 0.544040 -0.658632
O36   O     O_R   0.862170 0.227960 0.455960 -0.665758
O37   O     O_R   0.446360 0.228000 0.332000 -0.617842
O38   O     O_R   0.553640 0.772000 0.668000 -0.626968
O39   O     O_R   0.553640 0.228000 0.668000 -0.617841
O40   O     O_R   0.446360 0.772000 0.332000 -0.626966
O41   O     O_R   0.946360 0.728000 0.332000 -0.617842
O42   O     O_R   0.053640 0.272000 0.668000 -0.626962
O43   O     O_R   0.053640 0.728000 0.668000 -0.617842
O44   O     O_R   0.946360 0.272000 0.332000 -0.626963
O45   O     O_R   0.385640 0.272040 0.331990 -0.629682
O46   O     O_R   0.614360 0.727960 0.668010 -0.625374
O47   O     O_R   0.614360 0.272040 0.668010 -0.629684
O48   O     O_R   0.385640 0.727960 0.331990 -0.625377
O49   O     O_R   0.885640 0.772040 0.331990 -0.629683
O50   O     O_R   0.114360 0.227960 0.668010 -0.625383
O51   O     O_R   0.114360 0.772040 0.668010 -0.629682
O52   O     O_R   0.885640 0.227960 0.331990 -0.625388
Zn1   Zn    Zn3+2 0.574840 0.281480 0.562930 1.002397
Zn2   Zn    Zn3+2 0.425160 0.718520 0.437070 0.965522
Zn3   Zn    Zn3+2 0.425160 0.281480 0.437070 1.002396
Zn4   Zn    Zn3+2 0.574840 0.718520 0.562930 0.965521
Zn5   Zn    Zn3+2 0.074840 0.781480 0.562930 1.002398
Zn6   Zn    Zn3+2 0.925160 0.218520 0.437070 0.965519
Zn7   Zn    Zn3+2 0.925160 0.781480 0.437070 1.002399
Zn8   Zn    Zn3+2 0.074840 0.218520 0.562930 0.965522
Zn9   Zn    Zn3+2 0.511910 0.218550 0.437070 1.049351
Zn10  Zn    Zn3+2 0.488090 0.781450 0.562930 1.026535
Zn11  Zn    Zn3+2 0.488090 0.218550 0.562930 1.049349
Zn12  Zn    Zn3+2 0.511910 0.781450 0.437070 1.026533
Zn13  Zn    Zn3+2 0.011910 0.718550 0.437070 1.049349
Zn14  Zn    Zn3+2 0.988090 0.281450 0.562930 1.026533
Zn15  Zn    Zn3+2 0.988090 0.718550 0.562930 1.049351
Zn16  Zn    Zn3+2 0.011910 0.281450 0.437070 1.026529
O53   O     O_3   0.397698 0.319028 0.627144 -0.677430
C145  C     C_3   0.377812 0.326622 0.674639 0.069095
H33   H     H_    0.385718 0.298366 0.708303 0.175131
H34   H     H_    0.325248 0.334045 0.638365 0.167724
C146  C     C_3   0.418937 0.360442 0.735806 -0.360735
H35   H     H_    0.471142 0.352557 0.772212 0.235284
H36   H     H_    0.410228 0.389211 0.703106 0.220781
C147  C     C_3   0.402344 0.366748 0.792546 -0.918847
H37   H     H_    0.350523 0.375270 0.757413 0.274304
H38   H     H_    0.432756 0.391483 0.835912 0.266523
H39   H     H_    0.411911 0.338629 0.827330 0.262423
O54   O     O_3   0.615833 0.671793 0.379268 -0.648560
C148  C     C_3   0.549302 0.678000 0.341036 0.071468
H40   H     H_    0.537990 0.710230 0.321795 0.172909
H41   H     H_    0.535658 0.673045 0.380982 0.093507
C149  C     C_3   0.508003 0.651216 0.265601 -0.334870
H42   H     H_    0.521135 0.657135 0.225660 0.245334
H43   H     H_    0.517693 0.618797 0.283341 0.215769
C150  C     C_3   0.435882 0.659516 0.218345 -0.945170
H44   H     H_    0.421737 0.654987 0.257560 0.264208
H45   H     H_    0.407261 0.638468 0.166057 0.271759
H46   H     H_    0.424553 0.691030 0.195014 0.266138
O55   O     O_3   0.602303 0.319042 0.372883 -0.677440
C151  C     C_3   0.622184 0.326637 0.325383 0.069078
H47   H     H_    0.614170 0.298403 0.291610 0.175161
H48   H     H_    0.674771 0.333991 0.361664 0.167719
C152  C     C_3   0.581162 0.360524 0.264342 -0.360826
H49   H     H_    0.528931 0.352715 0.227952 0.235280
H50   H     H_    0.590002 0.389276 0.297148 0.220798
C153  C     C_3   0.597724 0.366819 0.207568 -0.918782
H51   H     H_    0.649578 0.375254 0.242689 0.274307
H52   H     H_    0.567403 0.391610 0.164311 0.266524
H53   H     H_    0.588012 0.338723 0.172663 0.262411
O56   O     O_3   0.384173 0.671795 0.620728 -0.648565
C154  C     C_3   0.450705 0.677997 0.658959 0.071472
H54   H     H_    0.462024 0.710225 0.678203 0.172901
H55   H     H_    0.464346 0.673039 0.619011 0.093512
C155  C     C_3   0.491999 0.651211 0.734391 -0.334875
H56   H     H_    0.478876 0.657136 0.774340 0.245328
H57   H     H_    0.482295 0.618792 0.716649 0.215779
C156  C     C_3   0.564122 0.659499 0.781638 -0.945174
H58   H     H_    0.578259 0.654963 0.742416 0.264211
H59   H     H_    0.592739 0.638449 0.833925 0.271759
H60   H     H_    0.575465 0.691012 0.804971 0.266135
O57   O     O_3   0.897703 0.819031 0.627133 -0.677437
C157  C     C_3   0.877821 0.826621 0.674634 0.069079
H61   H     H_    0.885795 0.798377 0.708362 0.175151
H62   H     H_    0.825243 0.834000 0.638358 0.167719
C158  C     C_3   0.918880 0.860481 0.735725 -0.360798
H63   H     H_    0.971101 0.852646 0.772114 0.235287
H64   H     H_    0.910084 0.889241 0.702962 0.220793
C159  C     C_3   0.902312 0.866774 0.792493 -0.918805
H65   H     H_    0.850471 0.875239 0.757375 0.274305
H66   H     H_    0.932666 0.891544 0.835793 0.266523
H67   H     H_    0.911976 0.838667 0.827351 0.262416
O58   O     O_3   0.115844 0.171786 0.379258 -0.648548
C160  C     C_3   0.049315 0.178008 0.341021 0.071450
H68   H     H_    0.038021 0.210238 0.321785 0.172938
H69   H     H_    0.035664 0.173059 0.380960 0.093482
C161  C     C_3   0.008005 0.151227 0.265581 -0.334846
H70   H     H_    0.021168 0.157122 0.225665 0.245356
H71   H     H_    0.017655 0.118808 0.283323 0.215732
C162  C     C_3   0.935888 0.159562 0.218285 -0.945150
H72   H     H_    0.921713 0.155062 0.257476 0.264192
H73   H     H_    0.907258 0.138512 0.166001 0.271753
H74   H     H_    0.924598 0.191074 0.194943 0.266149
O59   O     O_3   0.102298 0.819029 0.372862 -0.677435
C163  C     C_3   0.122182 0.826620 0.325364 0.069083
H75   H     H_    0.114229 0.798372 0.291656 0.175144
H76   H     H_    0.174755 0.834013 0.361639 0.167721
C164  C     C_3   0.081102 0.860467 0.264248 -0.360779
H77   H     H_    0.028886 0.852616 0.227853 0.235287
H78   H     H_    0.089870 0.889230 0.296990 0.220790
C165  C     C_3   0.097678 0.866765 0.207489 -0.918819
H79   H     H_    0.149513 0.875247 0.242612 0.274305
H80   H     H_    0.067306 0.891523 0.164168 0.266523
H81   H     H_    0.088045 0.838654 0.172655 0.262418
O60   O     O_3   0.884155 0.171784 0.620722 -0.648554
C166  C     C_3   0.950684 0.178000 0.658952 0.071457
H82   H     H_    0.961986 0.210229 0.678193 0.172920
H83   H     H_    0.964327 0.173050 0.619005 0.093499
C167  C     C_3   0.991993 0.151216 0.734386 -0.334864
H84   H     H_    0.978849 0.157120 0.774320 0.245346
H85   H     H_    0.982323 0.118796 0.716642 0.215750
C168  C     C_3   0.064111 0.159535 0.781655 -0.945163
H86   H     H_    0.078266 0.155022 0.742448 0.264202
H87   H     H_    0.092740 0.138485 0.833941 0.271757
H88   H     H_    0.075419 0.191047 0.804993 0.266140
Cl1   Cl    Cl    0.184279 0.333723 0.487329 -0.631192
Cl2   Cl    Cl    0.816075 0.666233 0.513957 -0.592141
Cl3   Cl    Cl    0.815730 0.333722 0.512689 -0.631177
Cl4   Cl    Cl    0.183926 0.666233 0.486046 -0.592144
Cl5   Cl    Cl    0.684278 0.833723 0.487328 -0.631183
Cl6   Cl    Cl    0.316076 0.166233 0.513960 -0.592128
Cl7   Cl    Cl    0.315721 0.833723 0.512671 -0.631185
Cl8   Cl    Cl    0.683917 0.166233 0.486027 -0.592132

loop_
_geom_bond_atom_site_label_1
_geom_bond_atom_site_label_2
_ccdc_geom_bond_type
C60   C79   A    
C112  O52   A    
C87   C91   T    
C157  C158  S    
C34   C42   A    
O3    Zn5   S    
C10   H10   S    
C32   C75   S    
C160  H68   S    
C155  H56   S    
C14   H14   S    
C104  O28   A    
O1    Zn9   S    
C5    C6    T    
C108  O48   A    
C63   C76   A    
C152  H49   S    
C62   C70   A    
C38   H22   S    
C153  H51   S    
C4    O10   A    
C24   C32   A    
C107  C113  S    
C42   H26   S    
O21   Zn9   S    
C161  C162  S    
C46   H30   S    
C167  H84   S    
C82   O16   A    
O4    Zn6   S    
O53   C145  S    
C98   O32   A    
O18   Zn6   S    
C57   C78   A    
O4    Zn8   S    
C41   C49   A    
O51   Zn5   S    
C146  H36   S    
C58   Cl2   S    
C166  H82   S    
C68   C101  S    
C86   C90   T    
C57   C65   A    
C1    O5    A    
O31   Zn1   S    
C20   C28   A    
C27   C35   A    
C21   C29   A    
C35   H19   S    
O14   Zn2   S    
C23   C31   A    
C33   H17   S    
C44   H28   S    
O2    Zn4   S    
C45   H29   S    
C12   C20   A    
C167  C168  S    
C13   C21   A    
C81   O13   A    
O3    Zn7   S    
C159  H65   S    
C63   C71   A    
C27   C80   S    
C36   C44   A    
O39   Zn11  S    
C37   C45   A    
C32   C40   A    
O58   C160  S    
C39   C47   A    
C160  C161  S    
C40   C48   A    
C100  O30   A    
C165  H81   S    
C66   C103  S    
O8    Zn10  S    
C3    O11   A    
C59   C80   A    
O36   Zn6   S    
C55   H7    S    
C61   C74   A    
C17   C25   A    
C4    O12   A    
C62   Cl6   S    
C33   C41   A    
C156  H59   S    
C101  O25   A    
C31   C76   S    
C10   C18   A    
C154  H55   S    
C83   O19   A    
C69   C100  S    
C57   Cl1   S    
C107  O39   A    
C126  C134  S    
O15   Zn3   S    
C148  H41   S    
O3    Zn15  S    
C63   Cl7   S    
C147  H37   S    
C16   H16   S    
C69   C77   A    
C104  O34   A    
C43   C51   A    
C71   C79   A    
C1    O7    A    
C7    C8    T    
C54   H6    S    
C30   C38   A    
C146  H35   S    
C99   O29   A    
O38   Zn10  S    
C20   O56   S    
O2    Zn2   S    
O26   Zn14  S    
C92   C96   S    
O50   Zn8   S    
C163  H75   S    
C124  C132  S    
C148  H40   S    
C81   O15   A    
C165  H80   S    
C58   C77   A    
C59   C67   A    
C139  C143  T    
C159  H67   S    
C84   O18   A    
C62   C73   A    
C35   C43   A    
C11   H11   S    
O1    Zn11  S    
C44   C52   A    
C161  H71   S    
C9    H9    S    
C52   H4    S    
C53   H5    S    
C168  H87   S    
C111  O43   A    
C12   H12   S    
C3    O9    A    
C13   H13   S    
C72   C97   S    
C106  O38   A    
C25   C78   S    
O40   Zn12  S    
C97   O21   A    
C9    C49   A    
C131  C136  T    
C110  O50   A    
C43   H27   S    
C37   H21   S    
C29   C74   S    
O35   Zn5   S    
C166  H83   S    
C15   C55   A    
C83   O17   A    
C16   C56   A    
C158  H63   S    
C17   O53   S    
O57   C157  S    
C112  O44   A    
C28   C36   A    
O3    Zn13  S    
C42   C50   A    
C147  H39   S    
C100  O24   A    
O29   Zn3   S    
C67   C75   A    
C29   C37   A    
C70   C99   S    
C19   O55   S    
C145  H33   S    
C146  C147  S    
C22   C30   A    
C105  C115  S    
C22   O58   S    
C149  H42   S    
C34   H18   S    
O23   Zn11  S    
O55   C151  S    
O2    Zn12  S    
C4    C88   S    
C68   C76   A    
C155  H57   S    
C163  C164  S    
C111  C117  S    
C162  H74   S    
C14   C22   A    
C72   C80   A    
O5    Zn11  S    
C84   O20   A    
C105  O45   A    
C64   C75   A    
C153  H52   S    
O42   Zn14  S    
C89   C93   S    
C38   C46   A    
C109  O41   A    
C91   C95   S    
C113  C121  T    
C155  C156  S    
O56   C154  S    
C167  H85   S    
C117  C125  T    
C47   H31   S    
C25   C33   A    
C48   H32   S    
C145  C146  S    
C119  C127  T    
C152  C153  S    
C153  H53   S    
O12   Zn14  S    
C18   C26   A    
C103  O33   A    
C83   C139  S    
C150  H44   S    
C101  O35   A    
C81   C137  S    
C11   C19   A    
C6    C142  S    
C127  C135  S    
C158  C159  S    
C128  C136  S    
C125  C133  S    
C48   C56   A    
C157  H61   S    
C108  C114  S    
C28   C79   S    
O22   Zn10  S    
C12   C52   A    
C164  C165  S    
C154  H54   S    
O34   Zn8   S    
C56   H8    S    
C50   H2    S    
C159  H66   S    
O60   C166  S    
C164  H77   S    
O19   Zn7   S    
C149  C150  S    
O17   Zn5   S    
O28   Zn16  S    
C90   C94   S    
C13   C53   A    
C160  H69   S    
O30   Zn4   S    
C162  H72   S    
C115  C123  T    
C138  C142  T    
C85   C89   T    
O20   Zn8   S    
C45   C53   A    
C106  C116  S    
O13   Zn1   S    
O24   Zn12  S    
C15   H15   S    
C156  H58   S    
O48   Zn2   S    
C46   C54   A    
C49   H1    S    
C2    O8    A    
C108  O40   A    
C130  C133  T    
C21   O57   S    
C10   C50   A    
O2    Zn10  S    
C109  C119  S    
C147  H38   S    
O16   Zn4   S    
C137  C141  T    
C64   Cl8   S    
C116  C124  T    
C123  C131  S    
C140  C144  T    
C121  C129  S    
C120  C128  T    
O4    Zn14  S    
C18   O54   S    
C148  C149  S    
C102  O26   A    
C102  O36   A    
C41   H25   S    
C163  H76   S    
O41   Zn13  S    
O6    Zn12  S    
C129  C134  T    
C151  H47   S    
C60   C68   A    
C99   O23   A    
C36   H20   S    
O7    Zn9   S    
O47   Zn1   S    
C66   C74   A    
C150  H46   S    
O10   Zn16  S    
O59   C163  S    
C93   C94   T    
C70   C78   A    
C168  H86   S    
C95   C96   T    
O11   Zn13  S    
O33   Zn7   S    
C65   C73   A    
O9    Zn15  S    
O44   Zn16  S    
C156  H60   S    
O37   Zn9   S    
O1    Zn1   S    
O27   Zn15  S    
O25   Zn13  S    
C2    O6    A    
C154  C155  S    
C60   Cl4   S    
C58   C66   A    
C88   C92   T    
C31   C39   A    
C23   O59   S    
C19   C27   A    
O52   Zn6   S    
C15   C23   A    
C16   C24   A    
C61   Cl5   S    
C82   O14   A    
C26   C34   A    
C107  O47   A    
O4    Zn16  S    
C1    C85   S    
C71   C98   S    
C145  H34   S    
C164  H78   S    
C26   C77   S    
C105  O37   A    
C98   O22   A    
C3    C87   S    
O49   Zn7   S    
C149  H43   S    
C110  C120  S    
C30   C73   S    
C109  O49   A    
C162  H73   S    
C165  H79   S    
C5    C141  S    
C151  C152  S    
C51   H3    S    
O54   C148  S    
O45   Zn3   S    
C8    C144  S    
C97   O31   A    
C9    C17   A    
C161  H70   S    
C14   C54   A    
C168  H88   S    
C47   C55   A    
C61   C69   A    
C152  H50   S    
C7    C143  S    
C151  H48   S    
O1    Zn3   S    
C24   O60   S    
C166  C167  S    
C111  O51   A    
C158  H64   S    
C150  H45   S    
C82   C138  S    
C112  C118  S    
C106  O46   A    
C132  C135  T    
O43   Zn15  S    
C2    C86   S    
C157  H62   S    
C64   C72   A    
C39   H23   S    
C110  O42   A    
C103  O27   A    
C40   H24   S    
C11   C51   A    
O46   Zn4   S    
C114  C122  T    
C84   C140  S    
C59   Cl3   S    
C118  C126  T    
C65   C104  S    
C122  C130  S    
C67   C102  S    
O32   Zn2   S    
