data_mof_unit_39368.cif
_audit_creation_date              2012-12-11T16:04:37-0500
_audit_creation_method            fapswitch 2.2
_symmetry_space_group_name_H-M    P1
_symmetry_Int_Tables_number       1
_space_group_crystal_system       triclinic
_cell_length_a                    19.878531
_cell_length_b                    20.119037
_cell_length_c                    20.081445
_cell_angle_alpha                 107.0576
_cell_angle_beta                  110.403694
_cell_angle_gamma                 110.726557
_cell_volume                      6193.87939347

loop_
_atom_site_label
_atom_site_type_symbol
_atom_type_description
_atom_site_fract_x
_atom_site_fract_y
_atom_site_fract_z
_atom_type_partial_charge
C1    C     C_R   0.071648 0.338911 0.059316 -0.211353
C2    C     C_R   0.068142 0.502067 0.228695 -0.053350
C3    C     C_3   0.176598 0.655408 0.877313 0.113415
C4    C     C_3   0.144315 0.672587 0.806631 -0.312108
C5    C     C_3   0.175423 0.762505 0.836560 -0.919797
C6    C     C_3   0.820331 0.229729 0.007644 0.161397
C7    C     C_3   0.859672 0.225722 0.086102 -0.282736
C8    C     C_3   0.807473 0.221786 0.126647 -0.986036
C9    C     C_R   0.231416 0.724130 0.156539 -0.110921
C10   C     C_R   0.930802 0.461678 0.764939 -0.202511
C11   C     C_R   0.796016 0.462128 0.032682 -0.122493
C12   C     C_R   0.275543 0.725836 0.227151 0.065931
C13   C     C_R   0.765136 0.507987 0.009635 0.090472
C14   C     C_R   0.997342 0.465654 0.232811 0.015300
C15   C     C_R   0.997304 0.740442 0.021063 0.009390
C16   C     C_3   0.533852 0.535175 0.010342 -0.220436
C17   C     C_3   0.507364 0.522489 0.071342 -0.313231
C18   C     C_R   0.000717 0.476805 0.758523 -0.047888
C19   C     C_1   0.362898 0.579357 0.074313 -0.018752
C20   C     C_1   0.720486 0.537023 0.038233 -0.046633
C21   C     C_3   0.532876 0.615042 0.030973 -0.270558
C22   C     C_R   0.788250 0.265456 0.834978 -0.145887
C23   C     C_3   0.507503 0.602985 0.092940 0.032830
C24   C     C_3   0.625106 0.661658 0.099188 0.509827
C25   C     C_3   0.625789 0.582513 0.078235 0.024475
C26   C     C_3   0.599502 0.650544 0.161172 -0.305732
C27   C     C_3   0.599572 0.570558 0.138832 0.534295
C28   C     C_1   0.432181 0.597791 0.088969 0.075198
C29   C     C_R   0.754312 0.259089 0.759461 0.089966
C30   C     C_1   0.681139 0.560823 0.059981 0.075648
C31   C     C_3   0.962111 0.346685 0.489390 -0.501784
C32   C     C_3   0.089454 0.487910 0.568559 0.445732
C33   C     C_3   0.084645 0.486746 0.489402 -0.512615
C34   C     C_R   0.230804 0.573125 0.004338 -0.139487
C35   C     C_1   0.993402 0.443664 0.292187 0.020596
C36   C     C_3   0.999363 0.435823 0.551117 0.116822
C37   C     C_3   0.963753 0.344028 0.411773 0.466656
C38   C     C_3   0.993305 0.430003 0.417634 0.127384
C39   C     C_3   0.941947 0.467171 0.437179 -0.500148
C40   C     C_R   0.277197 0.548260 0.047613 -0.134350
C41   C     C_3   0.941461 0.466832 0.513717 -0.285620
C42   C     C_1   0.991793 0.431477 0.346013 0.015422
C43   C     C_1   0.000987 0.440940 0.624573 -0.079420
C44   C     C_1   0.001116 0.453965 0.685971 0.028976
C45   C     C_3   0.473296 0.908676 0.490477 0.492263
C46   C     C_R   0.785643 0.334935 0.765908 -0.123728
C47   C     C_3   0.475067 0.986476 0.411691 -0.487657
C48   C     C_3   0.540077 0.065809 0.490704 -0.408114
C49   C     C_1   0.699812 0.186301 0.687184 -0.028415
C50   C     C_3   0.484999 0.915615 0.419468 0.257950
C51   C     C_R   0.228399 0.657335 0.226986 -0.096643
C52   C     C_3   0.539724 0.988616 0.569542 -0.483504
C53   C     C_3   0.595187 0.049736 0.552575 0.339442
C54   C     C_3   0.639345 0.013256 0.516854 -0.393679
C55   C     C_3   0.573479 0.933253 0.436981 -0.349383
C56   C     C_1   0.654134 0.124434 0.626295 -0.087114
C57   C     C_1   0.419952 0.842981 0.345686 -0.078092
C58   C     C_R   0.229393 0.501096 0.070331 0.585835
C59   C     C_1   0.356722 0.786842 0.288704 -0.018863
C60   C     C_3   0.023782 0.037441 0.992704 -0.503009
C61   C     C_3   0.910001 0.013027 0.032199 -0.207156
C62   C     C_R   0.790780 0.526808 0.958815 -0.119689
C63   C     C_3   0.907514 0.934700 0.031858 -0.540485
C64   C     C_1   0.994723 0.811833 0.041636 0.060525
C65   C     C_3   0.998887 0.074526 0.052664 0.236828
C66   C     C_3   0.013990 0.957037 0.989035 0.444829
C67   C     C_3   0.995341 0.945035 0.056071 0.089785
C68   C     C_3   0.060047 0.020308 0.142070 -0.198559
C69   C     C_3   0.063214 0.097516 0.138638 -0.493301
C70   C     C_R   0.069596 0.530724 0.833863 0.543669
C71   C     C_1   0.993953 0.872516 0.053137 -0.036663
C72   C     C_1   0.002181 0.145493 0.048919 -0.079699
C73   C     C_R   0.929004 0.437557 0.160411 -0.166289
C74   C     C_1   0.003922 0.200948 0.039108 0.043452
C75   C     C_R   0.933003 0.268117 0.989082 0.554547
C76   C     C_R   0.003240 0.263902 0.023607 -0.081214
C77   C     C_2   0.152381 0.803740 0.075544 0.942635
C78   C     C_2   0.149800 0.513528 0.279446 0.929564
C79   C     C_3   0.589478 0.497326 0.209904 0.202543
C80   C     C_3   0.559344 0.537415 0.261258 -0.309235
C81   C     C_3   0.508210 0.479156 0.282181 -1.010743
C82   C     C_2   0.635109 0.714660 0.244826 1.020736
C83   C     C_3   0.670779 0.791025 0.115159 0.192425
C84   C     C_R   0.067998 0.735036 0.037935 -0.033664
C85   C     C_3   0.746581 0.867263 0.136381 -0.220896
C86   C     C_3   0.727295 0.934384 0.137151 -0.994715
C87   C     C_3   0.198058 0.502993 0.680527 0.196078
C88   C     C_3   0.278094 0.571654 0.697397 -0.323436
C89   C     C_3   0.341434 0.622120 0.787751 -0.982726
C90   C     C_2   0.961989 0.548724 0.572155 1.018809
C91   C     C_3   0.816905 0.278164 0.320194 0.200328
C92   C     C_3   0.744497 0.191118 0.275773 -0.264528
C93   C     C_3   0.660799 0.187470 0.248796 -1.027625
C94   C     C_3   0.406931 0.779269 0.478652 0.216932
C95   C     C_R   0.928939 0.665055 0.966529 -0.121605
C96   C     C_3   0.393753 0.793372 0.551203 -0.358873
C97   C     C_3   0.314977 0.721199 0.531153 -0.906462
C98   C     C_2   0.839292 0.994073 0.954469 1.023856
C99   C     C_3   0.156049 0.988358 0.046891 0.208118
C100  C     C_3   0.218280 0.988105 0.018929 -0.252817
C101  C     C_3   0.307321 0.035959 0.090306 -1.022796
C102  C     C_2   0.042979 0.010396 0.207691 1.050021
C103  C     C_3   0.304509 0.444540 0.124072 0.162100
C104  C     C_3   0.260530 0.369928 0.041133 -0.383968
C105  C     C_3   0.301168 0.318361 0.044550 -0.974743
H1    H     H_    0.134678 0.358988 0.102475 0.204392
H2    H     H_    0.503818 0.632954 0.986665 0.134805
H3    H     H_    0.158602 0.678373 0.921769 0.161104
H4    H     H_    0.165997 0.652297 0.764791 0.207509
H5    H     H_    0.075046 0.638885 0.772731 0.212262
H6    H     H_    0.151691 0.783270 0.876093 0.284682
H7    H     H_    0.152555 0.773463 0.784264 0.263232
H8    H     H_    0.244674 0.797997 0.870761 0.258281
H9    H     H_    0.752277 0.185525 0.972953 0.149052
H10   H     H_    0.826680 0.289771 0.019719 0.073255
H11   H     H_    0.865506 0.171072 0.072651 0.246004
H12   H     H_    0.923197 0.279589 0.128636 0.180178
H13   H     H_    0.014646 0.331798 0.413618 0.100519
H14   H     H_    0.799693 0.275197 0.141240 0.250717
H15   H     H_    0.839789 0.220530 0.183283 0.301663
H16   H     H_    0.745115 0.165971 0.086889 0.272676
H17   H     H_    0.999455 0.321419 0.515685 0.195448
H18   H     H_    0.116105 0.551934 0.612469 0.068932
H19   H     H_    0.126323 0.466794 0.476356 0.205248
H20   H     H_    0.108494 0.549321 0.497345 0.188826
H21   H     H_    0.876699 0.422950 0.495024 0.137589
H22   H     H_    0.770346 0.217160 0.849641 0.163949
H23   H     H_    0.877328 0.435729 0.386108 0.151372
H24   H     H_    0.898369 0.308247 0.476575 0.164929
H25   H     H_    0.769729 0.554964 0.924789 0.097741
H26   H     H_    0.969797 0.529911 0.445653 0.213273
H27   H     H_    0.508231 0.014102 0.596201 0.128953
H28   H     H_    0.411116 0.901301 0.478875 -0.003154
H29   H     H_    0.483000 0.992430 0.361111 0.192891
H30   H     H_    0.411390 0.974936 0.397754 0.182527
H31   H     H_    0.507721 0.091979 0.515172 0.171185
H32   H     H_    0.255887 0.621738 0.991587 0.157247
H33   H     H_    0.579259 0.110266 0.478343 0.173835
H34   H     H_    0.582192 0.882872 0.441849 0.196311
H35   H     H_    0.582138 0.938517 0.386536 0.158850
H36   H     H_    0.865079 0.396721 0.140435 0.104533
H37   H     H_    0.679464 0.001406 0.560789 0.177360
H38   H     H_    0.579166 0.977473 0.614903 0.197659
H39   H     H_    0.680380 0.056761 0.505052 0.162438
H40   H     H_    0.955612 0.910054 0.930497 0.125653
H41   H     H_    0.984140 0.026975 0.931303 0.195215
H42   H     H_    0.899810 0.041312 0.081661 0.163322
H43   H     H_    0.764033 0.350190 0.718546 0.097284
H44   H     H_    0.860211 0.880932 0.971428 0.173961
H45   H     H_    0.886718 0.921416 0.073383 0.214364
H46   H     H_    0.127143 0.140337 0.154493 0.161106
H47   H     H_    0.865898 0.651451 0.933564 0.106859
H48   H     H_    0.050688 0.130227 0.183757 0.198973
H49   H     H_    0.123004 0.028824 0.160595 0.099454
H50   H     H_    0.088313 0.080662 0.010909 0.169334
H51   H     H_    0.250088 0.637391 0.269994 0.131748
H52   H     H_    0.254856 0.854244 0.067618 0.318109
H53   H     H_    0.249818 0.505805 0.284957 0.326124
H54   H     H_    0.625508 0.475203 0.243632 0.141203
H55   H     H_    0.536423 0.442861 0.152449 0.074662
H56   H     H_    0.614053 0.591446 0.317996 0.233337
H57   H     H_    0.520033 0.557239 0.227914 0.192766
H58   H     H_    0.258457 0.761723 0.133748 0.134278
H59   H     H_    0.453752 0.424160 0.226250 0.261172
H60   H     H_    0.485179 0.508929 0.317146 0.278563
H61   H     H_    0.547214 0.461408 0.319313 0.275999
H62   H     H_    0.614554 0.779877 0.324719 0.319268
H63   H     H_    0.651932 0.805951 0.161123 0.100097
H64   H     H_    0.618970 0.770247 0.054573 0.093126
H65   H     H_    0.799025 0.889008 0.196864 0.219011
H66   H     H_    0.766316 0.852661 0.091240 0.200833
H67   H     H_    0.675910 0.914419 0.076810 0.269068
H68   H     H_    0.783578 0.988430 0.152325 0.290508
H69   H     H_    0.784747 0.435557 0.069971 0.102565
H70   H     H_    0.709109 0.951298 0.183119 0.264243
H71   H     H_    0.213979 0.462983 0.702482 0.143468
H72   H     H_    0.171645 0.527051 0.715396 0.121440
H73   H     H_    0.305858 0.545791 0.665668 0.219259
H74   H     H_    0.263653 0.611644 0.674309 0.197027
H75   H     H_    0.315392 0.649859 0.820347 0.270929
H76   H     H_    0.398821 0.671104 0.798192 0.270091
H77   H     H_    0.358246 0.583909 0.812269 0.266356
H78   H     H_    0.040356 0.669379 0.636339 0.328054
H79   H     H_    0.807255 0.306063 0.280093 0.116044
H80   H     H_    0.456014 0.465301 0.057652 0.140148
H81   H     H_    0.815360 0.311010 0.373955 0.093810
H82   H     H_    0.744311 0.154941 0.221907 0.217008
H83   H     H_    0.752577 0.163725 0.316555 0.199882
H84   H     H_    0.658730 0.221839 0.301871 0.268433
H85   H     H_    0.609720 0.123625 0.217194 0.275532
H86   H     H_    0.650711 0.213096 0.206622 0.270534
H87   H     H_    0.411336 0.723886 0.460892 0.141920
H88   H     H_    0.352069 0.767226 0.425318 0.077365
H89   H     H_    0.448405 0.803337 0.602896 0.220800
H90   H     H_    0.388297 0.848103 0.569531 0.195972
H91   H     H_    0.508013 0.487446 0.948543 0.152405
H92   H     H_    0.259364 0.710712 0.480147 0.276355
H93   H     H_    0.306883 0.733235 0.584626 0.259184
H94   H     H_    0.319805 0.666001 0.514645 0.280668
H95   H     H_    0.736911 0.001237 0.902329 0.333415
H96   H     H_    0.160876 0.961021 0.087626 0.154483
H97   H     H_    0.173696 0.052074 0.080357 0.084470
H98   H     H_    0.202107 0.924862 0.985113 0.221898
H99   H     H_    0.214566 0.015127 0.977715 0.203675
H100  H     H_    0.325699 0.100058 0.123614 0.269741
H101  H     H_    0.350750 0.033799 0.067992 0.272637
H102  H     H_    0.867569 0.428424 0.715578 0.141088
H103  H     H_    0.312622 0.009685 0.132127 0.281022
H104  H     H_    0.975526 0.012717 0.262860 0.326894
H105  H     H_    0.315032 0.424445 0.170813 0.154637
H106  H     H_    0.367463 0.488498 0.139890 0.113518
H107  H     H_    0.193919 0.332050 0.021039 0.214718
H108  H     H_    0.263790 0.389666 0.995588 0.196889
H109  H     H_    0.368436 0.354751 0.065949 0.254822
H110  H     H_    0.270413 0.267155 0.983359 0.275094
H111  H     H_    0.294230 0.293579 0.085971 0.262837
H112  H     H_    0.245839 0.689663 0.909630 0.135641
N1    N     N_R   0.043550 0.386750 0.043430 -0.058553
N2    N     N_R   0.843320 0.343600 0.886740 -0.052130
N3    N     N_R   0.156920 0.543410 0.000250 -0.084141
N4    N     N_R   0.843210 0.386780 0.843560 -0.039603
N5    N     N_R   0.157030 0.500230 0.043430 -0.085541
N6    N     N_R   0.043140 0.543420 0.886740 -0.109243
N7    N     N_R   0.957090 0.343580 0.000250 -0.114410
N8    N     N_R   0.156790 0.613220 0.156440 -0.041711
N9    N     N_R   0.842970 0.499770 0.956570 -0.040601
N10   N     N_R   0.956860 0.456580 0.113260 -0.054869
N11   N     N_R   0.042910 0.656420 0.999750 -0.076292
N12   N     N_R   0.956450 0.613250 0.956570 -0.046503
N13   N     N_R   0.043310 0.499740 0.156440 -0.056830
N14   N     N_R   0.156680 0.656400 0.113260 -0.059524
N15   N     N_R   0.843080 0.456590 0.999750 -0.046998
N16   N     N_R   0.956690 0.500260 0.843560 -0.067659
Ni1   Ni    Ni4+2 0.099270 0.499990 0.099040 0.273514
Ni2   Ni    Ni4+2 0.900730 0.500010 0.900960 0.214288
Ni3   Ni    Ni4+2 0.900990 0.400990 0.000000 0.198994
Ni4   Ni    Ni4+2 0.099010 0.599010 0.000000 0.215697
O1    O     O_2   0.181087 0.862187 0.139777 -0.646527
O2    O     O_2   0.913866 0.553009 0.595700 -0.643714
O3    O     O_R   0.034636 0.619078 0.598178 -0.831841
O4    O     O_3   0.891947 0.277407 0.338218 -0.667831
O5    O     O_3   0.482818 0.844399 0.499526 -0.660942
O6    O     O_2   0.832441 0.958782 0.889351 -0.651337
O7    O     O_R   0.781007 0.016458 0.957650 -0.808707
O8    O     O_3   0.074862 0.940514 0.978704 -0.661105
O9    O     O_2   0.085085 0.993754 0.253328 -0.626409
O10   O     O_R   0.980514 0.021291 0.217120 -0.823775
O11   O     O_3   0.257014 0.481833 0.131543 -0.650402
O12   O     O_R   0.198110 0.803296 0.036309 -0.861201
O13   O     O_3   0.150129 0.572441 0.849535 -0.690511
O14   O     O_3   0.852863 0.207260 0.958468 -0.675903
O15   O     O_2   0.176305 0.535173 0.351439 -0.667599
O16   O     O_R   0.195274 0.496634 0.244374 -0.789628
O17   O     O_3   0.643660 0.552847 0.196803 -0.642792
O18   O     O_2   0.709375 0.748077 0.293507 -0.598510
O19   O     O_R   0.583325 0.735888 0.266705 -0.821782
O20   O     O_3   0.692413 0.731293 0.114068 -0.642928
O21   O     O_3   0.140088 0.455720 0.596513 -0.664148

loop_
_geom_bond_atom_site_label_1
_geom_bond_atom_site_label_2
_ccdc_geom_bond_type
C18   C70   A    
C54   H39   S    
C87   C88   S    
C11   N15   A    
C105  H110  S    
C22   C29   A    
C94   H88   S    
C78   O15   D    
C97   H94   S    
C61   C98   S    
C102  O9    D    
C3    O13   S    
C22   N2    A    
C6    C7    S    
N3    N5    A    
C58   N5    A    
C92   H82   S    
C7    C8    S    
C39   C41   S    
C73   H36   S    
C93   H85   S    
C52   C53   S    
C87   H71   S    
C26   C27   S    
N8    N14   A    
C46   N4    A    
C74   C76   S    
C90   O2    D    
C86   H67   S    
N8    Ni1   S    
C32   C36   S    
C10   C18   A    
C68   C102  S    
C104  H108  S    
C38   C42   S    
C68   H49   S    
C15   C95   A    
C38   C39   S    
C100  H98   S    
C34   N3    A    
C8    H16   S    
C89   H75   S    
C11   C13   A    
N2    N4    A    
N15   Ni3   S    
C55   H34   S    
C103  H105  S    
C61   C63   S    
C86   H70   S    
C64   C71   T    
C9    H58   S    
C35   C42   T    
C62   H25   S    
C104  C105  S    
C66   H40   S    
C4    H5    S    
N6    N16   A    
N9    N15   A    
C12   C59   S    
C79   O17   S    
C96   H90   S    
C46   H43   S    
C13   C62   A    
C91   O4    S    
C17   H80   S    
C68   C69   S    
C11   H69   S    
C45   O5    S    
C51   N8    A    
C33   H19   S    
C15   C64   S    
C25   C30   S    
C1    N1    A    
C105  H109  S    
C99   O8    S    
H95   O7    S    
C98   O7    S    
C83   C85   S    
C1    H1    S    
C97   H93   S    
C47   H30   S    
C96   H89   S    
C41   C90   S    
C81   H61   S    
C60   C66   S    
C26   C82   S    
C105  H111  S    
C91   H79   S    
N4    Ni2   S    
C1    C76   A    
C32   H18   S    
C82   O19   S    
C36   C41   S    
C65   C72   S    
C60   H41   S    
C10   H102  S    
C75   O14   S    
C41   H21   S    
C87   O21   S    
N11   N12   A    
C27   O17   S    
C47   C50   S    
C93   H86   S    
C48   C53   S    
C48   H33   S    
C63   C67   S    
C51   H51   S    
N9    Ni2   S    
C52   H38   S    
C40   C58   A    
C37   H13   S    
C67   C68   S    
C52   H27   S    
C14   C73   A    
C97   H92   S    
C37   O4    S    
C24   C25   S    
N1    Ni1   S    
C72   C74   T    
N6    Ni4   S    
C103  H106  S    
C91   C92   S    
C73   N10   A    
C70   O13   S    
C16   C17   S    
C6    H10   S    
C20   C30   T    
C5    H6    S    
C77   C84   S    
C85   C86   S    
C24   O20   S    
C14   C35   S    
C69   H48   S    
C55   H35   S    
C31   C37   S    
C17   C27   S    
C7    H11   S    
N12   Ni2   S    
C85   H65   S    
C75   C76   A    
C63   H45   S    
C37   C38   S    
C16   H91   S    
C101  H103  S    
C18   C44   S    
H78   O3    S    
C87   H72   S    
C83   O20   S    
C99   C100  S    
C3    H112  S    
C50   C55   S    
C96   C97   S    
N10   N13   A    
C33   H20   S    
C70   N6    A    
C36   C43   S    
C17   C23   S    
C23   C28   S    
C29   C49   S    
C94   C96   S    
C19   C28   T    
N16   Ni2   S    
C80   H57   S    
C98   O6    D    
C21   H2    S    
C101  H100  S    
C6    O14   S    
C103  O11   S    
C54   H37   S    
C91   H81   S    
C60   C65   S    
C101  H101  S    
C21   C23   S    
C47   H29   S    
C77   O1    D    
C81   H59   S    
C34   C40   A    
N3    Ni4   S    
C77   O12   S    
C104  H107  S    
C3    C4    S    
C84   N11   A    
C79   H55   S    
C12   C51   A    
C2    C78   S    
C8    H15   S    
C88   H74   S    
C53   C56   S    
C16   C25   S    
H104  O10   S    
C54   C55   S    
N5    Ni1   S    
C10   N16   A    
C39   H23   S    
C13   C20   S    
C5    H8    S    
N14   Ni4   S    
C50   C57   S    
N10   Ni3   S    
N2    Ni3   S    
C48   H31   S    
C102  O10   S    
C95   N12   A    
C31   H17   S    
C24   C26   S    
C80   C81   S    
C47   C48   S    
H52   O12   S    
C75   N7    A    
H62   O19   S    
C92   H83   S    
C16   C21   S    
C53   C54   S    
C15   C84   A    
C5    H7    S    
C93   H84   S    
C3    H3    S    
C25   C27   S    
C4    H4    S    
C83   H63   S    
C34   H32   S    
C45   H28   S    
C7    H12   S    
C45   C52   S    
C90   O3    S    
C29   C46   A    
C9    N14   A    
C86   H68   S    
C89   H77   S    
C32   O21   S    
C94   O5    S    
H53   O16   S    
N11   Ni4   S    
C99   H97   S    
C49   C56   T    
C62   N9    A    
C66   C67   S    
C32   C33   S    
C79   H54   S    
C100  H99   S    
C22   H22   S    
C39   H26   S    
C45   C50   S    
C43   C44   T    
C65   C69   S    
C83   H64   S    
C58   O11   S    
C92   C93   S    
C23   C26   S    
N13   Ni1   S    
C6    H9    S    
C67   C71   S    
N1    N7    A    
N7    Ni3   S    
C2    C14   A    
C9    C12   A    
C94   H87   S    
C80   H56   S    
C60   H50   S    
C57   C59   T    
C19   C40   S    
C2    N13   A    
C79   C80   S    
C61   H42   S    
C61   C65   S    
C4    C5    S    
C85   H66   S    
C88   C89   S    
C31   H24   S    
C21   C24   S    
C103  C104  S    
C81   H60   S    
C31   C36   S    
C33   C38   S    
C100  C101  S    
C95   H47   S    
C63   H44   S    
C69   H46   S    
C88   H73   S    
C99   H96   S    
C82   O18   D    
C8    H14   S    
C89   H76   S    
C78   O16   S    
C66   O8    S    
