data_mof_unit_37634.cif
_audit_creation_date              2012-12-10T16:43:00-0500
_audit_creation_method            fapswitch 2.2
_symmetry_space_group_name_H-M    P1
_symmetry_Int_Tables_number       1
_space_group_crystal_system       triclinic
_cell_length_a                    7.499222
_cell_length_b                    8.673539
_cell_length_c                    12.968736
_cell_angle_alpha                 87.532665
_cell_angle_beta                  78.790778
_cell_angle_gamma                 103.093855
_cell_volume                      802.588295004

loop_
_atom_site_label
_atom_site_type_symbol
_atom_type_description
_atom_site_fract_x
_atom_site_fract_y
_atom_site_fract_z
_atom_type_partial_charge
C1    C     C_R   0.452533 0.199671 0.503226 0.846780
C2    C     C_R   0.547486 0.800341 0.496654 0.878676
C3    C     C_R   0.465745 0.494366 0.701202 0.922222
C4    C     C_R   0.534336 0.505669 0.299063 0.859002
C5    C     C_R   0.555503 0.516783 0.185414 -0.248365
C6    C     C_R   0.445245 0.483477 0.815224 -0.192712
C7    C     C_R   0.280118 0.355694 0.988270 0.400909
C8    C     C_R   0.710327 0.659097 0.014845 0.365412
C9    C     C_R   0.294913 0.371098 0.878275 0.199508
C10   C     C_R   0.692567 0.642319 0.125024 0.264838
C11   C     C_R   0.583716 0.578263 0.858841 0.344222
C12   C     C_R   0.427118 0.412677 0.139485 0.379635
C13   C     C_R   0.574952 0.560936 0.968261 -0.157981
C14   C     C_R   0.426425 0.442571 0.032359 -0.099441
C15   C     C_2   0.426203 0.031473 0.504588 -0.330342
C16   C     C_2   0.573839 0.968559 0.495115 -0.310698
Cu1   Cu    Cu3+1 0.686350 0.517570 0.488220 1.093612
Cu2   Cu    Cu3+1 0.313650 0.482430 0.511780 1.084378
H1    H     H_    0.284301 0.959148 0.513403 0.199762
H2    H     H_    0.715744 0.040889 0.486281 0.200455
N1    N     N_2   0.033570 0.455950 0.529530 0.136996
N2    N     N_2   0.966430 0.544050 0.470470 0.141819
O1    O     O_R   0.621060 0.286250 0.492350 -0.548930
O2    O     O_R   0.378940 0.713750 0.507650 -0.554317
O3    O     O_R   0.306310 0.256580 0.512240 -0.600935
O4    O     O_R   0.693690 0.743420 0.487760 -0.592095
O5    O     O_R   0.631800 0.512400 0.642670 -0.538949
O6    O     O_R   0.368200 0.487600 0.357330 -0.540127
O7    O     O_R   0.317060 0.482730 0.662570 -0.567278
O8    O     O_R   0.682940 0.517270 0.337430 -0.555371
O9    O     O_3   0.303326 0.280113 0.197390 -0.624192
H3    H     H_    0.357374 0.244644 0.255457 0.308800
O10   O     O_3   0.726430 0.687491 0.792472 -0.647329
H4    H     H_    0.841123 0.648184 0.791513 0.366920
O11   O     O_3   0.802288 0.750215 0.176431 -0.712256
H5    H     H_    0.840298 0.855068 0.134725 0.352303
O12   O     O_3   0.170222 0.272491 0.829774 -0.716089
H6    H     H_    0.117784 0.170132 0.873947 0.352346
O13   O     O_3   0.121780 0.261087 0.053887 -0.651013
H7    H     H_    0.012555 0.258228 0.020923 0.327701
O14   O     O_3   0.854611 0.773658 0.952955 -0.696478
H8    H     H_    0.966349 0.786874 0.984904 0.334381
O15   O     O_3   0.906134 0.349579 0.600166 -0.600369
H9    H     H_    0.980300 0.294088 0.637389 0.358416
O16   O     O_3   0.093862 0.650550 0.399915 -0.590784
H10   H     H_    0.019688 0.706074 0.362717 0.356960

loop_
_geom_bond_atom_site_label_1
_geom_bond_atom_site_label_2
_ccdc_geom_bond_type
C1    O3    A    
O15   H9    S    
C8    C13   A    
C1    C15   S    
Cu1   N2    S    
Cu2   N1    S    
C2    C16   S    
O14   H8    S    
O11   H5    S    
C16   H2    S    
C3    C6    S    
C6    C9    A    
C9    O12   S    
O10   H4    S    
C5    C10   A    
C2    O4    A    
Cu2   O7    S    
N1    O15   S    
C13   C14   A    
C15   H1    S    
Cu1   O8    S    
C11   C13   A    
C3    O7    A    
Cu1   O1    S    
Cu2   O3    S    
Cu2   O2    S    
Cu1   O4    S    
C3    O5    A    
C4    O6    A    
O12   H6    S    
C12   C14   A    
C1    O1    A    
C7    C14   A    
C12   O9    S    
C2    O2    A    
C10   O11   S    
O13   H7    S    
C15   C16   D    
Cu1   O5    S    
O16   H10   S    
C11   O10   S    
N2    O16   S    
Cu2   O6    S    
C8    O14   S    
C5    C12   A    
Cu1   Cu2   S    
C6    C11   A    
C7    C9    A    
C7    O13   S    
N1    N2    D    
C8    C10   A    
C4    O8    A    
O9    H3    S    
C4    C5    S    
