data_mof_unit_61678.cif
_audit_creation_date              2013-03-05T16:09:10-0500
_audit_creation_method            fapswitch 2.2
_symmetry_space_group_name_H-M    P1
_symmetry_Int_Tables_number       1
_space_group_crystal_system       triclinic
_cell_length_a                    36.211653
_cell_length_b                    36.234898
_cell_length_c                    25.607339
_cell_angle_alpha                 90.009629
_cell_angle_beta                  134.981083
_cell_angle_gamma                 89.987167
_cell_volume                      23766.661261

loop_
_atom_site_label
_atom_site_type_symbol
_atom_site_description
_atom_site_fract_x
_atom_site_fract_y
_atom_site_fract_z
_atom_type_partial_charge
Zn1   Zn    Zn3+2 0.688630 0.719330 0.438590 1.118426
Zn2   Zn    Zn3+2 0.688630 0.280670 0.438590 1.116245
Zn3   Zn    Zn3+2 0.188630 0.219330 0.438590 1.118660
Zn4   Zn    Zn3+2 0.188630 0.780670 0.438590 1.116936
Zn5   Zn    Zn3+2 0.811460 0.719330 0.561410 1.096814
Zn6   Zn    Zn3+2 0.811460 0.280670 0.561410 1.100477
Zn7   Zn    Zn3+2 0.311460 0.219330 0.561410 1.096988
Zn8   Zn    Zn3+2 0.311460 0.780670 0.561410 1.099853
Zn9   Zn    Zn3+2 0.750040 0.780740 0.438590 1.107772
Zn10  Zn    Zn3+2 0.750040 0.219260 0.438590 1.108183
Zn11  Zn    Zn3+2 0.250040 0.280740 0.438590 1.109449
Zn12  Zn    Zn3+2 0.250040 0.719260 0.438590 1.108736
Zn13  Zn    Zn3+2 0.750030 0.780760 0.561410 1.110641
Zn14  Zn    Zn3+2 0.750030 0.219240 0.561410 1.111021
Zn15  Zn    Zn3+2 0.250030 0.280760 0.561410 1.110102
Zn16  Zn    Zn3+2 0.250030 0.719240 0.561410 1.110718
O1    O     O_3   0.750040 0.750040 0.500000 -0.555919
O2    O     O_3   0.750040 0.249960 0.500000 -0.556226
O3    O     O_3   0.250040 0.250040 0.500000 -0.556104
O4    O     O_3   0.250040 0.749960 0.500000 -0.556201
O5    O     O_R   0.810510 0.771550 0.663950 -0.603068
O6    O     O_R   0.810510 0.228450 0.663950 -0.602941
O7    O     O_R   0.310510 0.271550 0.663950 -0.603125
O8    O     O_R   0.310510 0.728450 0.663950 -0.604049
O9    O     O_R   0.646590 0.728530 0.336050 -0.602298
O10   O     O_R   0.646590 0.271470 0.336050 -0.602316
O11   O     O_R   0.146590 0.228530 0.336050 -0.601975
O12   O     O_R   0.146590 0.771470 0.336050 -0.602572
O13   O     O_R   0.793040 0.668060 0.542980 -0.610649
O14   O     O_R   0.793040 0.331940 0.542980 -0.607570
O15   O     O_R   0.293040 0.168060 0.542980 -0.610873
O16   O     O_R   0.293040 0.831940 0.542980 -0.607619
O17   O     O_R   0.750030 0.832020 0.457020 -0.605564
O18   O     O_R   0.750030 0.167980 0.457020 -0.604702
O19   O     O_R   0.250030 0.332020 0.457020 -0.603263
O20   O     O_R   0.250030 0.667980 0.457020 -0.604107
O21   O     O_R   0.853520 0.728540 0.542980 -0.615635
O22   O     O_R   0.853520 0.271460 0.542980 -0.612848
O23   O     O_R   0.353520 0.228540 0.542980 -0.615088
O24   O     O_R   0.353520 0.771460 0.542980 -0.614226
O25   O     O_R   0.689540 0.771550 0.542990 -0.603541
O26   O     O_R   0.689540 0.228450 0.542990 -0.603441
O27   O     O_R   0.189540 0.271550 0.542990 -0.602948
O28   O     O_R   0.189540 0.728450 0.542990 -0.601469
O29   O     O_R   0.810530 0.771520 0.457010 -0.597849
O30   O     O_R   0.810530 0.228480 0.457010 -0.598477
O31   O     O_R   0.310530 0.271520 0.457010 -0.597168
O32   O     O_R   0.310530 0.728480 0.457010 -0.597499
O33   O     O_R   0.646570 0.728550 0.457020 -0.601031
O34   O     O_R   0.646570 0.271450 0.457020 -0.601737
O35   O     O_R   0.146570 0.228550 0.457020 -0.601251
O36   O     O_R   0.146570 0.771450 0.457020 -0.602985
O37   O     O_R   0.707070 0.668050 0.457020 -0.596921
O38   O     O_R   0.707070 0.331950 0.457020 -0.600686
O39   O     O_R   0.207070 0.168050 0.457020 -0.596786
O40   O     O_R   0.207070 0.831950 0.457020 -0.600036
O41   O     O_R   0.750020 0.832030 0.542980 -0.601500
O42   O     O_R   0.750020 0.167970 0.542980 -0.601576
O43   O     O_R   0.250020 0.332030 0.542980 -0.603270
O44   O     O_R   0.250020 0.667970 0.542980 -0.603140
O45   O     O_R   0.853500 0.728560 0.663950 -0.606482
O46   O     O_R   0.853500 0.271440 0.663950 -0.605585
O47   O     O_R   0.353500 0.228560 0.663950 -0.606546
O48   O     O_R   0.353500 0.771440 0.663950 -0.605799
O49   O     O_R   0.689570 0.771520 0.336050 -0.603863
O50   O     O_R   0.689570 0.228480 0.336050 -0.604130
O51   O     O_R   0.189570 0.271520 0.336050 -0.604428
O52   O     O_R   0.189570 0.728480 0.336050 -0.604391
C1    C     C_R   0.849560 0.750043 0.699096 0.834071
C2    C     C_R   0.849558 0.249954 0.699090 0.834090
C3    C     C_R   0.349555 0.250042 0.699095 0.833673
C4    C     C_R   0.349555 0.749956 0.699090 0.833733
C5    C     C_R   0.650503 0.750028 0.300908 0.831838
C6    C     C_R   0.650503 0.249973 0.300905 0.832094
C7    C     C_R   0.150499 0.250028 0.300907 0.831623
C8    C     C_R   0.150498 0.749968 0.300907 0.831649
C9    C     C_R   0.750057 0.650487 0.499970 0.835037
C10   C     C_R   0.750040 0.349514 0.499962 0.835990
C11   C     C_R   0.250057 0.150487 0.499969 0.835472
C12   C     C_R   0.250040 0.849514 0.499961 0.837107
C13   C     C_R   0.750098 0.849583 0.500104 0.828766
C14   C     C_R   0.750058 0.150415 0.500016 0.828722
C15   C     C_R   0.250036 0.349589 0.500008 0.828121
C16   C     C_R   0.250043 0.650410 0.500027 0.828408
C17   C     C_R   0.849581 0.750027 0.499935 0.832202
C18   C     C_R   0.849574 0.249965 0.499923 0.829651
C19   C     C_R   0.349588 0.250042 0.499956 0.830944
C20   C     C_R   0.349578 0.749959 0.499931 0.830584
C21   C     C_R   0.650471 0.750050 0.499991 0.835168
C22   C     C_R   0.650461 0.249952 0.499972 0.834990
C23   C     C_R   0.150467 0.250056 0.499982 0.835350
C24   C     C_R   0.150465 0.749952 0.499980 0.837009
C25   C     C_3   0.525649 0.788967 0.509152 0.474559
C26   C     C_3   0.528394 0.211397 0.514591 0.474613
C27   C     C_3   0.019476 0.289063 0.496834 0.474600
C28   C     C_3   0.031263 0.712196 0.520273 0.470137
C29   C     C_3   0.482599 0.732466 0.419555 0.317206
C30   C     C_3   0.481414 0.264587 0.417213 0.317346
C31   C     C_3   0.985983 0.226168 0.426308 0.317300
C32   C     C_3   0.981630 0.764116 0.418441 0.326160
C33   C     C_3   0.434908 0.738221 0.413792 0.281584
C34   C     C_3   0.434148 0.258623 0.412286 0.281479
C35   C     C_3   0.937412 0.231389 0.418784 0.282541
C36   C     C_3   0.937507 0.769042 0.419541 0.261560
H1    H     H_    0.461981 0.808582 0.498242 0.280241
H2    H     H_    0.466154 0.191428 0.506502 0.280260
H3    H     H_    0.952765 0.307547 0.479844 0.279923
H4    H     H_    0.949091 0.698317 0.451063 0.267741
C37   C     C_1   0.389116 0.749503 0.500018 0.035109
C38   C     C_1   0.389071 0.250434 0.499935 0.034914
C39   C     C_1   0.889245 0.249404 0.500278 0.034708
C40   C     C_1   0.889026 0.750310 0.499829 0.026189
C41   C     C_3   0.535828 0.748118 0.497908 -0.367592
C42   C     C_3   0.535663 0.251752 0.497577 -0.367594
C43   C     C_3   0.036222 0.247840 0.498698 -0.367677
C44   C     C_3   0.037094 0.752628 0.500518 -0.361023
C45   C     C_3   0.489654 0.785308 0.522257 -0.500136
C46   C     C_3   0.492125 0.215495 0.527148 -0.500037
C47   C     C_3   0.983978 0.286475 0.510928 -0.500931
C48   C     C_3   0.980695 0.712632 0.503626 -0.466237
C49   C     C_3   0.461856 0.746566 0.497245 -0.265509
C50   C     C_3   0.461588 0.253250 0.496711 -0.265685
C51   C     C_3   0.962495 0.246238 0.498525 -0.265301
C52   C     C_3   0.961828 0.752929 0.497274 -0.262450
C53   C     C_3   0.506146 0.717146 0.556419 0.371026
C54   C     C_3   0.503699 0.284698 0.551559 0.370783
C55   C     C_3   0.011084 0.221884 0.566286 0.370968
C56   C     C_3   0.010030 0.777451 0.566270 0.378288
C57   C     C_3   0.554283 0.722067 0.564174 0.351489
C58   C     C_3   0.552171 0.280084 0.559978 0.351320
C59   C     C_3   0.058393 0.227372 0.572389 0.351636
C60   C     C_3   0.052864 0.781256 0.562190 0.364206
C61   C     C_1   0.421903 0.748399 0.499104 0.271943
C62   C     C_1   0.421772 0.251490 0.498844 0.272083
C63   C     C_1   0.922233 0.248193 0.499767 0.271920
C64   C     C_1   0.921765 0.751166 0.498840 0.247080
C65   C     C_1   0.577443 0.749276 0.499389 0.273983
C66   C     C_1   0.577346 0.250662 0.499191 0.274020
C67   C     C_1   0.077640 0.249120 0.499783 0.273910
C68   C     C_1   0.078198 0.751235 0.500973 0.272431
C69   C     C_1   0.610981 0.749861 0.499982 0.067089
C70   C     C_1   0.610943 0.250125 0.499907 0.066773
C71   C     C_1   0.111062 0.249792 0.500145 0.067317
C72   C     C_1   0.111299 0.750419 0.500619 0.084733
H5    H     H_    0.513726 0.789252 0.581750 0.275735
H6    H     H_    0.516407 0.213673 0.587046 0.275703
H7    H     H_    0.007038 0.295081 0.568416 0.275641
H8    H     H_    0.984921 0.694774 0.542648 0.281457
C73   C     C_3   0.484017 0.732978 0.043620 0.494785
C74   C     C_3   0.484258 0.267585 0.043618 0.494586
C75   C     C_3   0.982849 0.235969 0.043633 0.494428
C76   C     C_3   0.982753 0.763762 0.043638 0.494791
C77   C     C_3   0.530388 0.788896 0.044607 0.466637
C78   C     C_3   0.529825 0.210997 0.044607 0.467054
C79   C     C_3   0.033363 0.288199 0.044587 0.466809
C80   C     C_3   0.033639 0.711870 0.044583 0.467192
C81   C     C_3   0.490675 0.788691 0.956906 0.473837
C82   C     C_3   0.490115 0.211144 0.956905 0.473963
C83   C     C_3   0.993614 0.287668 0.956882 0.473572
C84   C     C_3   0.993882 0.712428 0.956877 0.473723
C85   C     C_1   0.389023 0.749895 0.778034 0.039495
C86   C     C_1   0.389023 0.250107 0.778036 0.039119
C87   C     C_1   0.889017 0.249906 0.778032 0.040576
C88   C     C_1   0.889017 0.750088 0.778037 0.039547
C89   C     C_3   0.538406 0.747565 0.073735 -0.465746
C90   C     C_3   0.538432 0.252421 0.073730 -0.465842
C91   C     C_3   0.038238 0.247498 0.073731 -0.465450
C92   C     C_3   0.038219 0.752509 0.073726 -0.465419
C93   C     C_3   0.436796 0.740728 0.956000 0.364080
C94   C     C_3   0.436927 0.259886 0.955998 0.364280
C95   C     C_3   0.936225 0.243949 0.956012 0.364193
C96   C     C_3   0.936183 0.755763 0.956015 0.364614
C97   C     C_3   0.463015 0.749223 0.926228 -0.451562
C98   C     C_3   0.463021 0.250787 0.926231 -0.451546
C99   C     C_3   0.962965 0.249264 0.926226 -0.452215
C100  C     C_3   0.962956 0.750730 0.926226 -0.452101
C101  C     C_3   0.506273 0.718509 0.954823 0.483455
C102  C     C_3   0.506713 0.281069 0.954820 0.483360
C103  C     C_3   0.003782 0.216424 0.954821 0.482722
C104  C     C_3   0.003529 0.783754 0.954811 0.482992
C105  C     C_3   0.556672 0.721728 0.043486 0.241314
C106  C     C_3   0.557067 0.277764 0.043490 0.241476
C107  C     C_3   0.054418 0.219171 0.043486 0.240118
C108  C     C_3   0.054193 0.781048 0.043482 0.240279
C109  C     C_1   0.422177 0.749705 0.844486 0.311127
C110  C     C_1   0.422177 0.250301 0.844489 0.311199
C111  C     C_1   0.922158 0.249732 0.844483 0.311325
C112  C     C_1   0.922151 0.750260 0.844487 0.311180
C113  C     C_1   0.578818 0.748579 0.155533 0.323625
C114  C     C_1   0.578831 0.251416 0.155532 0.323667
C115  C     C_1   0.078732 0.248552 0.155532 0.323611
C116  C     C_1   0.078729 0.751451 0.155535 0.323605
C117  C     C_1   0.611538 0.749444 0.221984 0.053805
C118  C     C_1   0.611540 0.250555 0.221978 0.053543
C119  C     C_1   0.111511 0.249444 0.221984 0.053737
C120  C     C_1   0.111506 0.750553 0.221977 0.053157
C121  C     C_3   0.782816 0.978433 0.584166 0.358327
C122  C     C_3   0.776211 0.022930 0.580010 0.328191
C123  C     C_3   0.252839 0.477179 0.562629 0.328457
C124  C     C_3   0.260215 0.521651 0.569928 0.356904
C125  C     C_3   0.775581 0.977629 0.476429 -0.031333
C126  C     C_3   0.783043 0.020591 0.487090 -0.001397
C127  C     C_3   0.297245 0.479432 0.517506 -0.001744
C128  C     C_3   0.291219 0.522323 0.504938 -0.031771
H9    H     H_    0.815695 0.966111 0.513927 0.212116
H10   H     H_    0.824523 0.024680 0.539638 0.200860
H11   H     H_    0.331191 0.475759 0.577862 0.200664
H12   H     H_    0.329343 0.534142 0.555233 0.210309
C129  C     C_1   0.749971 0.110971 0.499891 0.043057
C130  C     C_1   0.750002 0.889030 0.500317 0.042911
C131  C     C_1   0.249305 0.610966 0.499469 0.042953
C132  C     C_1   0.249683 0.389034 0.499650 0.042481
C133  C     C_3   0.748965 0.963056 0.501813 -0.352797
C134  C     C_3   0.749328 0.036900 0.500204 -0.349217
C135  C     C_3   0.248246 0.463088 0.498912 -0.348939
C136  C     C_3   0.247064 0.536958 0.499025 -0.351892
C137  C     C_3   0.690940 0.021901 0.438377 0.509494
C138  C     C_3   0.690659 0.978105 0.445437 0.502246
C139  C     C_3   0.192369 0.521840 0.424175 0.501344
C140  C     C_3   0.195509 0.478016 0.420763 0.508902
C141  C     C_1   0.749788 0.077747 0.499828 0.272371
C142  C     C_1   0.749706 0.922244 0.501053 0.262477
C143  C     C_1   0.248354 0.577760 0.499235 0.263369
C144  C     C_1   0.249205 0.422252 0.499266 0.273593
C145  C     C_3   0.804304 0.522753 0.580608 0.362916
C146  C     C_3   0.803476 0.477945 0.579032 0.353373
C147  C     C_3   0.304426 0.022753 0.580455 0.362935
C148  C     C_3   0.303594 0.977944 0.578878 0.353324
C149  C     C_3   0.701300 0.522109 0.489681 0.316673
C150  C     C_3   0.701282 0.477144 0.492342 0.327444
C151  C     C_3   0.201480 0.022110 0.490085 0.316660
C152  C     C_3   0.201475 0.977144 0.492760 0.327419
C153  C     C_1   0.749860 0.388967 0.500655 0.062445
C154  C     C_1   0.749975 0.611029 0.500328 0.064592
C155  C     C_1   0.249860 0.888967 0.500651 0.062609
C156  C     C_1   0.249975 0.111029 0.500322 0.064916
C157  C     C_3   0.749024 0.536905 0.500961 -0.429387
C158  C     C_3   0.747972 0.463075 0.501265 -0.432954
C159  C     C_3   0.249028 0.036905 0.500958 -0.429391
C160  C     C_3   0.247982 0.963075 0.501274 -0.432959
C161  C     C_3   0.736846 0.477408 0.430935 0.377447
C162  C     C_3   0.741940 0.521923 0.434048 0.388705
C163  C     C_3   0.236569 0.977408 0.430711 0.376813
C164  C     C_3   0.241653 0.021923 0.433790 0.388060
C165  C     C_1   0.749170 0.422189 0.501079 0.305966
C166  C     C_1   0.749557 0.577782 0.500522 0.310413
C167  C     C_1   0.249174 0.922189 0.501077 0.305842
C168  C     C_1   0.249557 0.077782 0.500515 0.310353
Cl1   Cl    Cl    0.584595 0.812995 0.586850 -0.327786
Cl2   Cl    Cl    0.588965 0.190189 0.595492 -0.327567
Cl3   Cl    Cl    0.074104 0.318958 0.565922 -0.327945
Cl4   Cl    Cl    0.085008 0.699463 0.615610 -0.323167
Cl5   Cl    Cl    0.477846 0.671471 0.527115 -0.293706
Cl6   Cl    Cl    0.472157 0.329219 0.515859 -0.290224
Cl7   Cl    Cl    0.990224 0.174461 0.551841 -0.296972
Cl8   Cl    Cl    0.985513 0.822446 0.562599 -0.314673
N1    N     N_R   0.400616 0.771361 0.934111 0.265593
O53   O     O_R   0.358666 0.776436 0.864261 -0.250966
O54   O     O_R   0.405481 0.791672 0.980442 -0.160271
N2    N     N_R   0.400312 0.229627 0.934111 0.265621
O55   O     O_R   0.358295 0.224653 0.864259 -0.251968
O56   O     O_R   0.404886 0.209589 0.980440 -0.160658
N3    N     N_R   0.902472 0.276426 0.934122 0.265621
O57   O     O_R   0.860933 0.282023 0.864269 -0.252785
O58   O     O_R   0.908950 0.298085 0.980445 -0.160882
N4    N     N_R   0.902664 0.723134 0.934131 0.265711
O59   O     O_R   0.861161 0.717494 0.864279 -0.252867
O60   O     O_R   0.909306 0.701359 0.980452 -0.161318
Cl9   Cl    Cl    0.473192 0.749300 0.098653 -0.285542
Cl10  Cl    Cl    0.473199 0.251832 0.098647 -0.285585
Cl11  Cl    Cl    0.973389 0.255188 0.098659 -0.286971
Cl12  Cl    Cl    0.973438 0.744293 0.098670 -0.290068
Cl13  Cl    Cl    0.591089 0.811787 0.089315 -0.266166
Cl14  Cl    Cl    0.590194 0.187547 0.089315 -0.266186
Cl15  Cl    Cl    0.095703 0.308083 0.089272 -0.265126
Cl16  Cl    Cl    0.096117 0.692257 0.089261 -0.265289
Cl17  Cl    Cl    0.509831 0.819068 0.076139 -0.283026
Cl18  Cl    Cl    0.508839 0.181366 0.076137 -0.283283
Cl19  Cl    Cl    0.015234 0.321070 0.076117 -0.283005
Cl20  Cl    Cl    0.015746 0.678770 0.076113 -0.283282
Cl21  Cl    Cl    0.444933 0.826659 0.913904 -0.267257
Cl22  Cl    Cl    0.443832 0.173532 0.913904 -0.268690
Cl23  Cl    Cl    0.950853 0.327384 0.913871 -0.267060
Cl24  Cl    Cl    0.951410 0.672571 0.913873 -0.267900
Cl25  Cl    Cl    0.521236 0.800333 0.926270 -0.267513
Cl26  Cl    Cl    0.520506 0.198823 0.926273 -0.268619
Cl27  Cl    Cl    0.024927 0.295754 0.926232 -0.266276
Cl28  Cl    Cl    0.025246 0.704658 0.926223 -0.267190
N5    N     N_R   0.573883 0.684106 0.076339 0.288641
O61   O     O_R   0.585692 0.660836 0.051187 -0.162204
O62   O     O_R   0.595550 0.678269 0.143235 -0.274448
N6    N     N_R   0.574813 0.315372 0.076341 0.288675
O63   O     O_R   0.586956 0.338280 0.051195 -0.162047
O64   O     O_R   0.596565 0.321380 0.143238 -0.274393
N7    N     N_R   0.068747 0.181600 0.076353 0.288621
O65   O     O_R   0.078700 0.156526 0.051209 -0.159751
O66   O     O_R   0.090011 0.176693 0.143258 -0.272657
N8    N     N_R   0.068257 0.818599 0.076358 0.288692
O67   O     O_R   0.078022 0.843822 0.051206 -0.159768
O68   O     O_R   0.089485 0.823421 0.143258 -0.272381
N9    N     N_R   0.503026 0.813467 0.446205 0.269939
O69   O     O_R   0.530776 0.821552 0.432860 -0.247286
O70   O     O_R   0.462016 0.833645 0.414465 -0.218586
N10   N     N_R   0.507598 0.184741 0.455265 0.269915
O71   O     O_R   0.535941 0.176208 0.443102 -0.246280
O72   O     O_R   0.468088 0.163474 0.426488 -0.218672
N11   N     N_R   0.993359 0.308260 0.426907 0.269931
O73   O     O_R   0.019907 0.315196 0.411164 -0.247729
O74   O     O_R   0.949354 0.325665 0.389175 -0.219084
N12   N     N_R   0.029831 0.681818 0.479840 0.278116
O75   O     O_R   0.070209 0.675722 0.490545 -0.277345
O76   O     O_R   0.994653 0.655907 0.447220 -0.222915
N13   N     N_R   0.604354 0.738180 0.067312 0.258775
O77   O     O_R   0.647818 0.737223 0.137161 -0.255679
O78   O     O_R   0.607069 0.750313 0.022413 -0.158945
N14   N     N_R   0.604512 0.260786 0.067311 0.258912
O79   O     O_R   0.647983 0.261635 0.137168 -0.256477
O80   O     O_R   0.607049 0.248285 0.022412 -0.159132
N15   N     N_R   0.103256 0.232831 0.067291 0.258972
O81   O     O_R   0.146618 0.231215 0.137144 -0.257188
O82   O     O_R   0.106818 0.242992 0.022380 -0.158317
N16   N     N_R   0.103127 0.767630 0.067285 0.258998
O83   O     O_R   0.146480 0.769303 0.137131 -0.257074
O84   O     O_R   0.106755 0.757648 0.022365 -0.158191
Cl29  Cl    Cl    0.477469 0.673020 0.928450 -0.283258
Cl30  Cl    Cl    0.478561 0.326786 0.928447 -0.283010
Cl31  Cl    Cl    0.971539 0.172259 0.928469 -0.277562
Cl32  Cl    Cl    0.970974 0.827783 0.928466 -0.278599
Cl33  Cl    Cl    0.488460 0.684601 0.064208 -0.254132
Cl34  Cl    Cl    0.489393 0.316045 0.064207 -0.254273
Cl35  Cl    Cl    0.983609 0.188185 0.064249 -0.254206
Cl36  Cl    Cl    0.983170 0.811481 0.064253 -0.254594
Cl37  Cl    Cl    0.391696 0.701903 0.908887 -0.262722
Cl38  Cl    Cl    0.392385 0.299023 0.908889 -0.261247
Cl39  Cl    Cl    0.888216 0.206888 0.908928 -0.261024
Cl40  Cl    Cl    0.887911 0.792659 0.908941 -0.261263
Cl41  Cl    Cl    0.521312 0.717668 0.900872 -0.293933
Cl42  Cl    Cl    0.521758 0.281291 0.900871 -0.293778
Cl43  Cl    Cl    0.018622 0.212354 0.900855 -0.291882
Cl44  Cl    Cl    0.018344 0.788101 0.900853 -0.292775
Cl45  Cl    Cl    0.839970 0.044761 0.650960 -0.345734
Cl46  Cl    Cl    0.850387 0.964618 0.641115 -0.386693
Cl47  Cl    Cl    0.327004 0.535187 0.651931 -0.387686
Cl48  Cl    Cl    0.308721 0.455245 0.649850 -0.341368
N17   N     N_R   0.750070 0.963649 0.403062 0.287714
O85   O     O_R   0.760940 0.930425 0.397946 -0.270416
O86   O     O_R   0.720279 0.984089 0.344049 -0.156365
N18   N     N_R   0.779812 0.039008 0.432467 0.297655
O87   O     O_R   0.753488 0.069242 0.398655 -0.255545
O88   O     O_R   0.811403 0.028247 0.427254 -0.208318
N19   N     N_R   0.314565 0.460676 0.486598 0.295294
O89   O     O_R   0.358434 0.470974 0.509319 -0.212857
O90   O     O_R   0.292443 0.430901 0.446763 -0.255950
N20   N     N_R   0.285004 0.535784 0.444545 0.288653
O91   O     O_R   0.298471 0.569541 0.447044 -0.274372
O92   O     O_R   0.270331 0.514562 0.391642 -0.154315
Cl49  Cl    Cl    0.658382 0.963774 0.472157 -0.277169
Cl50  Cl    Cl    0.647997 0.045270 0.440615 -0.294444
Cl51  Cl    Cl    0.138646 0.454701 0.389493 -0.295104
Cl52  Cl    Cl    0.140234 0.536215 0.414499 -0.277956
Cl53  Cl    Cl    0.649770 0.954996 0.357168 -0.284340
Cl54  Cl    Cl    0.661345 0.036003 0.348208 -0.255514
Cl55  Cl    Cl    0.191148 0.463767 0.349191 -0.251884
Cl56  Cl    Cl    0.172291 0.544778 0.344688 -0.278345
N21   N     N_R   0.491312 0.693722 0.410396 0.272699
O93   O     O_R   0.521970 0.687670 0.401326 -0.236775
O94   O     O_R   0.470168 0.664954 0.410900 -0.178256
N22   N     N_R   0.487358 0.302910 0.402581 0.272582
O95   O     O_R   0.517584 0.308637 0.392656 -0.237674
O96   O     O_R   0.464136 0.331614 0.398971 -0.177941
N23   N     N_R   0.000912 0.187194 0.429563 0.272785
O97   O     O_R   0.032605 0.180509 0.422553 -0.237338
O98   O     O_R   0.984317 0.158826 0.439148 -0.179413
N24   N     N_R   0.983522 0.796530 0.384882 0.290201
O99   O     O_R   0.940438 0.806940 0.319108 -0.158740
O100  O     O_R   0.026914 0.807817 0.407242 -0.272086
N25   N     N_R   0.771311 0.961136 0.623804 0.288842
O101  O     O_R   0.749572 0.928782 0.605554 -0.272007
O102  O     O_R   0.796717 0.972925 0.690020 -0.154051
N26   N     N_R   0.746150 0.036668 0.595827 0.264467
O103  O     O_R   0.749581 0.071307 0.612474 -0.234928
O104  O     O_R   0.714191 0.016160 0.590585 -0.200581
N27   N     N_R   0.207372 0.463668 0.548009 0.264435
O105  O     O_R   0.204712 0.428899 0.558026 -0.238429
O106  O     O_R   0.168374 0.484554 0.522540 -0.199698
N28   N     N_R   0.230679 0.539175 0.583526 0.289667
O107  O     O_R   0.239243 0.527660 0.639532 -0.154945
O108  O     O_R   0.208621 0.571304 0.556284 -0.272751
N29   N     N_R   0.814784 0.460577 0.642042 0.254697
O109  O     O_R   0.800385 0.474905 0.671926 -0.211430
O110  O     O_R   0.835011 0.427588 0.664028 -0.230463
N30   N     N_R   0.816442 0.538133 0.645190 0.265268
O111  O     O_R   0.800610 0.571103 0.641928 -0.287728
O112  O     O_R   0.859697 0.527591 0.710845 -0.154011
N31   N     N_R   0.315151 0.960577 0.642084 0.254674
O113  O     O_R   0.300967 0.974905 0.672251 -0.211208
O114  O     O_R   0.335386 0.927587 0.663980 -0.230679
N32   N     N_R   0.316818 0.038133 0.645232 0.265277
O115  O     O_R   0.301048 0.071102 0.642108 -0.287953
O116  O     O_R   0.360182 0.027590 0.710784 -0.154485
Cl57  Cl    Cl    0.639312 0.537304 0.400918 -0.257041
Cl58  Cl    Cl    0.639285 0.456264 0.411944 -0.264672
Cl59  Cl    Cl    0.139364 0.037305 0.401494 -0.257332
Cl60  Cl    Cl    0.139390 0.956265 0.412574 -0.264745
N33   N     N_R   0.703026 0.540504 0.543514 0.263707
O117  O     O_R   0.682933 0.573317 0.529026 -0.226931
O118  O     O_R   0.728975 0.527359 0.608918 -0.210899
N34   N     N_R   0.703842 0.462538 0.548987 0.274982
O119  O     O_R   0.668283 0.473522 0.546445 -0.150231
O120  O     O_R   0.721876 0.429431 0.575160 -0.282278
N35   N     N_R   0.203459 0.040504 0.544161 0.263658
O121  O     O_R   0.183392 0.073317 0.529797 -0.226860
O122  O     O_R   0.229600 0.027360 0.609631 -0.210730
N36   N     N_R   0.204296 0.962539 0.549653 0.275018
O123  O     O_R   0.168898 0.973524 0.547443 -0.150518
O124  O     O_R   0.222369 0.929433 0.575779 -0.281585
Cl61  Cl    Cl    0.795685 0.536534 0.446368 -0.281442
Cl62  Cl    Cl    0.781668 0.456309 0.429164 -0.285306
Cl63  Cl    Cl    0.295197 0.036535 0.445647 -0.278087
Cl64  Cl    Cl    0.281165 0.956309 0.428498 -0.282835
N37   N     N_R   0.698443 0.539239 0.360770 0.277215
O125  O     O_R   0.690918 0.528313 0.305267 -0.164012
O126  O     O_R   0.681572 0.572189 0.355002 -0.281337
N38   N     N_R   0.685585 0.462891 0.360664 0.262467
O127  O     O_R   0.681257 0.427997 0.344716 -0.251495
O128  O     O_R   0.643299 0.482691 0.315031 -0.182896
N39   N     N_R   0.198012 0.039240 0.360580 0.277275
O129  O     O_R   0.190254 0.028314 0.304880 -0.162352
O130  O     O_R   0.181198 0.072191 0.354950 -0.280574
N40   N     N_R   0.185217 0.962891 0.360597 0.262549
O131  O     O_R   0.180833 0.927997 0.344616 -0.250608
O132  O     O_R   0.142915 0.982691 0.315153 -0.182623
Cl65  Cl    Cl    0.860141 0.542089 0.601795 -0.269260
Cl66  Cl    Cl    0.856862 0.461218 0.591890 -0.265934
Cl67  Cl    Cl    0.360094 0.042087 0.601201 -0.270199
Cl68  Cl    Cl    0.356782 0.961217 0.591281 -0.266505
Cl69  Cl    Cl    0.468680 0.755886 0.344368 -0.301387
Cl70  Cl    Cl    0.469261 0.238571 0.345531 -0.302324
Cl71  Cl    Cl    0.968832 0.243337 0.344644 -0.299884
Cl72  Cl    Cl    0.963307 0.727637 0.354912 -0.348635
N41   N     N_R   0.400309 0.769775 0.364252 0.256164
O133  O     O_R   0.373870 0.768144 0.294434 -0.147244
O134  O     O_R   0.381484 0.791841 0.380850 -0.319664
N42   N     N_R   0.401883 0.225385 0.367361 0.256072
O135  O     O_R   0.375403 0.224539 0.297480 -0.147780
O136  O     O_R   0.384616 0.203955 0.387051 -0.320513
N43   N     N_R   0.898123 0.258613 0.359864 0.256312
O137  O     O_R   0.872388 0.251471 0.291446 -0.147342
O138  O     O_R   0.875687 0.281715 0.369245 -0.319233
N44   N     N_R   0.889310 0.749089 0.354919 0.259929
O139  O     O_R   0.863701 0.761103 0.288799 -0.153787
O140  O     O_R   0.866393 0.724552 0.361220 -0.325257
N45   N     N_R   0.399345 0.705812 0.378449 0.270065
O141  O     O_R   0.379437 0.695004 0.314258 -0.164231
O142  O     O_R   0.374272 0.696107 0.395385 -0.276678
N46   N     N_R   0.396295 0.289686 0.372423 0.270025
O143  O     O_R   0.375695 0.298195 0.306866 -0.163983
O144  O     O_R   0.370523 0.299955 0.387959 -0.276105
N47   N     N_R   0.907217 0.196585 0.394167 0.270174
O145  O     O_R   0.889436 0.180824 0.334220 -0.165483
O146  O     O_R   0.883581 0.188343 0.413965 -0.279935
N48   N     N_R   0.919920 0.807675 0.411012 0.253764
O147  O     O_R   0.943272 0.836553 0.415343 -0.182022
O148  O     O_R   0.877872 0.813254 0.396502 -0.247255
N49   N     N_R   0.602279 0.737917 0.636401 0.263205
O149  O     O_R   0.602017 0.756584 0.679575 -0.223526
O150  O     O_R   0.646643 0.735385 0.656098 -0.240768
N50   N     N_R   0.601208 0.266840 0.634266 0.263271
O151  O     O_R   0.602236 0.249739 0.679984 -0.223453
O152  O     O_R   0.645363 0.270081 0.653548 -0.241526
N51   N     N_R   0.103409 0.248752 0.638673 0.263166
O153  O     O_R   0.099905 0.270596 0.675381 -0.223582
O154  O     O_R   0.148048 0.247825 0.658920 -0.238565
N52   N     N_R   0.108699 0.776122 0.633714 0.268954
O155  O     O_R   0.123760 0.770877 0.696592 -0.171167
O156  O     O_R   0.145552 0.782745 0.636784 -0.280973
Cl73  Cl    Cl    0.576531 0.677199 0.563763 -0.281462
Cl74  Cl    Cl    0.571192 0.324835 0.553196 -0.281652
Cl75  Cl    Cl    0.087770 0.183047 0.586220 -0.282491
Cl76  Cl    Cl    0.053728 0.827838 0.537742 -0.268980
N53   N     N_R   0.524423 0.719856 0.629565 0.255872
O157  O     O_R   0.508236 0.745201 0.645592 -0.327336
O158  O     O_R   0.556828 0.695116 0.679674 -0.163065
N54   N     N_R   0.522074 0.284583 0.624909 0.255911
O159  O     O_R   0.507692 0.259861 0.644498 -0.328250
O160  O     O_R   0.552640 0.311044 0.671380 -0.163077
N55   N     N_R   0.028457 0.230352 0.637647 0.256260
O161  O     O_R   0.008130 0.256631 0.645422 -0.325249
O162  O     O_R   0.064477 0.209899 0.694971 -0.160262
N56   N     N_R   0.032160 0.762145 0.637833 0.260284
O163  O     O_R   0.020861 0.729296 0.643440 -0.305737
O164  O     O_R   0.053769 0.784455 0.693094 -0.158471

loop_
_geom_bond_atom_site_label_1
_geom_bond_atom_site_label_2
_geom_bond_distance
_ccdc_geom_bond_type
C31   C35   1.639276 S    
N47   O145  1.303731 A    
C6    C118  1.429874 S    
Zn5   O21   1.915802 S    
C146  Cl66  1.820051 S    
C145  C157  1.630273 S    
H4    C48   1.101264 S    
N16   O84   1.297968 A    
C136  C139  1.590555 S    
O23   C19   1.272627 A    
N39   O129  1.305151 A    
C35   C51   1.631523 S    
N9    O69   1.303084 A    
C157  C162  1.635489 S    
C127  C135  1.591152 S    
C11   C156  1.429804 S    
C78   C82   1.595584 S    
C34   N46   1.486378 S    
O42   C14   1.271590 A    
N48   O148  1.302823 A    
C30   C42   1.610897 S    
C32   N24   1.485361 S    
C123  Cl48  1.823542 S    
C122  N26   1.489916 S    
C32   C36   1.627609 S    
C29   N21   1.493236 S    
C36   N48   1.488589 S    
O46   C2    1.272033 A    
C155  C167  1.204253 T    
N53   O158  1.303193 A    
C96   N4    1.491283 S    
C60   Cl76  1.808307 S    
O34   C22   1.271818 A    
C128  H12   1.111049 S    
C79   C91   1.605383 S    
C4    C85   1.429915 S    
Zn3   O3    1.926906 S    
Zn16  O28   1.915972 S    
Zn5   O13   1.916808 S    
O28   C24   1.272319 A    
C14   C129  1.429266 S    
C127  N19   1.477508 S    
C123  C124  1.622513 S    
H2    C46   1.105297 S    
N36   O124  1.302254 A    
C42   C58   1.616762 S    
O27   C23   1.272269 A    
O11   C7    1.271654 A    
C151  N35   1.492102 S    
N22   O95   1.303480 A    
C100  C112  1.480648 S    
C93   N1    1.491321 S    
C32   Cl72  1.818666 S    
N12   O76   1.303033 A    
O33   C21   1.271878 A    
C128  N20   1.479328 S    
C73   Cl33  1.804680 S    
N30   O112  1.304960 A    
C126  N18   1.477988 S    
C36   N44   1.491400 S    
C26   N10   1.479992 S    
C27   C47   1.564409 S    
C30   C34   1.639203 S    
C159  C168  1.481455 S    
C107  N15   1.490091 S    
N28   O108  1.300796 A    
N43   O138  1.301563 A    
C124  N28   1.481376 S    
C149  C150  1.630765 S    
N49   O150  1.303075 A    
O16   C12   1.272139 A    
C133  C142  1.479444 S    
C58   N50   1.492178 S    
C147  C148  1.623876 S    
C78   Cl18  1.802846 S    
Zn16  O4    1.927006 S    
C131  C143  1.203587 T    
Zn12  O4    1.926079 S    
Zn13  O5    1.916380 S    
N55   O162  1.303238 A    
C101  Cl29  1.807066 S    
C126  C134  1.591153 S    
C95   N3    1.491304 S    
C102  C106  1.625274 S    
C103  Cl31  1.807246 S    
C20   C37   1.430283 S    
N2    O56   1.297852 A    
Zn6   O14   1.916672 S    
N34   O120  1.302253 A    
C48   H8    1.106646 S    
Zn7   O3    1.926849 S    
C31   N23   1.493150 S    
N29   O109  1.300310 A    
C41   C65   1.480991 S    
N56   O163  1.299256 A    
C149  C157  1.628532 S    
N27   O105  1.302847 A    
C122  C134  1.602480 S    
N40   O132  1.301943 A    
C104  Cl44  1.808260 S    
C94   C98   1.612673 S    
N3    O58   1.297862 A    
C76   Cl36  1.804751 S    
C145  N30   1.486908 S    
O25   C21   1.272295 A    
C84   Cl24  1.808287 S    
C88   C112  1.203639 T    
C59   Cl75  1.817542 S    
C47   C51   1.575704 S    
C91   C115  1.482229 S    
C164  Cl63  1.816575 S    
C92   C116  1.482369 S    
O24   C20   1.272739 A    
C99   C111  1.480723 S    
N6    O64   1.301811 A    
N33   O117  1.303401 A    
C146  N29   1.494453 S    
C153  C165  1.204255 T    
N52   O155  1.297959 A    
C74   C94   1.616473 S    
Zn8   O16   1.916672 S    
C127  H11   1.109753 S    
Zn10  O2    1.926079 S    
C75   C91   1.614381 S    
C158  C165  1.482217 S    
Zn11  O19   1.917106 S    
N18   O87   1.300590 A    
C56   N56   1.493983 S    
Zn9   O49   1.916399 S    
C80   Cl16  1.809080 S    
C73   Cl9   1.808328 S    
Zn4   O4    1.926636 S    
C103  Cl43  1.808343 S    
C82   Cl22  1.808396 S    
C124  Cl47  1.821999 S    
C51   C63   1.482270 S    
Zn7   O23   1.915802 S    
C28   C44   1.611894 S    
C77   Cl13  1.809175 S    
Zn8   O24   1.915655 S    
N1    O54   1.297917 A    
C135  C140  1.594154 S    
C34   N42   1.496333 S    
N23   O97   1.303496 A    
C138  Cl53  1.808602 S    
N26   O103  1.302904 A    
C30   Cl70  1.819173 S    
N44   O140  1.301867 A    
N15   O82   1.297977 A    
N37   O125  1.305146 A    
C130  C142  1.203800 T    
C156  C168  1.204844 T    
N19   O89   1.301861 A    
C90   C106  1.624058 S    
C17   C40   1.430340 S    
C149  Cl57  1.815189 S    
C74   Cl10  1.808324 S    
C55   N55   1.484528 S    
C102  Cl30  1.807145 S    
C16   C131  1.429389 S    
N7    O66   1.301843 A    
C19   C38   1.430201 S    
Zn12  O52   1.916381 S    
C97   C109  1.480697 S    
N8    O67   1.302871 A    
O22   C18   1.272692 A    
C55   Cl7   1.807105 S    
N14   O80   1.297948 A    
C148  C160  1.623963 S    
N51   O154  1.303069 A    
C76   C96   1.616472 S    
N13   O78   1.298026 A    
Zn13  O41   1.916786 S    
C80   C92   1.605498 S    
O50   C6    1.271835 A    
C75   C95   1.616453 S    
C78   Cl14  1.809105 S    
N1    O53   1.303618 A    
C46   C50   1.575793 S    
Zn1   O37   1.917144 S    
N24   O99   1.303139 A    
C50   C62   1.482326 S    
C162  Cl61  1.816576 S    
C79   Cl19  1.802825 S    
Zn2   O34   1.915872 S    
C108  N8    1.487706 S    
C122  Cl45  1.824087 S    
Zn3   O39   1.917144 S    
C54   N54   1.484534 S    
N46   O143  1.303621 A    
C160  C167  1.482213 S    
Zn6   O22   1.915655 S    
C147  Cl67  1.822938 S    
N10   O72   1.301361 A    
C25   C45   1.564465 S    
C40   C64   1.203980 T    
C26   Cl2   1.808045 S    
N54   O159  1.301926 A    
C82   C98   1.597900 S    
N53   O157  1.301962 A    
C23   C71   1.429913 S    
Zn10  O50   1.916381 S    
C73   C93   1.616477 S    
C35   N47   1.486357 S    
N35   O122  1.300015 A    
C79   C83   1.595606 S    
C80   C84   1.595623 S    
C73   C89   1.614363 S    
O49   C5    1.272041 A    
C150  N34   1.484202 S    
C137  C138  1.598103 S    
O5    C1    1.271780 A    
N42   O135  1.302595 A    
O26   C22   1.272402 A    
O31   C19   1.271348 A    
C49   C53   1.602755 S    
C53   C57   1.618751 S    
C51   C55   1.602804 S    
C44   C60   1.618942 S    
C123  N27   1.489819 S    
N5    O61   1.302977 A    
Zn5   O45   1.916457 S    
C54   Cl6   1.807300 S    
C150  Cl58  1.821244 S    
Zn7   O47   1.916457 S    
N4    O60   1.297812 A    
Zn8   O48   1.916492 S    
C149  N33   1.492101 S    
N38   O127  1.303629 A    
C45   H5    1.106234 S    
N32   O116  1.304959 A    
C38   C62   1.204668 T    
O51   C7    1.272111 A    
C96   Cl40  1.821125 S    
O8    C4    1.271876 A    
C132  C144  1.203724 T    
C105  N13   1.489937 S    
C77   C89   1.605481 S    
N2    O55   1.303613 A    
C133  C138  1.590546 S    
Zn13  O25   1.916115 S    
C36   C52   1.612609 S    
O52   C8    1.271867 A    
C128  C136  1.586840 S    
C147  N32   1.486906 S    
Zn1   O1    1.926906 S    
O40   C12   1.271476 A    
Zn13  O1    1.926701 S    
Zn14  O6    1.916397 S    
C161  N38   1.496088 S    
Zn3   O11   1.916302 S    
C18   C39   1.430274 S    
Zn15  O27   1.916115 S    
C26   C46   1.564402 S    
C101  C105  1.625176 S    
C9    C154  1.429808 S    
C56   Cl8   1.826635 S    
C13   C130  1.429409 S    
O9    C5    1.271697 A    
C42   C66   1.480988 S    
C121  C122  1.622354 S    
C115  C119  1.204183 T    
N25   O102  1.303283 A    
C74   Cl34  1.804749 S    
C59   N51   1.492281 S    
C113  C117  1.204165 T    
C100  C104  1.614434 S    
O13   C9    1.271923 A    
N50   O151  1.301771 A    
C57   Cl73  1.817652 S    
N20   O91   1.301620 A    
C81   C97   1.597959 S    
N55   O161  1.301907 A    
C93   C97   1.612755 S    
O18   C14   1.271205 A    
O6    C2    1.271890 A    
Zn4   O40   1.917280 S    
C96   C100  1.612607 S    
C28   N12   1.486642 S    
Zn9   O29   1.916033 S    
C5    C117  1.429830 S    
C129  C141  1.203893 T    
Zn11  O31   1.916033 S    
C32   C44   1.629925 S    
C1    C88   1.429860 S    
C107  N7    1.487801 S    
Zn12  O32   1.916176 S    
H1    C45   1.105500 S    
C135  C144  1.479967 S    
N22   O96   1.298913 A    
N3    O57   1.303636 A    
Zn15  O3    1.926701 S    
C158  C161  1.627893 S    
Zn11  O3    1.926385 S    
N8    O68   1.301730 A    
C116  C120  1.204012 T    
O43   C15   1.271547 A    
C80   Cl20  1.802901 S    
C31   C43   1.610930 S    
N41   O134  1.301494 A    
Zn5   O1    1.926849 S    
C54   C58   1.618710 S    
C47   H7    1.106207 S    
C163  C164  1.619093 S    
C77   Cl17  1.802915 S    
C27   N11   1.480099 S    
N45   O142  1.301118 A    
C85   C109  1.203675 T    
C8    C120  1.429921 S    
O35   C23   1.271901 A    
C83   Cl23  1.808383 S    
O32   C20   1.271286 A    
C29   Cl69  1.819205 S    
C137  Cl50  1.806618 S    
N17   O86   1.300467 A    
C98   C102  1.614344 S    
C15   C132  1.429320 S    
C52   C56   1.611878 S    
N16   O83   1.302925 A    
C106  N14   1.490089 S    
Zn9   O17   1.917106 S    
C105  N5    1.487721 S    
N56   O164  1.304907 A    
H3    C47   1.105442 S    
C76   C92   1.614300 S    
C60   N52   1.497255 S    
N9    O70   1.301473 A    
Zn14  O42   1.916632 S    
C52   C64   1.480748 S    
N11   O73   1.303028 A    
O7    C3    1.271708 A    
C162  N37   1.489018 S    
C79   Cl15  1.809146 S    
Zn2   O38   1.917280 S    
C27   Cl3   1.808079 S    
N7    O65   1.302949 A    
O19   C15   1.271390 A    
N48   O147  1.300040 A    
C81   Cl25  1.801600 S    
C37   C61   1.204584 T    
C160  C163  1.627901 S    
C33   C49   1.631643 S    
N43   O137  1.302551 A    
C152  N36   1.484201 S    
O37   C9    1.271663 A    
N51   O153  1.301743 A    
C134  C141  1.480272 S    
N47   O146  1.300919 A    
N52   O156  1.302513 A    
C147  C159  1.630277 S    
N18   O88   1.301578 A    
C25   C41   1.599790 S    
C125  C133  1.586284 S    
C22   C70   1.429863 S    
C89   C113  1.482184 S    
C66   C70   1.203887 T    
N36   O123  1.304607 A    
C123  C135  1.602048 S    
O36   C24   1.271928 A    
C28   Cl4   1.800962 S    
C101  Cl41  1.808261 S    
O12   C8    1.271474 A    
C139  C140  1.598760 S    
C121  C133  1.614182 S    
N39   O130  1.301041 A    
N26   O104  1.300092 A    
C25   N9    1.480135 S    
C65   C69   1.203957 T    
N12   O75   1.301923 A    
Zn3   O35   1.915726 S    
Zn15  O43   1.916786 S    
C68   C72   1.205421 T    
N30   O111  1.301876 A    
N21   O93   1.303441 A    
N31   O113  1.300305 A    
N19   O90   1.300425 A    
C152  Cl60  1.821242 S    
C121  N25   1.481523 S    
Zn6   O46   1.916492 S    
C55   C59   1.618771 S    
N21   O94   1.298993 A    
N28   O107  1.303264 A    
C136  C143  1.479101 S    
C151  Cl59  1.815192 S    
C154  C166  1.204848 T    
C39   C63   1.204633 T    
N13   O77   1.302950 A    
C33   N41   1.496373 S    
C157  C166  1.481456 S    
C163  N40   1.496088 S    
C77   C81   1.595579 S    
N24   O100  1.300912 A    
N15   O81   1.303009 A    
N14   O79   1.303024 A    
N34   O119  1.304604 A    
C102  Cl42  1.808189 S    
N46   O144  1.300913 A    
N35   O121  1.303400 A    
N29   O110  1.303557 A    
C78   C90   1.605445 S    
C106  N6    1.487719 S    
C34   C50   1.631605 S    
C139  Cl56  1.808481 S    
C75   Cl35  1.804755 S    
O38   C10   1.271477 A    
C7    C119  1.429793 S    
C127  C128  1.570763 S    
C146  C158  1.623970 S    
C3    C86   1.429877 S    
Zn2   O2    1.926636 S    
O44   C16   1.271115 A    
C125  C126  1.570565 S    
Zn14  O2    1.927006 S    
N54   O160  1.303264 A    
C26   C42   1.599954 S    
C125  N17   1.478478 S    
C43   C59   1.616744 S    
Zn8   O4    1.927120 S    
C41   C57   1.616853 S    
Zn4   O36   1.915872 S    
N42   O136  1.301588 A    
N6    O63   1.302913 A    
C76   Cl12  1.808279 S    
C161  C162  1.619078 S    
N33   O118  1.300017 A    
Zn16  O44   1.916632 S    
C21   C69   1.429866 S    
C35   N43   1.496263 S    
C57   N49   1.492290 S    
C151  C159  1.628530 S    
O39   C11   1.271663 A    
C87   C111  1.203637 T    
C45   C49   1.575772 S    
N40   O131  1.303630 A    
C124  C136  1.615182 S    
C91   C107  1.624110 S    
C121  Cl46  1.821918 S    
C164  N39   1.489018 S    
C27   C43   1.599957 S    
N23   O98   1.298806 A    
Zn10  O30   1.916176 S    
C159  C164  1.635490 S    
C148  N31   1.494458 S    
Zn12  O20   1.917260 S    
C145  Cl65  1.822936 S    
C139  Cl52  1.798641 S    
Zn14  O26   1.915972 S    
Zn15  O7    1.916380 S    
N44   O139  1.302534 A    
C84   Cl28  1.801561 S    
Zn16  O8    1.916397 S    
C83   C99   1.597827 S    
Zn1   O9    1.916302 S    
C84   C100  1.597915 S    
C12   C155  1.429774 S    
C67   C71   1.203970 T    
C56   C60   1.632473 S    
N5    O62   1.301803 A    
Zn4   O12   1.916267 S    
Zn11  O51   1.916399 S    
C103  C107  1.625250 S    
C93   Cl37  1.821186 S    
C108  N16   1.490168 S    
Zn6   O2    1.927120 S    
C74   C90   1.614340 S    
Zn7   O15   1.916808 S    
C95   Cl39  1.821135 S    
C148  Cl68  1.820063 S    
C46   H6    1.106090 S    
C25   Cl1   1.808063 S    
Zn2   O10   1.916267 S    
C86   C110  1.203691 T    
C99   C103  1.614382 S    
C140  Cl51  1.806771 S    
C92   C108  1.624050 S    
C95   C99   1.612699 S    
C83   Cl27  1.801673 S    
C90   C114  1.482239 S    
C137  Cl54  1.800799 S    
C50   C54   1.602735 S    
O29   C17   1.271506 A    
N27   O106  1.299997 A    
C97   C101  1.614431 S    
C43   C67   1.481038 S    
N49   O149  1.301699 A    
Zn10  O18   1.917260 S    
C53   Cl5   1.807107 S    
N25   O101  1.300970 A    
Zn9   O1    1.926385 S    
N10   O71   1.302991 A    
N50   O152  1.303091 A    
N20   O92   1.300401 A    
O41   C13   1.270673 A    
C150  C158  1.619918 S    
C29   C41   1.610974 S    
C163  Cl64  1.823288 S    
C104  C108  1.625389 S    
C81   Cl21  1.808289 S    
O45   C1    1.271838 A    
C82   Cl26  1.801621 S    
C125  H9    1.110936 S    
C2    C87   1.429900 S    
C145  C146  1.623883 S    
C28   C48   1.559319 S    
O47   C3    1.271881 A    
C44   C68   1.481107 S    
C134  C137  1.593786 S    
C138  Cl49  1.798575 S    
O15   C11   1.271927 A    
C104  Cl32  1.807008 S    
C140  Cl55  1.800291 S    
C31   Cl71  1.819346 S    
C89   C105  1.624136 S    
O21   C17   1.272585 A    
N11   O74   1.301399 A    
C98   C110  1.480700 S    
N17   O85   1.301568 A    
N31   O114  1.303561 A    
C75   Cl11  1.808245 S    
N41   O133  1.302553 A    
O17   C13   1.272056 A    
O20   C16   1.271883 A    
C10   C153  1.429768 S    
C53   N53   1.484405 S    
N38   O128  1.301946 A    
O10   C6    1.271535 A    
C94   Cl38  1.821155 S    
C33   N45   1.486357 S    
O48   C4    1.272059 A    
N45   O141  1.303701 A    
C24   C72   1.429950 S    
C30   N22   1.493088 S    
N4    O59   1.303643 A    
C114  C118  1.204096 T    
O14   C10   1.272141 A    
C58   Cl74  1.817620 S    
N37   O126  1.301044 A    
C126  H10   1.109682 S    
C151  C152  1.630765 S    
C152  C160  1.619919 S    
N32   O115  1.301879 A    
C94   N2    1.491368 S    
C49   C61   1.482246 S    
C161  Cl62  1.823288 S    
Zn1   O33   1.915726 S    
C29   C33   1.639282 S    
C48   C52   1.570913 S    
O30   C18   1.271347 A    
