data_mof_unit_16906.cif
_audit_creation_date              2012-12-10T17:21:05-0500
_audit_creation_method            fapswitch 2.2
_symmetry_space_group_name_H-M    P1
_symmetry_Int_Tables_number       1
_space_group_crystal_system       triclinic
_cell_length_a                    18.268149
_cell_length_b                    25.973211
_cell_length_c                    18.308011
_cell_angle_alpha                 90.519112
_cell_angle_beta                  90.041595
_cell_angle_gamma                 89.98919
_cell_volume                      8686.47164921

loop_
_atom_site_label
_atom_site_type_symbol
_atom_type_description
_atom_site_fract_x
_atom_site_fract_y
_atom_site_fract_z
_atom_type_partial_charge
C1    C     C_R   0.394062 0.253657 0.136268 0.830276
C2    C     C_R   0.389154 0.750642 0.859395 0.995291
C3    C     C_R   0.390311 0.749309 0.139409 0.999692
C4    C     C_R   0.388887 0.248684 0.859330 1.046973
C5    C     C_R   0.888965 0.749671 0.640848 1.012915
C6    C     C_R   0.890038 0.249286 0.360279 0.930133
C7    C     C_R   0.888564 0.252400 0.641438 0.983155
C8    C     C_R   0.889903 0.749919 0.360264 1.046013
C9    C     C_R   0.348026 0.833471 0.339562 0.253976
C10   C     C_R   0.401053 0.124550 0.699435 0.255798
C11   C     C_R   0.582894 0.152352 0.126523 0.219026
C12   C     C_R   0.548549 0.630032 0.862815 0.287177
C13   C     C_R   0.947042 0.388677 0.775765 0.234040
C14   C     C_R   0.906005 0.623495 0.205044 0.236845
C15   C     C_R   0.856424 0.672040 0.846202 0.241388
C16   C     C_R   0.972294 0.387770 0.275203 0.235998
C17   C     C_R   0.364209 0.809569 0.272278 0.363418
C18   C     C_R   0.397573 0.163580 0.753214 0.378538
C19   C     C_R   0.540366 0.197733 0.121696 0.432102
C20   C     C_R   0.503444 0.673755 0.866515 0.373076
C21   C     C_R   0.930632 0.347566 0.727292 0.376003
C22   C     C_R   0.899599 0.664069 0.256104 0.380589
C23   C     C_R   0.861948 0.704402 0.784903 0.365586
C24   C     C_R   0.934230 0.340777 0.282494 0.409304
C25   C     C_R   0.430046 0.780052 0.263384 -0.086732
C26   C     C_R   0.445610 0.207248 0.749584 -0.114148
C27   C     C_R   0.513536 0.221451 0.186371 -0.081620
C28   C     C_R   0.500223 0.709073 0.806954 -0.082357
C29   C     C_R   0.957994 0.296994 0.742115 -0.114589
C30   C     C_R   0.947023 0.708077 0.251615 -0.108815
C31   C     C_R   0.932075 0.723499 0.763185 -0.101270
C32   C     C_R   0.973104 0.293516 0.276397 -0.074003
C33   C     C_R   0.001490 0.290752 0.805156 -0.096709
C34   C     C_R   0.995932 0.711291 0.191715 -0.087390
C35   C     C_R   0.992582 0.713760 0.808603 -0.086093
C36   C     C_R   0.041941 0.293305 0.243612 -0.112010
C37   C     C_R   0.483727 0.780598 0.320216 -0.092029
C38   C     C_R   0.494419 0.211060 0.689419 -0.091713
C39   C     C_R   0.545023 0.207495 0.253359 -0.094344
C40   C     C_R   0.550717 0.703765 0.748215 -0.089875
C41   C     C_R   0.443542 0.750071 0.198723 -0.089465
C42   C     C_R   0.445722 0.247464 0.803826 -0.086378
C43   C     C_R   0.458023 0.259733 0.186245 -0.088231
C44   C     C_R   0.446598 0.749192 0.804573 -0.079572
C45   C     C_R   0.948791 0.253393 0.694232 -0.074215
C46   C     C_R   0.945756 0.749535 0.303814 -0.090749
C47   C     C_R   0.944302 0.751657 0.697826 -0.079176
C48   C     C_R   0.947515 0.246710 0.305592 -0.080676
C49   C     C_R   0.507890 0.720209 0.190396 -0.153973
C50   C     C_R   0.497493 0.288423 0.802794 -0.071658
C51   C     C_R   0.453694 0.295124 0.245430 -0.164006
C52   C     C_R   0.447531 0.787771 0.750078 -0.153194
C53   C     C_R   0.001949 0.212993 0.693420 -0.049035
C54   C     C_R   0.996446 0.791440 0.300629 -0.070777
C55   C     C_R   0.010612 0.779666 0.686421 -0.058636
C56   C     C_R   0.982475 0.199009 0.287398 -0.162917
C57   C     C_R   0.056318 0.213372 0.748473 0.007389
C58   C     C_R   0.051232 0.789828 0.246313 0.003525
C59   C     C_R   0.064828 0.777920 0.741513 0.008326
C60   C     C_R   0.035670 0.199201 0.231104 0.049240
C61   C     C_R   0.565190 0.727559 0.240346 0.045723
C62   C     C_R   0.548210 0.289935 0.744757 0.012304
C63   C     C_R   0.488494 0.282517 0.311670 0.041484
C64   C     C_R   0.506240 0.787951 0.700202 0.039418
C65   C     C_R   0.052567 0.249872 0.806049 -0.023842
C66   C     C_R   0.051009 0.750048 0.193119 -0.018808
C67   C     C_R   0.054582 0.746265 0.802982 -0.026555
C68   C     C_R   0.063652 0.246988 0.206819 -0.068656
C69   C     C_R   0.551466 0.753912 0.306875 -0.012110
C70   C     C_R   0.549449 0.249949 0.691740 -0.013980
C71   C     C_R   0.542586 0.243161 0.312098 -0.089166
C72   C     C_R   0.555915 0.745894 0.697936 -0.013986
C73   C     C_R   0.517727 0.683288 0.132680 0.390603
C74   C     C_R   0.501335 0.327564 0.858923 0.433590
C75   C     C_R   0.415494 0.343003 0.241062 0.475352
C76   C     C_R   0.392962 0.827587 0.744785 0.398076
C77   C     C_R   0.006409 0.174786 0.636316 0.427913
C78   C     C_R   0.995067 0.834745 0.350394 0.417021
C79   C     C_R   0.023515 0.810936 0.623406 0.411874
C80   C     C_R   0.966264 0.151038 0.322153 0.451059
C81   C     C_R   0.587630 0.664832 0.115382 0.529421
C82   C     C_R   0.547920 0.370505 0.850143 0.433101
C83   C     C_R   0.395937 0.369518 0.305014 0.484254
C84   C     C_R   0.402671 0.869193 0.697745 0.523782
C85   C     C_R   0.065159 0.139117 0.634939 0.407238
C86   C     C_R   0.050053 0.873055 0.347209 0.432320
C87   C     C_R   0.090109 0.838534 0.616483 0.413052
C88   C     C_R   0.991966 0.104540 0.292541 0.517141
C89   C     C_R   0.109975 0.249963 0.860706 0.804284
C90   C     C_R   0.109493 0.749738 0.139117 0.803507
C91   C     C_R   0.108756 0.747948 0.861448 0.795657
C92   C     C_R   0.111809 0.249315 0.142316 0.792941
C93   C     C_R   0.609008 0.751247 0.361510 0.787606
C94   C     C_R   0.609213 0.249751 0.638954 0.792785
C95   C     C_R   0.606153 0.247079 0.363093 0.801807
C96   C     C_R   0.612483 0.747451 0.642045 0.796033
C97   C     C_R   0.119655 0.142135 0.688261 -0.310987
C98   C     C_R   0.104823 0.869334 0.294462 -0.263910
C99   C     C_R   0.142479 0.835902 0.671896 -0.298544
C100  C     C_R   0.040260 0.105272 0.233433 -0.369819
C101  C     C_R   0.646793 0.678447 0.159820 -0.371299
C102  C     C_R   0.594080 0.372557 0.789674 -0.304058
C103  C     C_R   0.418876 0.350666 0.372699 -0.377748
C104  C     C_R   0.463316 0.870241 0.651595 -0.308550
C105  C     C_R   0.114943 0.177970 0.744376 -0.240996
C106  C     C_R   0.105303 0.828844 0.244926 -0.184860
C107  C     C_R   0.129970 0.806525 0.733284 -0.242613
C108  C     C_R   0.064160 0.151778 0.205301 -0.209616
C109  C     C_R   0.635218 0.706972 0.223277 -0.223300
C110  C     C_R   0.596500 0.332327 0.739701 -0.223186
C111  C     C_R   0.465653 0.308433 0.375931 -0.174176
C112  C     C_R   0.513038 0.829909 0.651428 -0.192271
C113  C     C_R   0.323122 0.054817 0.113214 -0.215120
C114  C     C_R   0.326919 0.948151 0.112464 -0.211048
C115  C     C_R   0.784006 0.554317 0.629653 -0.254238
C116  C     C_R   0.759988 0.448752 0.635130 -0.240349
C117  C     C_R   0.362842 0.029513 0.167454 0.244290
C118  C     C_R   0.365407 0.975347 0.166743 0.245332
C119  C     C_R   0.788867 0.529252 0.696760 0.274209
C120  C     C_R   0.773109 0.476211 0.700280 0.308937
C121  C     C_R   0.288883 0.973665 0.055644 0.021593
C122  C     C_R   0.287672 0.027688 0.055618 0.033465
C123  C     C_R   0.758439 0.473742 0.566807 0.032433
C124  C     C_R   0.764943 0.527532 0.564975 0.034992
C125  C     C_R   0.250394 0.946370 0.000233 -0.103704
C126  C     C_R   0.248610 0.053520 0.999956 -0.097605
C127  C     C_R   0.748572 0.446330 0.500572 -0.091022
C128  C     C_R   0.750755 0.553503 0.499042 -0.087922
C129  C     C_R   0.209508 0.972121 0.945935 0.025712
C130  C     C_R   0.206991 0.026136 0.946744 0.029575
C131  C     C_R   0.736232 0.472089 0.434035 0.027805
C132  C     C_R   0.735035 0.526203 0.433736 0.026938
C133  C     C_R   0.171281 0.944848 0.890238 -0.149128
C134  C     C_R   0.162577 0.051273 0.894207 -0.192394
C135  C     C_R   0.723907 0.444782 0.367950 -0.184198
C136  C     C_R   0.719105 0.551873 0.367875 -0.174053
C137  C     C_R   0.123117 0.969706 0.842855 0.230289
C138  C     C_R   0.117295 0.023495 0.846190 0.223852
C139  C     C_R   0.708975 0.470442 0.302641 0.238966
C140  C     C_R   0.705957 0.524602 0.302732 0.264625
C141  C     C_R   0.249746 0.109219 0.998877 0.790350
C142  C     C_R   0.250130 0.890727 0.000661 0.803331
C143  C     C_R   0.750145 0.609245 0.499208 0.795360
C144  C     C_R   0.749793 0.390704 0.500950 0.800779
C145  C     C_R   0.249009 0.391239 0.999965 0.940175
C146  C     C_R   0.250101 0.608719 0.999578 0.941781
C147  C     C_R   0.750798 0.891244 0.500190 0.931739
C148  C     C_R   0.750731 0.108738 0.499848 0.929416
C149  C     C_3   0.320831 0.469817 0.041452 0.433003
C150  C     C_3   0.185682 0.530566 0.051977 0.430502
C151  C     C_3   0.327240 0.530636 0.029863 0.392642
C152  C     C_3   0.177437 0.469734 0.041441 0.389451
C153  C     C_3   0.812964 0.970411 0.556255 0.436289
C154  C     C_3   0.678198 0.030138 0.539854 0.439635
C155  C     C_3   0.821438 0.031027 0.545244 0.429608
C156  C     C_3   0.672551 0.969347 0.527427 0.490221
C157  C     C_3   0.247622 0.469314 0.917163 0.599389
C158  C     C_3   0.238408 0.529469 0.917761 0.598964
C159  C     C_3   0.766779 0.969460 0.419968 0.572508
C160  C     C_3   0.755819 0.029414 0.418692 0.559774
C161  C     C_3   0.248907 0.449119 0.999426 -0.138973
C162  C     C_3   0.250055 0.550780 0.999020 -0.131898
C163  C     C_3   0.750992 0.949113 0.500499 -0.157057
C164  C     C_3   0.751466 0.050823 0.500331 -0.167164
C165  C     C_R   0.996080 0.328071 0.862795 0.096568
C166  C     C_R   0.986457 0.676330 0.131378 0.085792
C167  C     C_R   0.989071 0.670689 0.856193 0.032367
C168  C     C_R   0.084299 0.339197 0.250637 0.085631
C169  C     C_R   0.467602 0.808755 0.386823 0.106573
C170  C     C_R   0.484161 0.177093 0.627725 0.106099
C171  C     C_R   0.575578 0.157519 0.259379 0.117284
C172  C     C_R   0.594797 0.657395 0.744490 0.057611
C173  C     C_R   0.971061 0.377724 0.847002 0.356824
C174  C     C_R   0.944825 0.631286 0.139889 0.330242
C175  C     C_R   0.920553 0.650150 0.875356 0.320646
C176  C     C_R   0.048768 0.386746 0.262155 0.321794
C177  C     C_R   0.397519 0.829982 0.397964 0.349297
C178  C     C_R   0.439940 0.133064 0.634395 0.338361
C179  C     C_R   0.594135 0.129687 0.195798 0.322512
C180  C     C_R   0.595959 0.622962 0.803589 0.368492
H1    H     H_    0.158394 0.177454 0.784581 0.157579
H2    H     H_    0.148846 0.828944 0.204986 0.161320
H3    H     H_    0.172492 0.806534 0.774349 0.178990
H4    H     H_    0.107294 0.149552 0.165193 0.183348
H5    H     H_    0.682329 0.712893 0.258100 0.175426
H6    H     H_    0.635528 0.336019 0.695682 0.161589
H7    H     H_    0.480529 0.294962 0.429580 0.191720
H8    H     H_    0.556929 0.832531 0.612154 0.172400
H9    H     H_    0.319726 0.096247 0.117960 0.155404
H10   H     H_    0.326730 0.906701 0.116087 0.174217
H11   H     H_    0.793841 0.595420 0.629171 0.149510
H12   H     H_    0.749570 0.407792 0.638376 0.135771
H13   H     H_    0.177353 0.903734 0.883297 0.166953
H14   H     H_    0.160833 0.092647 0.890355 0.166664
H15   H     H_    0.725271 0.403129 0.366632 0.144495
H16   H     H_    0.716357 0.593451 0.366673 0.133389
H17   H     H_    0.165564 0.115721 0.687420 0.180080
H18   H     H_    0.147329 0.898291 0.291150 0.176619
H19   H     H_    0.193449 0.856996 0.667828 0.205937
H20   H     H_    0.062825 0.069747 0.211677 0.165088
H21   H     H_    0.701315 0.664307 0.147846 0.167007
H22   H     H_    0.628968 0.405449 0.781383 0.167428
H23   H     H_    0.402481 0.369638 0.423001 0.172484
H24   H     H_    0.471152 0.901714 0.613960 0.161920
O1    O     O_3   0.249990 0.250010 0.000000 -0.513428
O2    O     O_3   0.249990 0.749990 0.000000 -0.511114
O3    O     O_3   0.749990 0.750010 0.500000 -0.516924
O4    O     O_3   0.749990 0.249990 0.500000 -0.517197
O5    O     O_R   0.335430 0.280650 0.146160 -0.630203
O6    O     O_R   0.335430 0.719350 0.853840 -0.645783
O7    O     O_R   0.335430 0.719350 0.146160 -0.612614
O8    O     O_R   0.335430 0.280650 0.853840 -0.633208
O9    O     O_R   0.835430 0.780650 0.646160 -0.582021
O10   O     O_R   0.835430 0.219350 0.353840 -0.589543
O11   O     O_R   0.835430 0.219350 0.646160 -0.611921
O12   O     O_R   0.835430 0.780650 0.353840 -0.611644
O13   O     O_R   0.164550 0.280640 0.853840 -0.635005
O14   O     O_R   0.164550 0.719360 0.146160 -0.617941
O15   O     O_R   0.164550 0.719360 0.853840 -0.658089
O16   O     O_R   0.164550 0.280640 0.146160 -0.653645
O17   O     O_R   0.664550 0.780640 0.353840 -0.643359
O18   O     O_R   0.664550 0.219360 0.646160 -0.637482
O19   O     O_R   0.664550 0.219360 0.353840 -0.629072
O20   O     O_R   0.664550 0.780640 0.646160 -0.611101
O21   O     O_R   0.396160 0.219380 0.914560 -0.563840
O22   O     O_R   0.396160 0.780620 0.085440 -0.617260
O23   O     O_R   0.396160 0.780620 0.914560 -0.584897
O24   O     O_R   0.396160 0.219380 0.085440 -0.601297
O25   O     O_R   0.896160 0.719380 0.414560 -0.581722
O26   O     O_R   0.896160 0.280620 0.585440 -0.571463
O27   O     O_R   0.896160 0.280620 0.414560 -0.627544
O28   O     O_R   0.896160 0.719380 0.585440 -0.635104
O29   O     O_R   0.103840 0.219370 0.085450 -0.641514
O30   O     O_R   0.103840 0.780630 0.914550 -0.638494
O31   O     O_R   0.103840 0.780630 0.085450 -0.652952
O32   O     O_R   0.103840 0.219370 0.914550 -0.651322
O33   O     O_R   0.603840 0.719370 0.585450 -0.659265
O34   O     O_R   0.603840 0.280630 0.414550 -0.654709
O35   O     O_R   0.603840 0.280630 0.585450 -0.660177
O36   O     O_R   0.603840 0.719370 0.414550 -0.637172
O37   O     O_R   0.310730 0.133160 0.000000 -0.616313
O38   O     O_R   0.310730 0.866840 0.000000 -0.624669
O39   O     O_R   0.810730 0.633160 0.500000 -0.618861
O40   O     O_R   0.810730 0.366840 0.500000 -0.601694
O41   O     O_R   0.249970 0.366860 0.060720 -0.555850
O42   O     O_R   0.249970 0.633140 0.939280 -0.631026
O43   O     O_R   0.249970 0.633140 0.060720 -0.574110
O44   O     O_R   0.249970 0.366860 0.939280 -0.623235
O45   O     O_R   0.749970 0.866860 0.560720 -0.636142
O46   O     O_R   0.749970 0.133140 0.439280 -0.577298
O47   O     O_R   0.749970 0.133140 0.560720 -0.613256
O48   O     O_R   0.749970 0.866860 0.439280 -0.566126
O49   O     O_R   0.189290 0.133150 0.000000 -0.661577
O50   O     O_R   0.189290 0.866850 0.000000 -0.650504
O51   O     O_R   0.689290 0.633150 0.500000 -0.649991
O52   O     O_R   0.689290 0.366850 0.500000 -0.644646
Zn1   Zn    Zn3+2 0.249990 0.293780 0.913250 1.011856
Zn2   Zn    Zn3+2 0.249990 0.706220 0.086750 1.052428
Zn3   Zn    Zn3+2 0.249990 0.706220 0.913250 0.986388
Zn4   Zn    Zn3+2 0.249990 0.293780 0.086750 1.005817
Zn5   Zn    Zn3+2 0.749990 0.793780 0.413250 1.034161
Zn6   Zn    Zn3+2 0.749990 0.206220 0.586750 1.016228
Zn7   Zn    Zn3+2 0.749990 0.206220 0.413250 1.039839
Zn8   Zn    Zn3+2 0.749990 0.793780 0.586750 1.034259
Zn9   Zn    Zn3+2 0.336760 0.206240 0.000000 1.049151
Zn10  Zn    Zn3+2 0.336760 0.793760 0.000000 1.067966
Zn11  Zn    Zn3+2 0.836760 0.706240 0.500000 1.054036
Zn12  Zn    Zn3+2 0.836760 0.293760 0.500000 1.053382
Zn13  Zn    Zn3+2 0.163250 0.206230 0.000000 0.946339
Zn14  Zn    Zn3+2 0.163250 0.793770 0.000000 0.962764
Zn15  Zn    Zn3+2 0.663250 0.706230 0.500000 0.946498
Zn16  Zn    Zn3+2 0.663250 0.293770 0.500000 0.945186
C181  C     C_3   0.392362 0.439858 0.019798 -0.859376
H25   H     H_    0.439707 0.454854 0.051583 0.227406
H26   H     H_    0.387392 0.398562 0.033509 0.249994
H27   H     H_    0.408009 0.441807 0.961867 0.304704
C182  C     C_3   0.111398 0.559980 0.042547 -0.864430
H28   H     H_    0.069846 0.544210 0.080490 0.250593
H29   H     H_    0.117640 0.601067 0.057657 0.245724
H30   H     H_    0.087217 0.558079 0.987666 0.290704
C183  C     C_3   0.392712 0.546584 0.979833 -0.760366
H31   H     H_    0.389022 0.587891 0.965686 0.275803
H32   H     H_    0.445840 0.541432 0.008349 0.253154
H33   H     H_    0.397044 0.523897 0.928815 0.291366
C184  C     C_3   0.104955 0.453107 0.001924 -0.774230
H34   H     H_    0.106432 0.411610 0.987285 0.254733
H35   H     H_    0.056697 0.458407 0.038064 0.225857
H36   H     H_    0.092719 0.475362 0.952370 0.313970
C185  C     C_3   0.888407 0.941650 0.550966 -0.905727
H37   H     H_    0.881991 0.899722 0.559357 0.247798
H38   H     H_    0.918199 0.946464 0.499258 0.295885
H39   H     H_    0.925136 0.955746 0.595214 0.248482
C186  C     C_3   0.606414 0.058783 0.516550 -0.890321
H40   H     H_    0.610896 0.100664 0.526967 0.215168
H41   H     H_    0.590337 0.054033 0.458898 0.280387
H42   H     H_    0.560042 0.044916 0.550246 0.279050
C187  C     C_3   0.894898 0.047462 0.508528 -0.721103
H43   H     H_    0.893206 0.088811 0.494915 0.280184
H44   H     H_    0.941805 0.042177 0.546335 0.238681
H45   H     H_    0.908553 0.025731 0.458407 0.312823
C188  C     C_3   0.609611 0.952483 0.474498 -0.873708
H46   H     H_    0.613777 0.910943 0.462068 0.243022
H47   H     H_    0.555173 0.958459 0.500201 0.219949
H48   H     H_    0.608320 0.973357 0.422378 0.301699
O53   O     O_3   0.459637 0.660483 0.097345 -0.765510
H49   H     H_    0.424748 0.649847 0.135789 0.349630
O54   O     O_3   0.460871 0.322762 0.922415 -0.788826
H50   H     H_    0.476918 0.348278 0.959531 0.371656
O55   O     O_3   0.401395 0.366939 0.175554 -0.706591
H51   H     H_    0.435520 0.352983 0.138267 0.311274
O56   O     O_3   0.327927 0.826283 0.782387 -0.762917
H52   H     H_    0.303844 0.793624 0.767571 0.305086
O57   O     O_3   0.954842 0.173887 0.581063 -0.795265
H53   H     H_    0.970405 0.150302 0.541466 0.370640
O58   O     O_3   0.940069 0.839329 0.401744 -0.781016
H54   H     H_    0.937703 0.874944 0.421027 0.388235
O59   O     O_3   0.970515 0.814641 0.569807 -0.794242
H55   H     H_    0.985443 0.839696 0.532462 0.399855
O60   O     O_3   0.930841 0.148021 0.388167 -0.711734
H56   H     H_    0.952350 0.174998 0.420163 0.293414
O61   O     O_3   0.068365 0.101873 0.580579 -0.791883
H57   H     H_    0.112170 0.079972 0.588078 0.342045
O62   O     O_3   0.049516 0.913402 0.397026 -0.751696
H58   H     H_    0.091568 0.936510 0.387376 0.343650
O63   O     O_3   0.102651 0.867914 0.555124 -0.748654
H59   H     H_    0.151425 0.884495 0.559018 0.343859
O64   O     O_3   0.972269 0.058993 0.325532 -0.712242
H60   H     H_    0.995178 0.029793 0.298770 0.324864
O65   O     O_3   0.595718 0.631459 0.056874 -0.696003
H61   H     H_    0.648004 0.621613 0.052433 0.329187
O66   O     O_3   0.546992 0.410072 0.901187 -0.792065
H62   H     H_    0.582437 0.437034 0.886665 0.338394
O67   O     O_3   0.355009 0.414002 0.299501 -0.696482
H63   H     H_    0.345904 0.428017 0.349241 0.333181
O68   O     O_3   0.350299 0.907544 0.696539 -0.726337
H64   H     H_    0.364794 0.933867 0.660392 0.325718
C189  C     C_3   0.062050 0.051436 0.800089 -0.881994
H65   H     H_    0.074439 0.045344 0.741325 0.251912
H66   H     H_    0.006239 0.036788 0.811713 0.252857
H67   H     H_    0.061460 0.093260 0.812523 0.250810
C190  C     C_3   0.077945 0.938350 0.789756 -0.870971
H68   H     H_    0.018799 0.945810 0.798665 0.248915
H69   H     H_    0.092730 0.948418 0.732837 0.252869
H70   H     H_    0.086745 0.896521 0.797092 0.246504
C191  C     C_3   0.688493 0.553775 0.234155 -0.866111
H71   H     H_    0.729396 0.544731 0.191133 0.269633
H72   H     H_    0.633033 0.543218 0.214258 0.244555
H73   H     H_    0.689458 0.595916 0.244112 0.231380
C192  C     C_3   0.695963 0.439585 0.233696 -0.871012
H74   H     H_    0.640413 0.447744 0.212074 0.246052
H75   H     H_    0.737497 0.449812 0.192047 0.258876
H76   H     H_    0.699897 0.397513 0.243363 0.241066
C193  C     C_3   0.400694 0.062203 0.224733 -0.906241
H77   H     H_    0.440421 0.088233 0.197838 0.244993
H78   H     H_    0.359495 0.086044 0.254086 0.233549
H79   H     H_    0.430846 0.039568 0.265935 0.256493
C194  C     C_3   0.408028 0.945833 0.223155 -0.888221
H80   H     H_    0.406671 0.903787 0.212275 0.248895
H81   H     H_    0.466355 0.957815 0.222236 0.256062
H82   H     H_    0.384647 0.953024 0.278276 0.245256
C195  C     C_3   0.810944 0.560918 0.762378 -0.834822
H83   H     H_    0.778541 0.596973 0.763613 0.284014
H84   H     H_    0.802047 0.541190 0.814945 0.245814
H85   H     H_    0.869769 0.571113 0.757870 0.233704
C196  C     C_3   0.768495 0.448677 0.772282 -0.901209
H86   H     H_    0.759729 0.406656 0.764683 0.230633
H87   H     H_    0.819303 0.453848 0.804350 0.273363
H88   H     H_    0.722459 0.464842 0.804689 0.235470
O69   O     O_3   0.310316 0.460122 0.116778 -0.561746
H89   H     H_    0.356783 0.465231 0.144008 0.386234
O70   O     O_3   0.208215 0.540977 0.124788 -0.599198
H90   H     H_    0.166510 0.537219 0.159076 0.355392
O71   O     O_3   0.340700 0.555413 0.097809 -0.644164
H91   H     H_    0.389692 0.545145 0.116163 0.338210
O72   O     O_3   0.174533 0.446092 0.110665 -0.628131
H92   H     H_    0.128915 0.457026 0.135594 0.348456
O73   O     O_3   0.788151 0.963431 0.628963 -0.620720
H93   H     H_    0.798217 0.927951 0.645757 0.379777
O74   O     O_3   0.684709 0.038409 0.616272 -0.621786
H94   H     H_    0.674704 0.074936 0.628905 0.376250
O75   O     O_3   0.822153 0.055774 0.614510 -0.632029
H95   H     H_    0.864006 0.042306 0.643331 0.364862
O76   O     O_3   0.655826 0.945234 0.594469 -0.661003
H96   H     H_    0.608530 0.959056 0.612936 0.361590
O77   O     O_3   0.313838 0.455349 0.882283 -0.787870
H97   H     H_    0.310090 0.463751 0.829582 0.368262
O78   O     O_3   0.167538 0.543131 0.893829 -0.827932
H98   H     H_    0.162376 0.533538 0.841428 0.364941
O79   O     O_3   0.290762 0.551309 0.869779 -0.785260
H99   H     H_    0.266760 0.573336 0.832773 0.371845
O80   O     O_3   0.188374 0.446752 0.878045 -0.788756
H100  H     H_    0.206234 0.422653 0.839641 0.375070
O81   O     O_3   0.839266 0.955845 0.401225 -0.793715
H101  H     H_    0.846747 0.959453 0.347890 0.352099
O82   O     O_3   0.689861 0.041877 0.382963 -0.812786
H102  H     H_    0.696075 0.038440 0.329339 0.370425
O83   O     O_3   0.814065 0.053463 0.381089 -0.693733
H103  H     H_    0.813365 0.042147 0.329188 0.343641
O84   O     O_3   0.718805 0.945691 0.368990 -0.743125
H104  H     H_    0.733232 0.955630 0.318815 0.330243
C197  C     C_3   0.010245 0.314944 0.942004 -0.743199
H105  H     H_    0.996297 0.274116 0.952523 0.230844
H106  H     H_    0.068077 0.322974 0.956734 0.208782
H107  H     H_    0.974617 0.337769 0.979241 0.258511
C198  C     C_3   0.009281 0.690071 0.054536 -0.751944
H108  H     H_    0.995228 0.730774 0.043200 0.230694
H109  H     H_    0.068249 0.682611 0.045776 0.189539
H110  H     H_    0.979155 0.667671 0.012928 0.305423
C199  C     C_3   0.056659 0.639564 0.873799 -0.684376
H111  H     H_    0.094962 0.639548 0.826782 0.239861
H112  H     H_    0.083998 0.654513 0.923606 0.211081
H113  H     H_    0.043179 0.598462 0.882313 0.281470
C200  C     C_3   0.165486 0.337596 0.267074 -0.563297
H114  H     H_    0.185493 0.297608 0.274517 0.193371
H115  H     H_    0.196889 0.357179 0.223434 0.304126
H116  H     H_    0.176652 0.357994 0.319515 0.223884
C201  C     C_3   0.522437 0.818292 0.447724 -0.777628
H117  H     H_    0.530594 0.782979 0.480158 0.245067
H118  H     H_    0.574214 0.833232 0.425274 0.203459
H119  H     H_    0.504931 0.848806 0.486656 0.261203
C202  C     C_3   0.509660 0.190681 0.551257 -0.783010
H120  H     H_    0.496126 0.231435 0.539734 0.223979
H121  H     H_    0.568940 0.183327 0.544436 0.197977
H122  H     H_    0.481529 0.168280 0.507697 0.262550
C203  C     C_3   0.578170 0.130060 0.331743 -0.696782
H123  H     H_    0.635833 0.124785 0.348230 0.303161
H124  H     H_    0.548731 0.151306 0.375594 0.177227
H125  H     H_    0.551426 0.091786 0.326736 0.248613
C204  C     C_3   0.635957 0.639699 0.676891 -0.718955
H126  H     H_    0.597239 0.636270 0.630528 0.255410
H127  H     H_    0.683500 0.664875 0.665605 0.197949
H128  H     H_    0.658678 0.600398 0.680963 0.263594
O85   O     O_3   0.971130 0.414688 0.901801 -0.771269
H129  H     H_    0.934792 0.441650 0.889830 0.341081
O86   O     O_3   0.941060 0.596306 0.082620 -0.743983
H130  H     H_    0.893630 0.577895 0.084691 0.348660
O87   O     O_3   0.918038 0.608204 0.921299 -0.751477
H131  H     H_    0.871273 0.589614 0.913913 0.344731
O88   O     O_3   0.090856 0.430939 0.262800 -0.740378
H132  H     H_    0.060233 0.460420 0.247710 0.333952
O89   O     O_3   0.378682 0.847465 0.467081 -0.776195
H133  H     H_    0.325177 0.843453 0.473852 0.355067
O90   O     O_3   0.434165 0.099489 0.575593 -0.789580
H134  H     H_    0.385644 0.082494 0.576831 0.345099
O91   O     O_3   0.622414 0.080657 0.203172 -0.768795
H135  H     H_    0.611245 0.060503 0.158353 0.350484
O92   O     O_3   0.644522 0.582122 0.802506 -0.786169
H136  H     H_    0.660597 0.575029 0.853157 0.355617
O93   O     O_3   0.283170 0.860504 0.346615 -0.789971
H137  H     H_    0.290352 0.889153 0.382005 0.345564
O94   O     O_3   0.364636 0.078758 0.711565 -0.771879
H138  H     H_    0.390422 0.050647 0.685185 0.353405
O95   O     O_3   0.611709 0.131012 0.063415 -0.759679
H139  H     H_    0.655702 0.110664 0.076120 0.359353
O96   O     O_3   0.543092 0.593462 0.916941 -0.746556
H140  H     H_    0.552505 0.558934 0.895458 0.349002
O97   O     O_3   0.940425 0.438730 0.751560 -0.786705
H141  H     H_    0.972429 0.461440 0.781385 0.359112
O98   O     O_3   0.872067 0.577174 0.219766 -0.776542
H142  H     H_    0.899187 0.549071 0.194769 0.357655
O99   O     O_3   0.788080 0.661153 0.874531 -0.785562
H143  H     H_    0.793512 0.651797 0.926604 0.351253
O100  O     O_3   0.934882 0.433225 0.287664 -0.771949
H144  H     H_    0.966942 0.456984 0.315631 0.358711
O101  O     O_3   0.316380 0.815428 0.214174 -0.798911
H145  H     H_    0.280336 0.843032 0.224040 0.362102
O102  O     O_3   0.350088 0.157883 0.811435 -0.777642
H146  H     H_    0.312889 0.131146 0.800619 0.369798
O103  O     O_3   0.531266 0.223011 0.056021 -0.714390
H147  H     H_    0.551029 0.201915 0.015310 0.393637
O104  O     O_3   0.462858 0.683085 0.928991 -0.759484
H148  H     H_    0.474513 0.657789 0.967010 0.431066
O105  O     O_3   0.895538 0.357587 0.662270 -0.756107
H149  H     H_    0.882989 0.394434 0.658489 0.388800
O106  O     O_3   0.849089 0.659825 0.311875 -0.781239
H150  H     H_    0.812007 0.633415 0.299410 0.363233
O107  O     O_3   0.799298 0.720905 0.749789 -0.765348
H151  H     H_    0.755873 0.701995 0.767477 0.377726
O108  O     O_3   0.859378 0.339687 0.294416 -0.778645
H152  H     H_    0.838963 0.374942 0.293321 0.379005

loop_
_geom_bond_atom_site_label_1
_geom_bond_atom_site_label_2
_ccdc_geom_bond_type
O3    Zn11  S    
O98   H142  S    
C133  C137  A    
C194  H80   S    
C114  H10   S    
C55   C59   A    
C203  H123  S    
C179  O91   S    
C136  C140  A    
C117  C193  S    
C193  H79   S    
C79   C87   A    
C189  H65   S    
C9    C177  A    
O87   H131  S    
C183  H33   S    
C65   C89   S    
C91   O30   A    
C157  C158  S    
C170  C178  A    
C104  H24   S    
C89   O32   A    
O39   Zn11  S    
O12   Zn5   S    
C69   C93   S    
C151  C183  S    
C64   C112  A    
C71   C95   S    
C28   C40   A    
C93   O36   A    
C29   C33   A    
O8    Zn1   S    
C36   C168  A    
C181  H27   S    
O13   Zn1   S    
C62   C70   A    
C96   O33   A    
O21   Zn9   S    
C39   C171  A    
C157  O80   S    
C113  C122  A    
C115  C124  A    
C86   O62   S    
C146  C162  S    
C158  O79   S    
C115  H11   S    
O2    Zn2   S    
C200  H115  S    
O27   Zn12  S    
C130  C134  A    
C99   C107  A    
C88   O64   S    
C73   C81   A    
C193  H78   S    
O30   Zn14  S    
C195  H85   S    
C147  O48   A    
C166  C174  A    
C108  H4    S    
O9    Zn8   S    
O62   H58   S    
O10   Zn7   S    
C66   C90   S    
C25   C41   A    
O104  H148  S    
C26   C38   A    
C20   C28   A    
C109  H5    S    
O6    Zn3   S    
O67   H63   S    
C21   C29   A    
C146  O43   A    
C28   C44   A    
C29   C45   A    
C23   C31   A    
C13   C173  A    
C24   C32   A    
C76   O56   S    
C144  O52   A    
C156  O76   S    
C139  C140  A    
C5    O9    A    
C12   C20   A    
C13   C21   A    
C4    O21   A    
C191  H73   S    
C85   O61   S    
C129  C133  A    
O1    Zn9   S    
C194  H82   S    
O2    Zn14  S    
O79   H99   S    
C203  H125  S    
C49   C73   A    
C198  H110  S    
C11   C179  A    
O78   H98   S    
C189  H67   S    
C177  O89   S    
C149  O69   S    
C188  H48   S    
C155  C187  S    
C165  C197  S    
C23   O107  S    
C8    O12   A    
O72   H92   S    
C36   C68   A    
C169  C201  S    
O81   H101  S    
C126  C141  S    
C98   C106  A    
C145  O41   A    
C17   C25   A    
C183  H31   S    
C80   C88   A    
C101  H21   S    
C198  H108  S    
C145  C161  S    
C167  C199  S    
C144  O40   A    
C68   C92   S    
C90   O31   A    
C63   C111  A    
O91   H135  S    
C59   C107  A    
C85   C97   A    
C154  O74   S    
C158  O78   S    
C72   C96   S    
C125  C129  A    
C94   O35   A    
C134  H14   S    
C192  H76   S    
C184  H35   S    
O61   H57   S    
C39   C71   A    
O40   Zn12  S    
C199  H111  S    
C196  H86   S    
C7    O26   A    
C11   O95   S    
C192  H74   S    
C116  C123  A    
C173  O85   S    
C120  C196  S    
C73   O53   S    
C34   C66   A    
C197  H105  S    
C123  C124  A    
O26   Zn12  S    
C204  H126  S    
O3    Zn8   S    
C15   O99   S    
O4    Zn7   S    
C83   C103  A    
C153  C163  S    
C178  O90   S    
C32   C36   A    
C154  C164  S    
C10   C18   A    
C149  C151  S    
C79   O59   S    
O84   H104  S    
C172  C204  S    
O41   Zn4   S    
O42   Zn3   S    
C59   C67   A    
C153  O73   S    
C1    C43   S    
O3    Zn15  S    
C2    C44   S    
O4    Zn16  S    
O101  H145  S    
C152  C161  S    
C44   C52   A    
C77   C85   A    
C143  O51   A    
C182  H28   S    
O68   H64   S    
C187  H44   S    
O11   Zn6   S    
C171  C179  A    
C160  O83   S    
O103  H147  S    
C169  C177  A    
C201  H118  S    
C34   C166  A    
C127  C131  A    
C190  H69   S    
C3    O7    A    
C100  C108  A    
C30   C34   A    
C1    O5    A    
C148  C164  S    
C97   H17   S    
C83   O67   S    
C196  H88   S    
C153  C185  S    
C104  C112  A    
C137  C190  S    
C142  O38   A    
C174  O86   S    
C95   O19   A    
C116  C120  A    
C176  O88   S    
C121  C125  A    
C186  H40   S    
C8    O25   A    
C123  C127  A    
C35   C67   A    
C132  C136  A    
C185  H37   S    
C82   C102  A    
C199  H113  S    
C3    O22   A    
C42   C50   A    
C113  C117  A    
C100  H20   S    
C1    O24   A    
C12   C180  A    
C202  H122  S    
C115  C119  A    
O54   H50   S    
C84   C104  A    
C9    O93   S    
C153  C155  S    
C197  H107  S    
C26   C42   A    
C167  C175  A    
C129  C130  A    
C204  H128  S    
C168  C176  A    
O97   H141  S    
C110  H6    S    
C81   O65   S    
C40   C72   A    
C30   C46   A    
C33   C165  A    
C52   C76   A    
C183  H32   S    
C202  H121  S    
C56   C80   A    
C135  C139  A    
C14   C22   A    
C150  C182  S    
C97   C105  A    
C147  C163  S    
C117  C118  A    
C16   C176  A    
C4    C42   S    
O2    Zn10  S    
O32   Zn13  S    
C181  H26   S    
C143  O39   A    
O38   Zn10  S    
C116  H12   S    
C80   O60   S    
C8    C46   S    
C90   O14   A    
O24   Zn9   S    
C87   O63   S    
O94   H138  S    
C75   O55   S    
O96   H140  S    
C56   C60   A    
C133  H13   S    
O93   H137  S    
C182  H30   S    
C94   O18   A    
C54   C78   A    
C119  C195  S    
C157  O77   S    
O1    Zn4   S    
C151  O71   S    
O2    Zn3   S    
C38   C70   A    
C200  H114  S    
C196  H87   S    
C32   C48   A    
C138  C189  S    
O108  H152  S    
C18   C26   A    
C14   O98   S    
C76   C84   A    
O19   Zn7   S    
C193  H77   S    
O25   Zn11  S    
O74   H94   S    
O20   Zn8   S    
C195  H84   S    
C84   O68   S    
C11   C19   A    
C202  H120  S    
O35   Zn16  S    
C160  C164  S    
O36   Zn15  S    
O16   Zn4   S    
C136  H16   S    
C186  H42   S    
O17   Zn5   S    
C126  C130  A    
C101  C109  A    
O70   H90   S    
C92   O29   A    
C185  H39   S    
O4    Zn6   S    
C103  C111  A    
C187  H43   S    
C41   C49   A    
O18   Zn6   S    
C114  C121  A    
C75   C83   A    
C156  C163  S    
O49   Zn13  S    
C159  C163  S    
C191  H72   S    
C22   C30   A    
C154  C156  S    
C60   C108  A    
C124  C128  A    
C172  C180  A    
O58   H54   S    
C194  H81   S    
C31   C47   A    
C203  H124  S    
O95   H139  S    
C74   C82   A    
C189  H66   S    
C12   O96   S    
C13   O97   S    
C2    O23   A    
C38   C170  A    
C188  H47   S    
C150  C162  S    
C49   C61   A    
O92   H136  S    
O14   Zn2   S    
C51   C63   A    
C52   C64   A    
C53   C57   A    
C152  C184  S    
O1    Zn1   S    
C118  C194  S    
O99   H143  S    
C141  O37   A    
O100  H144  S    
C149  C181  S    
C53   C77   A    
O88   H132  S    
C134  C138  A    
O107  H151  S    
O52   Zn16  S    
C159  C160  S    
C6    O10   A    
C151  C162  S    
C46   C54   A    
C67   C91   S    
C5    O28   A    
C121  C122  A    
C88   C100  A    
C200  H116  S    
C37   C69   A    
C31   C35   A    
C156  C188  S    
C102  C110  A    
C149  C161  S    
C131  C132  A    
C157  C161  S    
C140  C191  S    
C40   C172  A    
O43   Zn2   S    
O77   H97   S    
C137  C138  A    
C147  O45   A    
C148  O47   A    
C78   O58   S    
C188  H46   S    
C57   C65   A    
C142  O50   A    
O82   H102  S    
C113  H9    S    
C146  O42   A    
C111  H7    S    
O28   Zn11  S    
C141  O49   A    
C50   C74   A    
C102  H22   S    
O64   H60   S    
C14   C174  A    
O4    Zn12  S    
C37   C169  A    
C43   C51   A    
O57   H53   S    
C5    C47   S    
C127  C144  S    
O45   Zn8   S    
O63   H59   S    
C86   C98   A    
C128  C143  S    
O46   Zn7   S    
C135  H15   S    
O60   H56   S    
C20   O104  S    
C27   C43   A    
C60   C68   A    
O7    Zn2   S    
O53   H49   S    
C99   H19   S    
C70   C94   S    
C152  O72   S    
O83   H103  S    
C7    O11   A    
C19   O103  S    
C57   C105  A    
O56   H52   S    
C154  C186  S    
C159  O81   S    
O65   H61   S    
C166  C198  S    
C170  C202  S    
O66   H62   S    
C61   C109  A    
C201  H117  S    
C33   C65   A    
O80   H100  S    
O51   Zn15  S    
O55   H51   S    
O31   Zn14  S    
C155  O75   S    
C184  H34   S    
C6    C48   S    
C7    C45   S    
C51   C75   A    
C184  H36   S    
C131  C135  A    
C198  H109  S    
O29   Zn13  S    
C165  C173  A    
C168  C200  S    
C55   C79   A    
C160  O82   S    
C24   O108  S    
C92   O16   A    
C106  H2    S    
C25   C37   A    
C58   C66   A    
C27   C39   A    
C96   O20   A    
C180  O92   S    
C35   C167  A    
C199  H112  S    
C19   C27   A    
C78   C86   A    
C15   C23   A    
C18   O102  S    
C192  H75   S    
C6    O27   A    
O59   H55   S    
C128  C132  A    
C197  H106  S    
C87   C99   A    
C204  H127  S    
O3    Zn5   S    
O1    Zn13  S    
C2    O6    A    
C98   H18   S    
C10   C178  A    
O106  H150  S    
O5    Zn4   S    
O105  H149  S    
C89   O13   A    
O50   Zn14  S    
O86   H130  S    
C107  H3    S    
C58   C106  A    
C95   O34   A    
C122  C126  A    
C22   O106  S    
O102  H146  S    
C62   C110  A    
C125  C142  S    
C16   O100  S    
C139  C192  S    
C181  H25   S    
O33   Zn15  S    
C119  C120  A    
O34   Zn16  S    
O73   H93   S    
C114  C118  A    
O48   Zn5   S    
O22   Zn10  S    
C9    C17   A    
C17   O101  S    
C182  H29   S    
C159  O84   S    
C50   C62   A    
C187  H45   S    
C150  C152  S    
O15   Zn3   S    
C201  H119  S    
C47   C55   A    
O69   H89   S    
C54   C58   A    
C190  H70   S    
C61   C69   A    
C48   C56   A    
C3    C41   S    
C145  O44   A    
C63   C71   A    
C112  H8    S    
O23   Zn10  S    
C155  C164  S    
C77   O57   S    
C195  H83   S    
C148  O46   A    
C4    O8    A    
C15   C175  A    
C175  O87   S    
C105  H1    S    
C171  C203  S    
O90   H134  S    
C186  H41   S    
C21   O105  S    
O71   H91   S    
O89   H133  S    
O75   H95   S    
C150  O70   S    
C185  H38   S    
O37   Zn9   S    
C64   C72   A    
C91   O15   A    
C82   O66   S    
C103  H23   S    
C158  C162  S    
O47   Zn6   S    
C45   C53   A    
O44   Zn1   S    
C16   C24   A    
O85   H129  S    
C190  H68   S    
C81   C101  A    
C93   O17   A    
C191  H71   S    
C10   O94   S    
C74   O54   S    
O76   H96   S    
