data_mof_unit_64284.cif
_audit_creation_date              2012-12-10T16:58:15-0500
_audit_creation_method            fapswitch 2.2
_symmetry_space_group_name_H-M    P1
_symmetry_Int_Tables_number       1
_space_group_crystal_system       triclinic
_cell_length_a                    21.745468
_cell_length_b                    21.792243
_cell_length_c                    22.113691
_cell_angle_alpha                 60.79058
_cell_angle_beta                  118.93174
_cell_angle_gamma                 89.388015
_cell_volume                      7576.06346216

loop_
_atom_site_label
_atom_site_type_symbol
_atom_type_description
_atom_site_fract_x
_atom_site_fract_y
_atom_site_fract_z
_atom_type_partial_charge
C1    C     C_R   0.620305 0.498106 0.503263 0.851833
C2    C     C_R   0.802720 0.294377 0.669177 0.591009
C3    C     C_R   0.858616 0.290922 0.656055 -0.252750
C4    C     C_R   0.420076 0.580123 0.339849 0.788018
C5    C     C_R   0.861965 0.355315 0.598428 0.560184
C6    C     C_R   0.809007 0.425545 0.553156 -0.094729
C7    C     C_R   0.747830 0.427468 0.560376 -0.131050
C8    C     C_R   0.689230 0.495247 0.507245 -0.218381
C9    C     C_R   0.694205 0.561095 0.453186 0.536032
C10   C     C_R   0.755619 0.560609 0.448407 0.360099
C11   C     C_R   0.814092 0.493598 0.499954 -0.251931
C12   C     C_3   0.291784 0.709059 0.083096 -0.137921
C13   C     C_3   0.714202 0.206800 0.028096 0.439682
C14   C     C_3   0.685962 0.292507 0.972569 0.528391
C15   C     C_1   0.624991 0.375141 0.749733 -0.092145
C16   C     C_R   0.381200 0.500675 0.499429 0.880743
C17   C     C_1   0.875503 0.124634 0.250228 -0.132509
C18   C     C_3   0.736972 0.205843 0.972293 0.272063
C19   C     C_3   0.708681 0.291783 0.916645 -0.268980
C20   C     C_3   0.814636 0.207504 0.026706 0.264659
C21   C     C_3   0.792151 0.207999 0.083340 -0.297954
C22   C     C_3   0.786320 0.293188 0.972388 0.273949
C23   C     C_3   0.214072 0.708358 0.972684 -0.453188
C24   C     C_3   0.763370 0.293943 0.028109 0.434846
C25   C     C_1   0.662731 0.337591 0.825047 0.229234
C26   C     C_1   0.837961 0.162173 0.174915 0.183139
C27   C     C_R   0.244181 0.531381 0.352939 -0.300089
C28   C     C_R   0.580082 0.419925 0.660114 0.798455
C29   C     C_R   0.181312 0.537093 0.286206 0.547076
C30   C     C_R   0.123530 0.517579 0.293483 0.473265
C31   C     C_R   0.127443 0.493748 0.367306 0.368980
C32   C     C_R   0.185506 0.500191 0.430109 -0.163328
C33   C     C_R   0.247743 0.511704 0.425896 -0.144623
C34   C     C_3   0.207628 0.790771 0.916701 -0.221119
C35   C     C_R   0.312285 0.503821 0.494546 -0.226356
C36   C     C_R   0.312643 0.494631 0.561607 0.534599
C37   C     C_R   0.249449 0.491878 0.562207 0.500329
C38   C     C_R   0.185512 0.494250 0.497584 -0.288691
C39   C     C_R   0.997184 0.884820 0.492980 0.955298
C40   C     C_3   0.292925 0.771975 0.971209 0.463977
C41   C     C_R   0.079956 0.919218 0.660172 0.875593
C42   C     C_R   0.003110 0.115398 0.506089 0.917208
C43   C     C_R   0.920035 0.080044 0.339838 0.832168
C44   C     C_R   0.001697 0.618985 0.499923 0.883369
C45   C     C_3   0.207004 0.728078 0.028167 0.393353
C46   C     C_R   0.881068 0.497311 0.500026 0.976497
C47   C     C_R   0.003908 0.380712 0.500417 0.956744
C48   C     C_R   0.118970 0.496565 0.499471 0.934257
C49   C     C_R   0.017237 0.872994 0.370183 0.409651
C50   C     C_R   0.024224 0.862448 0.314981 0.440412
C51   C     C_R   0.039206 0.792074 0.331658 -0.255603
C52   C     C_3   0.284270 0.790481 0.026187 0.269685
C53   C     C_R   0.038011 0.733473 0.395620 -0.182789
C54   C     C_R   0.017833 0.744395 0.442376 -0.041556
C55   C     C_R   0.010862 0.813860 0.433571 -0.114978
C56   C     C_3   0.199342 0.809673 0.971996 0.466024
C57   C     C_R   0.997230 0.820083 0.488221 -0.297154
C58   C     C_R   0.987840 0.760371 0.545067 0.516589
C59   C     C_R   0.991412 0.694790 0.549680 0.556007
C60   C     C_R   0.005580 0.686447 0.498578 -0.268854
C61   C     C_R   0.129270 0.112075 0.651278 0.503628
C62   C     C_R   0.180218 0.113443 0.720471 -0.277792
C63   C     C_R   0.186731 0.180165 0.710144 -0.282932
C64   C     C_1   0.375310 0.625152 0.250159 -0.099706
C65   C     C_R   0.139859 0.246804 0.631285 0.518939
C66   C     C_R   0.072752 0.246699 0.570736 -0.059993
C67   C     C_1   0.337694 0.663093 0.174802 0.202590
C68   C     C_R   0.069350 0.178474 0.577543 -0.118803
C69   C     C_R   0.006729 0.180059 0.510518 -0.166376
C70   C     C_R   0.948131 0.246628 0.441833 0.459541
C71   C     C_R   0.949224 0.311114 0.440043 -0.258559
C72   C     C_R   0.010207 0.312252 0.503021 -0.145718
C73   C     C_1   0.124498 0.874310 0.749818 -0.107806
C74   C     C_3   0.299288 0.690907 0.027353 0.404370
C75   C     C_3   0.305737 0.902272 0.993732 -0.158547
C76   C     C_3   0.716963 0.649659 0.314613 -0.154477
C77   C     C_3   0.886115 0.336713 0.001244 -0.169265
C78   C     C_1   0.161956 0.836601 0.825144 0.127293
C79   C     C_3   0.889259 0.169221 0.996713 -0.222002
C80   C     C_3   0.741024 0.088765 0.999964 -0.188537
C81   C     C_3   0.097689 0.387512 0.400358 -0.244737
C82   C     C_3   0.076527 0.961052 0.363461 -0.134265
C83   C     C_3   0.947589 0.962883 0.181800 -0.259238
C84   C     C_3   0.894928 0.274687 0.310526 -0.245941
C85   C     C_3   0.212605 0.018984 0.681230 -0.248589
C86   C     C_3   0.235029 0.296515 0.639059 -0.288973
C87   C     C_3   0.092159 0.719935 0.001245 -0.068123
C88   C     C_3   0.343477 0.619472 0.998373 -0.150238
C89   C     C_R   0.747460 0.361725 0.621583 -0.199939
Cu1   Cu    Cu3+1 0.500040 0.438210 0.499990 1.025309
Cu2   Cu    Cu3+1 0.499960 0.561790 0.500010 1.098080
Cu3   Cu    Cu3+1 0.061810 0.999860 0.500010 0.955370
Cu4   Cu    Cu3+1 0.938190 0.999990 0.499990 1.093827
Cu5   Cu    Cu3+1 0.958570 0.541460 0.417120 1.033724
Cu6   Cu    Cu3+1 0.041430 0.458560 0.582880 1.145542
F1    F     F_    0.914533 0.346975 0.584284 -0.675171
F2    F     F_    0.976399 0.764990 0.598168 -0.601445
F3    F     F_    0.146594 0.870761 0.942623 -0.636319
F4    F     F_    0.979309 0.639423 0.603407 -0.592580
F5    F     F_    0.638955 0.626509 0.404482 -0.628081
F6    F     F_    0.801005 0.231822 0.726942 -0.637821
F7    F     F_    0.619336 0.336686 0.943786 -0.545673
F8    F     F_    0.677028 0.163256 0.057967 -0.600768
F9    F     F_    0.775867 0.338543 0.057943 -0.615461
F10   F     F_    0.374763 0.488400 0.626938 -0.594108
F11   F     F_    0.336989 0.794185 0.940994 -0.651415
F12   F     F_    0.178056 0.558199 0.215705 -0.590620
F13   F     F_    0.064568 0.518468 0.230110 -0.602754
F14   F     F_    0.250965 0.487283 0.626469 -0.591004
H1    H     H_    0.899724 0.237902 0.690702 0.198597
H2    H     H_    0.245788 0.933801 0.955589 0.195303
H3    H     H_    0.322554 0.902840 0.953391 0.183169
H4    H     H_    0.337210 0.931593 0.021146 0.181584
H5    H     H_    0.728866 0.604904 0.307069 0.136268
H6    H     H_    0.729268 0.697540 0.276800 0.179710
H7    H     H_    0.657026 0.668454 0.288906 0.206077
H8    H     H_    0.923806 0.278543 0.051882 0.171296
H9    H     H_    0.874057 0.363907 0.027405 0.217451
H10   H     H_    0.916025 0.367338 0.973896 0.181404
H11   H     H_    0.878982 0.228026 0.950278 0.206333
H12   H     H_    0.289227 0.544370 0.346083 0.182067
H13   H     H_    0.850936 0.145948 0.965118 0.207597
H14   H     H_    0.946506 0.137421 0.024740 0.178991
H15   H     H_    0.699898 0.079610 0.016827 0.221703
H16   H     H_    0.797728 0.068220 0.056592 0.144190
H17   H     H_    0.741122 0.055174 0.975152 0.174298
H18   H     H_    0.051737 0.364895 0.396876 0.180964
H19   H     H_    0.147928 0.351199 0.465103 0.152989
H20   H     H_    0.107323 0.385153 0.356370 0.181021
H21   H     H_    0.062213 0.002750 0.299642 0.196388
H22   H     H_    0.125656 0.912857 0.396810 0.127911
H23   H     H_    0.050707 0.783011 0.293631 0.188125
H24   H     H_    0.094758 0.987167 0.398628 0.179038
H25   H     H_    0.921872 0.992283 0.197415 0.196018
H26   H     H_    0.914594 0.928475 0.164955 0.145112
H27   H     H_    0.945716 0.005615 0.125770 0.208947
H28   H     H_    0.946576 0.239271 0.329600 0.129702
H29   H     H_    0.894061 0.333431 0.283675 0.177656
H30   H     H_    0.847354 0.272938 0.260473 0.229274
H31   H     H_    0.248967 0.979282 0.750303 0.177438
H32   H     H_    0.236763 0.063538 0.659805 0.133431
H33   H     H_    0.213155 0.988661 0.653335 0.208028
H34   H     H_    0.052175 0.679604 0.406901 0.173776
H35   H     H_    0.253822 0.254422 0.631525 0.137848
H36   H     H_    0.270654 0.279347 0.704950 0.201272
H37   H     H_    0.242821 0.347885 0.600736 0.183675
H38   H     H_    0.089256 0.685416 0.976587 0.147145
H39   H     H_    0.065964 0.779958 0.949483 0.172484
H40   H     H_    0.059406 0.705801 0.029236 0.204179
H41   H     H_    0.341527 0.670077 0.947032 0.194608
H42   H     H_    0.292083 0.604978 0.973271 0.151775
H43   H     H_    0.390692 0.572945 0.025500 0.191727
H44   H     H_    0.220607 0.062471 0.780067 0.165500
H45   H     H_    0.232382 0.179493 0.761597 0.174903
H46   H     H_    0.901368 0.360728 0.388850 0.187457
H47   H     H_    0.184889 0.675296 0.949852 0.200152
H48   H     H_    0.705281 0.361734 0.634249 0.177900
O1    O     O_R   0.590210 0.447820 0.500000 -0.596219
O2    O     O_R   0.034940 0.555150 0.570020 -0.533278
O3    O     O_R   0.874830 0.535020 0.430000 -0.593190
O4    O     O_R   0.590150 0.552170 0.500020 -0.521781
O5    O     O_R   0.944810 0.465010 0.569970 -0.542303
O6    O     O_R   0.965060 0.444870 0.429980 -0.591635
O7    O     O_R   0.035040 0.374860 0.569950 -0.515481
O8    O     O_R   0.055190 0.535000 0.430030 -0.576168
O9    O     O_R   0.125170 0.465000 0.570000 -0.516634
O10   O     O_R   0.439580 0.508290 0.379070 -0.575147
O11   O     O_R   0.439510 0.612640 0.379090 -0.560306
O12   O     O_R   0.947780 0.909820 0.499990 -0.536328
O13   O     O_R   0.409850 0.447830 0.499980 -0.590185
O14   O     O_R   0.409790 0.552180 0.500000 -0.551563
O15   O     O_R   0.560490 0.387360 0.620910 -0.581098
O16   O     O_R   0.560420 0.491710 0.620930 -0.557133
O17   O     O_R   0.052170 0.909710 0.500000 -0.577492
O18   O     O_3   0.323146 0.829269 0.059474 -0.532448
O19   O     O_3   0.761828 0.627091 0.398702 -0.539197
O20   O     O_3   0.819912 0.340824 0.937301 -0.552495
O21   O     O_3   0.884156 0.160888 0.061287 -0.586111
O22   O     O_3   0.720431 0.164101 0.937062 -0.544340
O23   O     O_R   0.112650 0.939420 0.620930 -0.585218
O24   O     O_3   0.076892 0.460447 0.378912 -0.525064
O25   O     O_3   0.012830 0.941731 0.358759 -0.598504
O26   O     O_3   0.022354 0.919998 0.247677 -0.580293
O27   O     O_3   0.886985 0.247752 0.377855 -0.563151
O28   O     O_3   0.138989 0.046669 0.655911 -0.591740
O29   O     O_3   0.159399 0.311251 0.611375 -0.584855
O30   O     O_3   0.165921 0.703949 0.063989 -0.511544
O31   O     O_3   0.355105 0.627709 0.062067 -0.543473
O32   O     O_R   0.008260 0.939530 0.620910 -0.567478
O33   O     O_R   0.052220 0.090030 0.500010 -0.586540
O34   O     O_R   0.947830 0.090140 0.500000 -0.550662
O35   O     O_R   0.991740 0.060320 0.379090 -0.592962
O36   O     O_R   0.887350 0.060430 0.379070 -0.563667
O37   O     O_R   0.964960 0.625150 0.430050 -0.607972

loop_
_geom_bond_atom_site_label_1
_geom_bond_atom_site_label_2
_ccdc_geom_bond_type
C66   C68   A    
C21   C26   S    
C63   C65   A    
C34   C56   S    
C23   C45   S    
C12   C74   S    
Cu1   O10   S    
C27   C29   A    
C1    C8    S    
C59   F4    S    
C41   O23   A    
C50   O26   S    
C61   C68   A    
C81   O24   S    
C41   C73   S    
C84   H28   S    
C27   H12   S    
C86   H35   S    
C7    C8    A    
C54   C60   A    
C53   C54   A    
C27   C33   A    
Cu4   O12   S    
C75   H3    S    
C37   C38   A    
C87   H38   S    
C13   C18   S    
Cu6   O2    S    
C17   C26   T    
C22   C24   S    
C36   C37   A    
C77   H8    S    
C22   O20   S    
C16   C35   S    
C30   C31   A    
C28   O16   A    
C14   F7    S    
C80   H16   S    
C3    H1    S    
C39   C57   S    
C76   H6    S    
Cu2   O16   S    
C18   C19   S    
C14   C24   S    
C83   H25   S    
Cu3   O23   S    
C33   C35   A    
C65   O29   S    
C52   C56   S    
C42   O34   A    
C28   O15   A    
C66   C72   A    
C48   O8    A    
C35   C36   A    
C45   C56   S    
C8    C9    A    
C76   H5    S    
C73   C78   T    
C70   C71   A    
C75   H4    S    
C32   C38   A    
C13   F8    S    
C29   C30   A    
C9    C10   A    
C38   C48   S    
Cu1   Cu2   S    
C47   O6    A    
C44   O37   A    
C84   H29   S    
C59   C60   A    
C13   C14   S    
C31   O24   S    
C80   O22   S    
C10   O19   S    
C88   H43   S    
C69   C70   A    
C58   F2    S    
C39   O17   A    
C86   H37   S    
Cu5   O8    S    
C12   C52   S    
Cu3   O33   S    
C74   O31   S    
C37   F14   S    
Cu4   O34   S    
C85   O28   S    
C12   C67   S    
Cu4   O36   S    
C87   H39   S    
C41   O32   A    
C75   O18   S    
C64   C67   T    
Cu2   O11   S    
C84   O27   S    
C19   C22   S    
C84   H30   S    
C77   H9    S    
Cu6   O5    S    
C85   H32   S    
C6    C11   A    
C14   C19   S    
C68   C69   A    
C87   O30   S    
C2    F6    S    
C3    C5    A    
C58   C59   A    
C40   C52   S    
C79   H14   S    
C42   C69   S    
C77   O20   S    
C4    O11   A    
C53   H34   S    
Cu1   O1    S    
C2    C89   A    
C17   C43   S    
C62   C63   A    
C42   O33   A    
C81   H20   S    
C31   C32   A    
C85   H31   S    
C76   O19   S    
C79   H13   S    
C23   C34   S    
C71   H46   S    
C79   H11   S    
Cu1   O13   S    
C61   O28   S    
C50   C51   A    
C79   O21   S    
C83   O26   S    
Cu5   Cu6   S    
C56   F3    S    
C52   O18   S    
C83   H27   S    
C47   O7    A    
C70   O27   S    
C20   C22   S    
C18   O22   S    
C86   O29   S    
C9    F5    S    
C55   C57   A    
C81   H19   S    
C87   H40   S    
C88   H42   S    
C34   C40   S    
C82   H21   S    
C23   C74   S    
C15   C28   S    
Cu6   O9    S    
C5    F1    S    
C40   F11   S    
C80   H15   S    
C82   O25   S    
C54   C55   A    
C1    O1    A    
Cu5   O3    S    
C30   F13   S    
C36   F10   S    
Cu5   O37   S    
C88   H41   S    
C83   H26   S    
C45   O30   S    
C63   H45   S    
C12   C45   S    
C77   H10   S    
C85   H33   S    
C43   O35   A    
C20   O21   S    
C51   H23   S    
C62   H44   S    
C89   H48   S    
C6    C7    A    
Cu4   O32   S    
C4    C64   S    
C75   H2    S    
C4    O10   A    
Cu2   O14   S    
C43   O36   A    
Cu3   O17   S    
C32   C33   A    
C82   H24   S    
C2    C3    A    
C71   C72   A    
C39   O12   A    
C49   C55   A    
Cu6   O7    S    
C34   C78   S    
C24   F9    S    
C16   O14   A    
C57   C58   A    
C5    C6    A    
C80   H17   S    
C44   C60   S    
Cu3   Cu4   S    
C76   H7    S    
C40   C74   S    
C18   C20   S    
C65   C66   A    
C13   C21   S    
C61   C62   A    
C19   C25   S    
C47   C72   S    
C15   C25   T    
C10   C11   A    
C1    O4    A    
C49   O25   S    
C16   O13   A    
C88   O31   S    
C48   O9    A    
C20   C21   S    
C49   C50   A    
C46   O5    A    
C21   C24   S    
Cu1   O15   S    
C86   H36   S    
C44   O2    A    
Cu2   O4    S    
C11   C46   S    
C51   C53   A    
C82   H22   S    
C23   H47   S    
C29   F12   S    
Cu5   O6    S    
C81   H18   S    
C46   O3    A    
Cu3   O35   S    
C7    C89   A    
