data_mof_unit_36609.cif
_audit_creation_date              2012-12-11T15:43:07-0500
_audit_creation_method            fapswitch 2.2
_symmetry_space_group_name_H-M    P1
_symmetry_Int_Tables_number       1
_space_group_crystal_system       triclinic
_cell_length_a                    19.255132
_cell_length_b                    10.995074
_cell_length_c                    18.824547
_cell_angle_alpha                 90.075974
_cell_angle_beta                  90.700792
_cell_angle_gamma                 90.024974
_cell_volume                      3985.07297357

loop_
_atom_site_label
_atom_site_type_symbol
_atom_type_description
_atom_site_fract_x
_atom_site_fract_y
_atom_site_fract_z
_atom_type_partial_charge
C1    C     C_R   0.726395 0.370369 0.143296 0.558752
C2    C     C_R   0.013468 0.999927 0.032697 -0.108752
C3    C     C_R   0.756697 0.454806 0.567506 0.019840
C4    C     C_R   0.729994 0.380371 0.351577 0.548563
C5    C     C_R   0.270179 0.378270 0.647758 0.552453
C6    C     C_R   0.229996 0.880378 0.351574 0.548517
C7    C     C_R   0.770181 0.878263 0.647755 0.552375
C8    C     C_R   0.531834 0.156827 0.352969 0.550892
C9    C     C_R   0.464561 0.156795 0.644710 0.547541
C10   C     C_R   0.031845 0.656826 0.352979 0.547152
C11   C     C_R   0.964577 0.656798 0.644721 0.551177
C12   C     C_R   0.741099 0.974017 0.355206 0.537881
C13   C     C_R   0.486400 0.500028 0.968243 -0.109886
C14   C     C_R   0.260384 0.978354 0.643217 0.541850
C15   C     C_R   0.241098 0.474020 0.355208 0.540087
C16   C     C_R   0.760381 0.478338 0.643223 0.539769
C17   C     C_R   0.504298 0.171136 0.921596 -0.017428
C18   C     C_R   0.515282 0.162971 0.069903 0.023383
C19   C     C_R   0.984618 0.663139 0.930146 0.022620
C20   C     C_R   0.995677 0.670868 0.078463 -0.016966
C21   C     C_R   0.500748 0.280934 0.961120 0.020177
C22   C     C_R   0.499414 0.274829 0.036295 0.016337
C23   C     C_R   0.000328 0.774978 0.964019 0.016088
C24   C     C_R   0.479993 0.493084 0.041254 -0.146816
C25   C     C_R   0.998988 0.780832 0.039210 0.020253
C26   C     C_R   0.531689 0.061719 0.028125 -0.095956
C27   C     C_R   0.524440 0.065424 0.955674 -0.143130
C28   C     C_R   0.975854 0.565069 0.044117 -0.142736
C29   C     C_R   0.968478 0.561605 0.971686 -0.096210
C30   C     C_R   0.762259 0.900342 0.930862 -0.015541
C31   C     C_R   0.244742 0.922714 0.076226 0.012664
C32   C     C_R   0.255170 0.423050 0.923723 0.012462
C33   C     C_R   0.737678 0.400111 0.069121 -0.015085
C34   C     C_R   0.701868 0.864942 0.964564 0.049116
C35   C     C_R   0.305873 0.896336 0.042088 0.061144
C36   C     C_R   0.194039 0.396424 0.957811 0.061141
C37   C     C_R   0.271228 0.376774 0.853947 0.566063
C38   C     C_R   0.798029 0.364808 0.035333 0.049769
C39   C     C_R   0.695341 0.872322 0.038255 -0.032392
C40   C     C_R   0.313464 0.912587 0.969891 -0.023814
C41   C     C_R   0.186464 0.412474 0.030052 -0.023689
C42   C     C_R   0.804577 0.372372 0.961659 -0.032334
C43   C     C_R   0.816076 0.930969 0.046510 -0.162383
C44   C     C_R   0.193532 0.971024 0.962294 -0.166470
C45   C     C_R   0.306409 0.471093 0.037707 -0.166218
C46   C     C_R   0.683902 0.431170 0.953516 -0.162924
C47   C     C_R   0.820010 0.932732 0.973159 -0.177916
C48   C     C_R   0.228744 0.876617 0.146019 0.565758
C49   C     C_R   0.190695 0.973190 0.035583 -0.167192
C50   C     C_R   0.309209 0.473573 0.964438 -0.167507
C51   C     C_R   0.679951 0.432641 0.026884 -0.177957
C52   C     C_3   0.670017 0.743217 0.958228 0.169757
C53   C     C_3   0.352054 0.790511 0.047605 0.142931
C54   C     C_3   0.147980 0.290339 0.952106 0.142897
C55   C     C_3   0.829864 0.243153 0.041465 0.169761
C56   C     C_3   0.661774 0.748614 0.038154 -0.253698
C57   C     C_3   0.365732 0.811415 0.968690 -0.241760
C58   C     C_3   0.134294 0.311056 0.031056 -0.242210
C59   C     C_R   0.773571 0.870535 0.856680 0.558931
C60   C     C_3   0.838101 0.248665 0.961534 -0.253649
C61   C     C_R   0.752787 0.908360 0.079947 -0.007710
C62   C     C_R   0.254287 0.936209 0.927522 0.005398
C63   C     C_R   0.245670 0.436077 0.072429 0.005565
C64   C     C_R   0.747170 0.408556 0.920020 -0.007845
C65   C     C_R   0.534462 0.154961 0.145061 0.565347
C66   C     C_R   0.469654 0.156710 0.852259 0.552320
C67   C     C_R   0.030329 0.656597 0.147771 0.551830
C68   C     C_R   0.965521 0.655068 0.854956 0.565755
C69   C     C_R   0.481450 0.163075 0.569588 0.020060
C70   C     C_R   0.497634 0.396004 0.928355 -0.094315
C71   C     C_R   0.496412 0.163404 0.420966 0.020265
C72   C     C_R   0.981482 0.663082 0.569607 0.019627
C73   C     C_R   0.996440 0.663402 0.420985 0.020184
C74   C     C_R   0.475320 0.056176 0.530146 0.038681
C75   C     C_R   0.482224 0.055634 0.457744 0.030780
C76   C     C_R   0.975364 0.556179 0.530170 0.038363
C77   C     C_R   0.982268 0.555630 0.457771 0.030982
C78   C     C_R   0.489884 0.274019 0.457884 -0.171153
C79   C     C_R   0.484049 0.273848 0.532290 -0.166086
C80   C     C_R   0.989908 0.774019 0.457899 -0.171027
C81   C     C_R   0.483928 0.381316 0.075019 -0.110110
C82   C     C_R   0.984074 0.773853 0.532306 -0.166173
C83   C     C_3   0.511867 0.937662 0.539660 -0.275192
C84   C     C_3   0.519047 0.935434 0.459796 -0.269409
C85   C     C_3   0.011922 0.437681 0.539701 -0.276787
C86   C     C_3   0.019112 0.435449 0.459836 -0.267995
C87   C     C_R   0.748646 0.922494 0.578351 0.016487
C88   C     C_R   0.250677 0.934128 0.419243 0.020030
C89   C     C_R   0.248642 0.422505 0.578357 0.017374
C90   C     C_R   0.750670 0.434105 0.419253 0.019061
C91   C     C_R   0.785285 0.016170 0.545384 0.020906
C92   C     C_R   0.015787 0.881615 0.925571 -0.110686
C93   C     C_R   0.202957 0.006854 0.455768 0.023745
C94   C     C_R   0.285280 0.516183 0.545389 0.021461
C95   C     C_R   0.702945 0.506818 0.455779 0.023430
C96   C     C_R   0.785042 0.025135 0.472654 0.042246
C97   C     C_R   0.206110 0.016104 0.528339 0.030603
C98   C     C_R   0.285038 0.525147 0.472658 0.042088
C99   C     C_R   0.706098 0.516064 0.528349 0.030781
C100  C     C_R   0.702779 0.861414 0.462464 -0.171498
C101  C     C_R   0.312514 0.902283 0.530588 -0.151960
C102  C     C_R   0.202787 0.361408 0.462469 -0.171339
C103  C     C_R   0.002029 0.895811 0.072272 -0.094176
C104  C     C_R   0.812511 0.402267 0.530597 -0.152099
C105  C     C_R   0.702683 0.851612 0.536554 -0.165713
C106  C     C_R   0.309851 0.893291 0.456265 -0.153896
C107  C     C_R   0.202683 0.351617 0.536559 -0.165712
C108  C     C_R   0.809845 0.393273 0.456275 -0.154376
C109  C     C_3   0.860018 0.054135 0.550283 -0.268873
C110  C     C_3   0.125064 0.004150 0.456811 -0.268526
C111  C     C_3   0.360012 0.554155 0.550287 -0.269036
C112  C     C_3   0.625053 0.504094 0.456822 -0.268191
C113  C     C_R   0.741544 0.966720 0.148573 0.533514
C114  C     C_R   0.019918 0.993234 0.959671 -0.146469
C115  C     C_R   0.260081 0.972363 0.853608 0.543828
C116  C     C_R   0.239917 0.472242 0.146385 0.543107
C117  C     C_R   0.758447 0.466818 0.851425 0.534212
C118  C     C_3   0.859866 0.059428 0.470075 -0.267924
C119  C     C_3   0.129318 0.014239 0.536681 -0.278425
C120  C     C_3   0.359860 0.559449 0.470079 -0.267929
C121  C     C_3   0.629306 0.514183 0.536692 -0.278657
C122  C     C_R   0.747740 0.943992 0.429787 0.022367
C123  C     C_R   0.256704 0.954835 0.567496 0.019360
C124  C     C_R   0.247741 0.443996 0.429791 0.021991
Cr1   Cr    Cr6+3 0.772010 0.169670 0.250090 1.087410
Cr2   Cr    Cr6+3 0.383290 0.010760 0.749160 1.043771
Cr3   Cr    Cr6+3 0.116710 0.510760 0.250840 1.041468
Cr4   Cr    Cr6+3 0.883290 0.510760 0.749160 1.046914
Cr5   Cr    Cr6+3 0.227990 0.169670 0.749910 1.079464
Cr6   Cr    Cr6+3 0.272010 0.669670 0.250090 1.079648
Cr7   Cr    Cr6+3 0.727990 0.669670 0.749910 1.087110
Cr8   Cr    Cr6+3 0.615000 0.323260 0.249260 1.008244
Cr9   Cr    Cr6+3 0.385000 0.323260 0.750740 1.001991
Cr10  Cr    Cr6+3 0.115000 0.823260 0.249260 1.000949
Cr11  Cr    Cr6+3 0.885000 0.823260 0.750740 1.009154
Cr12  Cr    Cr6+3 0.616710 0.010760 0.250840 1.044717
H1    H     H_    0.551600 0.978820 0.051150 0.218015
H2    H     H_    0.073832 0.442092 0.443013 0.170042
H3    H     H_    0.477550 0.864725 0.559913 0.132914
H4    H     H_    0.573770 0.942036 0.442972 0.169749
H5    H     H_    0.562286 0.947459 0.568539 0.147212
H6    H     H_    0.488285 0.861891 0.433779 0.127039
H7    H     H_    0.062334 0.447499 0.568589 0.146832
H8    H     H_    0.988366 0.361883 0.433823 0.129252
H9    H     H_    0.669303 0.802770 0.430919 0.123905
H10   H     H_    0.356639 0.865064 0.559032 0.126951
H11   H     H_    0.169315 0.302755 0.430923 0.124032
H12   H     H_    0.531351 0.983864 0.925861 0.240779
H13   H     H_    0.856644 0.365066 0.559039 0.126790
H14   H     H_    0.671480 0.781275 0.560315 0.138393
H15   H     H_    0.350892 0.846936 0.428588 0.120655
H16   H     H_    0.171479 0.281284 0.560322 0.137841
H17   H     H_    0.850890 0.346926 0.428599 0.121698
H18   H     H_    0.895161 0.983077 0.571210 0.163698
H19   H     H_    0.104356 0.915148 0.439309 0.170400
H20   H     H_    0.395157 0.483102 0.571215 0.163677
H21   H     H_    0.604354 0.415084 0.439319 0.170035
H22   H     H_    0.866389 0.144656 0.575802 0.127723
H23   H     H_    0.969359 0.483251 0.073665 0.240923
H24   H     H_    0.101392 0.085141 0.430822 0.129140
H25   H     H_    0.366379 0.644677 0.575806 0.127805
H26   H     H_    0.601374 0.585078 0.430833 0.129275
H27   H     H_    0.868346 0.151789 0.448950 0.137513
H28   H     H_    0.108302 0.101266 0.557203 0.134194
H29   H     H_    0.368337 0.651810 0.448952 0.137041
H30   H     H_    0.608287 0.601209 0.557212 0.134796
H31   H     H_    0.892124 0.987637 0.445249 0.137423
H32   H     H_    0.110954 0.931409 0.564611 0.141564
H33   H     H_    0.392121 0.487662 0.445254 0.137790
H34   H     H_    0.948746 0.478587 0.948491 0.218361
H35   H     H_    0.610947 0.431352 0.564623 0.140940
H36   H     H_    0.505784 0.408252 0.872198 0.156706
H37   H     H_    0.472938 0.380022 0.131110 0.149462
H38   H     H_    0.026727 0.880528 0.869467 0.149659
H39   H     H_    0.993784 0.907894 0.128448 0.156188
H40   H     H_    0.031515 0.073582 0.929453 0.203638
H41   H     H_    0.022684 0.084337 0.059800 0.202664
H42   H     H_    0.477352 0.584606 0.941423 0.203228
H43   H     H_    0.468556 0.573362 0.071723 0.203760
H44   H     H_    0.861562 0.956158 0.076951 0.206303
H45   H     H_    0.494632 0.359593 0.430233 0.116079
H46   H     H_    0.148903 0.001852 0.932585 0.157548
H47   H     H_    0.351037 0.501960 0.067460 0.157946
H48   H     H_    0.638433 0.456465 0.923139 0.206424
H49   H     H_    0.869656 0.954139 0.949960 0.176323
H50   H     H_    0.143501 0.003594 0.059807 0.151228
H51   H     H_    0.356401 0.504123 0.940266 0.151016
H52   H     H_    0.630312 0.453991 0.050125 0.176343
H53   H     H_    0.177627 0.206463 0.941394 0.121670
H54   H     H_    0.792012 0.173264 0.058174 0.128262
H55   H     H_    0.707878 0.673403 0.941436 0.128488
H56   H     H_    0.484537 0.359197 0.560634 0.117545
H57   H     H_    0.322503 0.706491 0.058179 0.121399
H58   H     H_    0.607804 0.751543 0.056642 0.226518
H59   H     H_    0.417493 0.849215 0.957187 0.226675
H60   H     H_    0.082492 0.348574 0.042648 0.226414
H61   H     H_    0.892069 0.251658 0.943041 0.226477
H62   H     H_    0.694157 0.680337 0.066798 0.108715
H63   H     H_    0.349162 0.734498 0.934081 0.100615
H64   H     H_    0.150948 0.234159 0.065500 0.100485
H65   H     H_    0.805695 0.180389 0.932763 0.108687
H66   H     H_    0.542463 0.637904 0.824398 0.343195
H67   H     H_    0.994645 0.859591 0.430244 0.115747
H68   H     H_    0.445215 0.751352 0.216262 0.345033
H69   H     H_    0.053965 0.248819 0.784049 0.344842
H70   H     H_    0.956861 0.138985 0.175911 0.343057
H71   H     H_    0.984555 0.859204 0.560646 0.117647
H72   H     H_    0.977605 0.364742 0.559953 0.131353
O1    O     O_R   0.787520 0.042810 0.170440 -0.474264
O2    O     O_R   0.454050 0.051210 0.669140 -0.512731
O3    O     O_R   0.045950 0.551210 0.330860 -0.516952
O4    O     O_R   0.954050 0.551210 0.669140 -0.512723
O5    O     O_R   0.681390 0.959480 0.325510 -0.515902
O6    O     O_R   0.318610 0.959480 0.674490 -0.513577
O7    O     O_R   0.181390 0.459480 0.325510 -0.514669
O8    O     O_R   0.818610 0.459480 0.674490 -0.514925
O9    O     O_3   0.667900 0.167900 0.250060 -0.275512
O10   O     O_3   0.332100 0.167900 0.749940 -0.268031
O11   O     O_3   0.167900 0.667900 0.250060 -0.265508
O12   O     O_R   0.212480 0.042810 0.829560 -0.496965
O13   O     O_3   0.832100 0.667900 0.749940 -0.277929
O14   O     O_R   0.765640 0.292100 0.175020 -0.443362
O15   O     O_R   0.234360 0.292100 0.824980 -0.444937
O16   O     O_R   0.265640 0.792100 0.175020 -0.445333
O17   O     O_R   0.734360 0.792100 0.824980 -0.443110
O18   O     O_R   0.670190 0.408840 0.168540 -0.532493
O19   O     O_R   0.329810 0.408840 0.831460 -0.538619
O20   O     O_R   0.170190 0.908840 0.168540 -0.538640
O21   O     O_R   0.829810 0.908840 0.831460 -0.532513
O22   O     O_R   0.556620 0.251410 0.175160 -0.528077
O23   O     O_R   0.287520 0.542810 0.170440 -0.497609
O24   O     O_R   0.443380 0.251410 0.824840 -0.518847
O25   O     O_R   0.056620 0.751410 0.175160 -0.519182
O26   O     O_R   0.943380 0.751410 0.824840 -0.527597
O27   O     O_R   0.545960 0.049620 0.170320 -0.458879
O28   O     O_R   0.454040 0.049620 0.829680 -0.489440
O29   O     O_R   0.045960 0.549620 0.170320 -0.489482
O30   O     O_R   0.954040 0.549620 0.829680 -0.459157
O31   O     O_R   0.681390 0.958010 0.176690 -0.503015
O32   O     O_R   0.318610 0.958010 0.823310 -0.497621
O33   O     O_R   0.181390 0.458010 0.176690 -0.497844
O34   O     O_R   0.712480 0.542810 0.829560 -0.473884
O35   O     O_R   0.818610 0.458010 0.823310 -0.502890
O36   O     O_R   0.787510 0.044390 0.330970 -0.514691
O37   O     O_R   0.212490 0.044390 0.669030 -0.512908
O38   O     O_R   0.287510 0.544390 0.330970 -0.511762
O39   O     O_R   0.712490 0.544390 0.669030 -0.515824
O40   O     O_R   0.765630 0.293570 0.323840 -0.495157
O41   O     O_R   0.234370 0.293570 0.676160 -0.497876
O42   O     O_R   0.265630 0.793570 0.323840 -0.493732
O43   O     O_R   0.734370 0.793570 0.676160 -0.499433
O44   O     O_R   0.670190 0.410420 0.329080 -0.525841
O45   O     O_R   0.556610 0.252880 0.323980 -0.512772
O46   O     O_R   0.329810 0.410420 0.670920 -0.527906
O47   O     O_R   0.170190 0.910420 0.329080 -0.528349
O48   O     O_R   0.829810 0.910420 0.670920 -0.525471
O49   O     O_2   0.531833 0.773048 0.948638 -0.356875
O50   O     O_2   0.599718 0.852734 0.850406 -0.298364
O51   O     O_3   0.581689 0.621173 0.857489 -0.550878
O52   O     O_2   0.489151 0.794815 0.080572 -0.329884
O53   O     O_2   0.416349 0.949367 0.136504 -0.283835
O54   O     O_3   0.408709 0.726955 0.181513 -0.516409
O55   O     O_2   0.010853 0.294346 0.919226 -0.330938
O56   O     O_R   0.443390 0.252880 0.676020 -0.513587
O57   O     O_2   0.083620 0.448703 0.863221 -0.283073
O58   O     O_3   0.091235 0.226090 0.818247 -0.515892
O59   O     O_2   0.968088 0.272359 0.051039 -0.356739
O60   O     O_2   0.900316 0.353586 0.149054 -0.298740
O61   O     O_3   0.917871 0.121859 0.142566 -0.550566
O62   O     O_R   0.056610 0.752880 0.323980 -0.515301
O63   O     O_R   0.943390 0.752880 0.676020 -0.510932
O64   O     O_R   0.545950 0.051210 0.330860 -0.517319
S1    S     S_3+6 0.593416 0.750828 0.903155 -0.036294
S2    S     S_3+6 0.419631 0.819611 0.111565 -0.018277
S3    S     S_3+6 0.080358 0.319072 0.888190 -0.018340
S4    S     S_3+6 0.906442 0.251018 0.096560 -0.036338

loop_
_geom_bond_atom_site_label_1
_geom_bond_atom_site_label_2
_ccdc_geom_bond_type
C3    C104  A    
C1    O18   A    
Cr9   O56   S    
C9    O56   A    
C73   C80   A    
C54   H53   S    
C87   C91   A    
C7    O48   A    
C35   C53   S    
C53   H57   S    
C118  H31   S    
C20   C67   S    
C111  H25   S    
C100  C105  A    
C74   C83   S    
C72   C76   A    
C26   H1    S    
Cr2   O32   S    
Cr3   O33   S    
C85   H7    S    
C83   H3    S    
Cr6   O38   S    
C119  H28   S    
C1    C33   S    
C90   C95   A    
Cr5   O37   S    
Cr1   O14   S    
C68   O26   A    
C18   C65   S    
C98   C124  A    
C121  H30   S    
C58   H64   S    
C55   S4    S    
C101  C123  A    
C65   O22   A    
C57   H59   S    
C32   C36   A    
C96   C118  S    
C28   C29   A    
C9    C69   S    
C41   C58   S    
C38   C42   A    
Cr5   O12   S    
C95   C112  S    
C115  O32   A    
C11   O4    A    
C10   C73   S    
C95   C99   A    
C120  H33   S    
C16   O39   A    
C80   H67   S    
C20   C25   A    
C94   C98   A    
Cr4   O30   S    
Cr10  O11   S    
Cr12  O27   S    
C66   O24   A    
C94   C111  S    
C106  H15   S    
C6    C88   S    
C14   O6    A    
Cr1   O36   S    
Cr8   O9    S    
C46   H48   S    
C89   C94   A    
C16   O8    A    
C70   H36   S    
C4    O40   A    
C110  C119  S    
C51   H52   S    
Cr2   O6    S    
C91   C96   A    
C88   C93   A    
C52   C56   S    
Cr1   O9    S    
O57   S3    D    
C7    C87   S    
C38   C55   S    
C39   C56   S    
O54   S2    S    
C54   S3    S    
C12   O36   A    
C18   C26   A    
C109  C118  S    
C7    O43   A    
C14   C123  S    
C2    H41   S    
C84   H6    S    
Cr11  O48   S    
C47   H49   S    
Cr2   O28   S    
C111  H20   S    
C9    O2    A    
Cr12  O31   S    
C4    C90   S    
O61   S4    S    
C45   H47   S    
Cr5   O15   S    
C93   C110  S    
C99   C121  S    
C14   O37   A    
O52   S2    D    
C117  O34   A    
C114  H40   S    
C40   C62   A    
C18   C22   A    
C55   C60   S    
C57   H63   S    
O50   S1    D    
C89   C107  A    
C36   C41   A    
C12   O5    A    
C31   C49   A    
C102  C124  A    
C109  H22   S    
C103  H39   S    
C82   H71   S    
Cr7   O43   S    
C120  H29   S    
C56   H62   S    
Cr6   O42   S    
C5    C89   S    
C39   C61   A    
Cr5   O41   S    
O59   S4    D    
C1    O14   A    
C74   C75   A    
C49   H50   S    
C86   H8    S    
C34   C39   A    
C17   C27   A    
C22   C81   A    
C5    O41   A    
C30   C47   A    
C102  C107  A    
C63   C116  S    
C76   C77   A    
C4    O44   A    
C53   C57   S    
C15   O7    A    
Cr2   O2    S    
C42   C60   S    
C83   H5    S    
Cr1   O1    S    
C11   C72   S    
C27   H12   S    
O53   S2    D    
C20   C28   A    
C44   C62   A    
C85   C86   S    
C46   C51   A    
C67   O29   A    
C44   C49   A    
C17   C21   A    
C64   C117  S    
C13   C24   A    
C66   O28   A    
C111  C120  S    
C52   H55   S    
Cr10  O20   S    
C104  H13   S    
C97   C119  S    
C19   C23   A    
C24   C81   A    
C55   H54   S    
C19   C68   S    
Cr5   O10   S    
C108  H17   S    
C6    O42   A    
Cr8   O18   S    
C102  H11   S    
C88   C106  A    
Cr7   O17   S    
C10   O62   A    
C83   C84   S    
C87   C105  A    
C15   O38   A    
C113  O31   A    
C100  H9    S    
C30   C59   S    
O60   S4    D    
C24   H43   S    
Cr11  O63   S    
C26   C27   A    
Cr11  O26   S    
C69   C74   A    
Cr12  O64   S    
Cr8   O44   S    
C32   C37   S    
C109  H18   S    
C97   C123  A    
C32   C50   A    
C13   H42   S    
Cr7   O39   S    
Cr8   O45   S    
Cr4   O8    S    
C56   H58   S    
C107  H16   S    
C117  O35   A    
C80   C82   A    
C15   C124  S    
C121  H35   S    
C5    O46   A    
C77   C86   S    
Cr3   O29   S    
C37   O15   A    
O55   S3    D    
C31   C48   S    
C116  O23   A    
Cr11  O21   S    
C29   H34   S    
C31   C35   A    
C115  O12   A    
C69   C79   A    
C105  H14   S    
C41   C63   A    
C59   O21   A    
C34   C52   S    
C93   C97   A    
C50   H51   S    
C104  C108  A    
C110  H24   S    
C112  H26   S    
C43   C61   A    
C60   H65   S    
Cr12  O5    S    
C54   C58   S    
C44   H46   S    
Cr3   O3    S    
C101  C106  A    
C116  O33   A    
C67   O25   A    
Cr11  O13   S    
H68   O54   S    
C40   C57   S    
C101  H10   S    
C112  C121  S    
C78   C79   A    
C11   O63   A    
C65   O27   A    
C25   C103  A    
Cr9   O19   S    
Cr1   O40   S    
Cr7   O34   S    
Cr8   O22   S    
Cr4   O13   S    
Cr10  O47   S    
C42   C64   A    
Cr3   O11   S    
C98   C120  S    
C52   S1    S    
Cr12  O9    S    
C110  H19   S    
Cr10  O62   S    
C48   O16   A    
C59   O17   A    
O49   S1    D    
Cr9   O10   S    
C96   C122  A    
C21   C70   A    
C79   H56   S    
C78   H45   S    
C92   H38   S    
C91   C109  S    
Cr6   O16   S    
C35   C40   A    
Cr9   O24   S    
C113  O1    A    
C62   C115  S    
C8    O64   A    
C68   O30   A    
H66   O51   S    
Cr4   O4    S    
C71   C75   A    
C2    C114  A    
Cr3   O7    S    
C33   C51   A    
Cr9   O46   S    
C43   C47   A    
C43   H44   S    
C48   O20   A    
C118  H27   S    
C76   C85   S    
C3    C16   S    
C58   H60   S    
Cr10  O25   S    
C45   C63   A    
C6    O47   A    
O51   S1    S    
C100  C122  A    
Cr6   O23   S    
C28   H23   S    
C30   C34   A    
C17   C66   S    
Cr6   O11   S    
C75   C84   S    
C2    C103  A    
C36   C54   S    
C86   H2    S    
C61   C113  S    
C90   C108  A    
C60   H61   S    
C3    C99   A    
C10   O3    A    
C37   O19   A    
C23   C25   A    
C12   C122  S    
H69   O58   S    
C84   H4    S    
O58   S3    S    
C53   S2    S    
C13   C70   A    
H70   O61   S    
C46   C64   A    
Cr4   O35   S    
C73   C77   A    
C23   C92   A    
C112  H21   S    
C33   C38   A    
C45   C50   A    
C21   C22   A    
C92   C114  A    
C119  H32   S    
Cr7   O13   S    
C71   C78   A    
C72   C82   A    
C8    O45   A    
Cr2   O10   S    
C85   H72   S    
C81   H37   S    
C8    C71   S    
C19   C29   A    
