data_mof_unit_28501.cif
_audit_creation_date              2012-12-11T14:11:03-0500
_audit_creation_method            fapswitch 2.2
_symmetry_space_group_name_H-M    P1
_symmetry_Int_Tables_number       1
_space_group_crystal_system       triclinic
_cell_length_a                    19.738243
_cell_length_b                    17.17501
_cell_length_c                    15.467056
_cell_angle_alpha                 89.999989
_cell_angle_beta                  52.440291
_cell_angle_gamma                 90.0
_cell_volume                      4156.54173812

loop_
_atom_site_label
_atom_site_type_symbol
_atom_type_description
_atom_site_fract_x
_atom_site_fract_y
_atom_site_fract_z
_atom_type_partial_charge
C1    C     C_R   0.339148 0.175113 0.048849 -0.096159
C2    C     C_3   0.698663 0.756494 0.435580 -0.360038
C3    C     C_3   0.788970 0.191819 0.415001 -0.369017
C4    C     C_3   0.211028 0.808182 0.585000 -0.369019
C5    C     C_3   0.711023 0.691814 0.585004 -0.369017
C6    C     C_3   0.288969 0.308181 0.415001 -0.369018
C7    C     C_3   0.198658 0.743510 0.435583 -0.360039
C8    C     C_3   0.801343 0.256489 0.564416 -0.360038
C9    C     C_2   0.286587 0.687115 0.954335 -0.183822
C10   C     C_2   0.713413 0.312885 0.045665 -0.183816
C11   C     C_2   0.809747 0.743508 0.905085 -0.116695
C12   C     C_R   0.660852 0.824887 0.951151 -0.096159
C13   C     C_2   0.190253 0.256492 0.094915 -0.116695
C14   C     C_2   0.690253 0.243508 0.094915 -0.116695
C15   C     C_2   0.309747 0.756492 0.905085 -0.116701
C16   C     C_2   0.213413 0.187115 0.045665 -0.183817
C17   C     C_2   0.786587 0.812885 0.954335 -0.183818
C18   C     C_R   0.349183 0.827455 0.220662 -0.098142
C19   C     C_R   0.650817 0.172545 0.779338 -0.098141
C20   C     C_R   0.609922 0.802611 0.786639 -0.127772
C21   C     C_R   0.390077 0.197389 0.213362 -0.127772
C22   C     C_R   0.890077 0.302611 0.213362 -0.127772
C23   C     C_R   0.625725 0.197157 0.004843 -0.124120
C24   C     C_R   0.109923 0.697389 0.786639 -0.127772
C25   C     C_R   0.150817 0.327455 0.779338 -0.098140
C26   C     C_R   0.849183 0.672546 0.220662 -0.098147
C27   C     C_R   0.365511 0.889828 0.897037 -0.135960
C28   C     C_R   0.634489 0.110172 0.102963 -0.135962
C29   C     C_R   0.670118 0.913322 0.048834 -0.123303
C30   C     C_R   0.329882 0.086678 0.951166 -0.123304
C31   C     C_R   0.829882 0.413322 0.951166 -0.123303
C32   C     C_R   0.170118 0.586678 0.048834 -0.123304
C33   C     C_R   0.134489 0.389828 0.102963 -0.135961
C34   C     C_R   0.374275 0.802843 0.995157 -0.124121
C35   C     C_R   0.865511 0.610172 0.897037 -0.135961
C36   C     C_R   0.398997 0.106156 0.309005 -0.141908
C37   C     C_R   0.601002 0.893844 0.690996 -0.141906
C38   C     C_R   0.643560 0.079636 0.683267 -0.046704
C39   C     C_R   0.356440 0.920364 0.316733 -0.046701
C40   C     C_R   0.856440 0.579637 0.316733 -0.046699
C41   C     C_R   0.143560 0.420364 0.683267 -0.046704
C42   C     C_R   0.101002 0.606156 0.690996 -0.141907
C43   C     C_R   0.898997 0.393844 0.309004 -0.141907
C44   C     C_R   0.287375 0.147860 0.023286 0.139424
C45   C     C_R   0.874275 0.697157 0.995157 -0.124119
C46   C     C_R   0.712625 0.852140 0.976714 0.139424
C47   C     C_R   0.653035 0.185919 0.067123 0.145326
C48   C     C_R   0.346965 0.814081 0.932876 0.145326
C49   C     C_R   0.846965 0.685919 0.932876 0.145326
C50   C     C_R   0.153035 0.314081 0.067123 0.145326
C51   C     C_R   0.212625 0.647860 0.976714 0.139426
C52   C     C_R   0.787375 0.352140 0.023286 0.139424
C53   C     C_R   0.307328 0.860417 0.322641 0.110896
C54   C     C_R   0.692672 0.139583 0.677359 0.110896
C55   C     C_R   0.624611 0.818695 0.689747 0.165505
C56   C     C_R   0.125725 0.302843 0.004843 -0.124121
C57   C     C_R   0.375387 0.181304 0.310254 0.165508
C58   C     C_R   0.875388 0.318696 0.310254 0.165507
C59   C     C_R   0.124612 0.681304 0.689747 0.165507
C60   C     C_R   0.192672 0.360417 0.677359 0.110896
C61   C     C_R   0.807329 0.639584 0.322641 0.110896
C62   C     C_3   0.261893 0.203560 0.514809 -0.359025
C63   C     C_3   0.738111 0.796439 0.485194 -0.359017
C64   C     C_3   0.828256 0.151229 0.464882 -0.356535
C65   C     C_3   0.171742 0.848770 0.535117 -0.356534
C66   C     C_3   0.671738 0.651231 0.535116 -0.356527
C67   C     C_R   0.160852 0.675113 0.951151 -0.096160
C68   C     C_3   0.328256 0.348771 0.464882 -0.356536
C69   C     C_3   0.238108 0.703560 0.485192 -0.359024
C70   C     C_3   0.761893 0.296440 0.514809 -0.359025
C71   C     C_3   0.623499 0.727284 0.549944 0.917592
C72   C     C_3   0.376502 0.272722 0.450049 0.917599
C73   C     C_3   0.285230 0.778409 0.472005 0.909916
C74   C     C_3   0.714770 0.221592 0.527997 0.909914
C75   C     C_3   0.214770 0.278407 0.527997 0.909916
C76   C     C_3   0.785228 0.721587 0.472010 0.909907
C77   C     C_3   0.876502 0.227278 0.450050 0.917598
C78   C     C_R   0.839148 0.324887 0.048849 -0.096159
C79   C     C_3   0.123498 0.772721 0.549948 0.917599
C80   C     C_3   0.662927 0.766594 0.598173 -0.089483
C81   C     C_3   0.337072 0.233406 0.401828 -0.089481
C82   C     C_3   0.246903 0.818344 0.422358 -0.091407
C83   C     C_3   0.753097 0.181656 0.577642 -0.091406
C84   C     C_3   0.253096 0.318344 0.577642 -0.091407
C85   C     C_3   0.746904 0.681656 0.422358 -0.091407
C86   C     C_3   0.837072 0.266594 0.401828 -0.089482
C87   C     C_3   0.162928 0.733406 0.598173 -0.089482
C88   C     C_3   0.301343 0.243511 0.564416 -0.360039
F1    F     F_    0.538039 0.732064 0.594375 -0.689609
F2    F     F_    0.461963 0.267948 0.405611 -0.689612
F3    F     F_    0.370325 0.781486 0.429944 -0.690860
F4    F     F_    0.629673 0.218517 0.570060 -0.690861
F5    F     F_    0.129673 0.281482 0.570061 -0.690861
F6    F     F_    0.870323 0.718506 0.429954 -0.690860
F7    F     F_    0.961963 0.232053 0.405612 -0.689612
F8    F     F_    0.038038 0.767944 0.594385 -0.689610
H1    H     H_    0.329143 0.224664 0.098065 0.089694
H2    H     H_    0.669494 0.223743 0.800602 0.099690
H3    H     H_    0.611886 0.746082 0.815776 0.094031
H4    H     H_    0.388113 0.253918 0.184225 0.094031
H5    H     H_    0.888113 0.246082 0.184225 0.094031
H6    H     H_    0.111887 0.753918 0.815775 0.094031
H7    H     H_    0.169494 0.276257 0.800602 0.099689
H8    H     H_    0.830506 0.723743 0.199397 0.099690
H9    H     H_    0.361989 0.915892 0.836201 0.107502
H10   H     H_    0.638011 0.084108 0.163799 0.107501
H11   H     H_    0.690347 0.947129 0.088418 0.099900
H12   H     H_    0.670857 0.775336 0.901935 0.089694
H13   H     H_    0.309653 0.052871 0.911582 0.099900
H14   H     H_    0.809653 0.447129 0.911582 0.099900
H15   H     H_    0.190347 0.552871 0.088418 0.099900
H16   H     H_    0.138011 0.415892 0.163799 0.107501
H17   H     H_    0.861989 0.584108 0.836201 0.107502
H18   H     H_    0.404091 0.078681 0.367756 0.117708
H19   H     H_    0.595908 0.921319 0.632245 0.117710
H20   H     H_    0.655482 0.045470 0.616602 0.102741
H21   H     H_    0.344518 0.954530 0.383398 0.102742
H22   H     H_    0.844518 0.545470 0.383398 0.102744
H23   H     H_    0.618466 0.251953 0.977081 0.086785
H24   H     H_    0.155482 0.454530 0.616602 0.102741
H25   H     H_    0.095908 0.578681 0.632244 0.117708
H26   H     H_    0.904091 0.421319 0.367756 0.117708
H27   H     H_    0.234354 0.144011 0.533568 0.171486
H28   H     H_    0.765654 0.855986 0.466438 0.171486
H29   H     H_    0.855023 0.091453 0.447281 0.177477
H30   H     H_    0.144975 0.908546 0.552717 0.177479
H31   H     H_    0.644967 0.591456 0.552714 0.177479
H32   H     H_    0.355022 0.408547 0.447281 0.177478
H33   H     H_    0.265648 0.644012 0.466434 0.171486
H34   H     H_    0.381534 0.748047 0.022919 0.086784
H35   H     H_    0.734354 0.355989 0.533568 0.171486
H36   H     H_    0.306944 0.218547 0.626010 0.172224
H37   H     H_    0.693069 0.781462 0.373982 0.172221
H38   H     H_    0.782993 0.166566 0.353867 0.166895
H39   H     H_    0.217003 0.833436 0.646135 0.166895
H40   H     H_    0.716993 0.666558 0.646142 0.166893
H41   H     H_    0.282992 0.333433 0.353867 0.166895
H42   H     H_    0.193060 0.718545 0.373987 0.172223
H43   H     H_    0.806943 0.281453 0.626011 0.172224
H44   H     H_    0.309818 0.666001 0.997969 0.122006
H45   H     H_    0.881534 0.751953 0.022919 0.086784
H46   H     H_    0.690182 0.333999 0.002031 0.122005
H47   H     H_    0.788493 0.723185 0.858870 0.128179
H48   H     H_    0.211507 0.276815 0.141130 0.128177
H49   H     H_    0.711507 0.223185 0.141130 0.128177
H50   H     H_    0.288493 0.776815 0.858870 0.128180
H51   H     H_    0.190182 0.166001 0.002031 0.122005
H52   H     H_    0.809818 0.833999 0.997969 0.122005
H53   H     H_    0.118466 0.248047 0.977081 0.086785
H54   H     H_    0.170857 0.724664 0.901935 0.089694
H55   H     H_    0.829143 0.275336 0.098065 0.089694
H56   H     H_    0.330506 0.776257 0.199398 0.099690
N1    N     N_R   0.408680 0.130810 0.995780 -0.048513
N2    N     N_R   0.578590 0.132790 0.846380 -0.049156
N3    N     N_R   0.578590 0.867210 0.846380 -0.047679
N4    N     N_R   0.421410 0.132790 0.153620 -0.047679
N5    N     N_R   0.921410 0.367210 0.153620 -0.047679
N6    N     N_R   0.078590 0.632790 0.846380 -0.047679
N7    N     N_R   0.078590 0.367210 0.846380 -0.049156
N8    N     N_R   0.921410 0.632790 0.153620 -0.049157
N9    N     N_R   0.403840 0.921910 0.935760 -0.044933
N10   N     N_R   0.596160 0.078090 0.064240 -0.044933
N11   N     N_R   0.596160 0.921910 0.064240 -0.042314
N12   N     N_R   0.591320 0.869190 0.004220 -0.048513
N13   N     N_R   0.403840 0.078090 0.935760 -0.042314
N14   N     N_R   0.903840 0.421910 0.935760 -0.042314
N15   N     N_R   0.096160 0.578090 0.064240 -0.042314
N16   N     N_R   0.096160 0.421910 0.064240 -0.044933
N17   N     N_R   0.903840 0.578090 0.935760 -0.044933
N18   N     N_R   0.426250 0.076100 0.213650 -0.050772
N19   N     N_R   0.573750 0.923900 0.786350 -0.050772
N20   N     N_R   0.573750 0.076100 0.786350 -0.046623
N21   N     N_R   0.426250 0.923900 0.213650 -0.046624
N22   N     N_R   0.926250 0.576100 0.213650 -0.046624
N23   N     N_R   0.591320 0.130810 0.004220 -0.047334
N24   N     N_R   0.073750 0.423900 0.786350 -0.046623
N25   N     N_R   0.073750 0.576100 0.786350 -0.050772
N26   N     N_R   0.926250 0.423900 0.213650 -0.050772
N27   N     N_R   0.408680 0.869190 0.995780 -0.047334
N28   N     N_R   0.908680 0.630810 0.995780 -0.047334
N29   N     N_R   0.091320 0.369190 0.004220 -0.047334
N30   N     N_R   0.091320 0.630810 0.004220 -0.048513
N31   N     N_R   0.908680 0.369190 0.995780 -0.048513
N32   N     N_R   0.421410 0.867210 0.153620 -0.049156
Ni1   Ni    Ni4+2 0.500000 0.131570 0.000000 0.217455
Ni2   Ni    Ni4+2 0.500000 0.868430 0.000000 0.217454
Ni3   Ni    Ni4+2 0.000000 0.631570 0.000000 0.217453
Ni4   Ni    Ni4+2 0.000000 0.368430 0.000000 0.217455
Ni5   Ni    Ni4+2 0.488900 0.000000 0.862310 0.235444
Ni6   Ni    Ni4+2 0.511100 0.000000 0.137690 0.235445
Ni7   Ni    Ni4+2 0.988900 0.500000 0.862310 0.235444
Ni8   Ni    Ni4+2 0.011100 0.500000 0.137690 0.235445

loop_
_geom_bond_atom_site_label_1
_geom_bond_atom_site_label_2
_ccdc_geom_bond_type
C27   C48   A    
C5    H40   S    
C40   H22   S    
C28   C47   A    
C65   C79   S    
C20   N3    A    
C8    C83   S    
C64   C77   S    
C29   N11   A    
N11   N12   A    
C9    C51   S    
N5    Ni4   S    
C74   C83   S    
C39   N21   A    
C36   H18   S    
N6    Ni3   S    
C66   C85   S    
C79   C87   S    
C63   H28   S    
C28   N10   A    
C6    C75   S    
C43   N26   A    
N27   Ni2   S    
C3    C64   S    
N15   Ni8   S    
C14   H49   S    
C22   H5    S    
C16   H51   S    
N25   Ni7   S    
C32   H15   S    
C26   C61   A    
C78   N31   A    
N12   Ni2   S    
C23   H23   S    
C4    C65   S    
C9    H44   S    
C24   N6    A    
C75   C84   S    
N15   N30   A    
N23   Ni1   S    
C56   N29   A    
C27   H9    S    
C42   N25   A    
N21   Ni6   S    
C38   H20   S    
C66   H31   S    
N19   Ni5   S    
C2    C85   S    
N14   Ni7   S    
C10   H46   S    
C13   H48   S    
C74   F4    S    
C3    C74   S    
C70   C74   S    
C62   H27   S    
C45   N28   A    
C76   F6    S    
C21   N4    A    
N21   N32   A    
C28   H10   S    
C71   F1    S    
C35   C49   A    
N13   Ni5   S    
C26   N8    A    
C25   C60   A    
C18   N32   A    
N9    N27   A    
C16   C44   S    
N17   N28   A    
C72   C81   S    
C18   C53   A    
C42   H25   S    
N5    N26   A    
C26   H8    S    
C15   H50   S    
C6    C68   S    
C10   C52   S    
C6    C81   S    
C3    C86   S    
C45   H45   S    
C30   C44   A    
C34   N27   A    
C15   C48   S    
C20   C55   A    
C52   C78   A    
C58   C86   S    
C54   C83   S    
C72   C88   S    
C19   H2    S    
C78   H55   S    
C63   C80   S    
N2    Ni1   S    
C2    H37   S    
C23   C47   A    
C30   H13   S    
C68   C84   S    
C17   H52   S    
C17   C46   S    
C73   F3    S    
N9    Ni5   S    
C36   C57   A    
C10   C14   D    
C1    H1    S    
C12   H12   S    
C21   H4    S    
C25   N7    A    
C25   H7    S    
N24   Ni7   S    
N10   N23   A    
C33   C50   A    
N4    Ni1   S    
C62   C88   S    
C77   F7    S    
C50   C56   A    
C40   C61   A    
C4    C87   S    
C53   C82   S    
N7    Ni4   S    
C1    N1    A    
C64   C83   S    
C21   C57   A    
C11   C49   S    
N28   Ni3   S    
C12   N12   A    
N26   Ni8   S    
C1    C44   A    
C66   C71   S    
C38   C54   A    
C31   N14   A    
C45   C49   A    
C68   C72   S    
N2    N20   A    
C33   H16   S    
C51   C67   A    
C5    C80   S    
C69   C73   S    
C43   H26   S    
C4    C73   S    
C61   C85   S    
C4    H39   S    
C19   C54   A    
C12   C46   A    
C62   C81   S    
C77   C86   S    
N16   N29   A    
N7    N24   A    
C8    H43   S    
C8    C77   S    
C35   N17   A    
C57   C81   S    
C62   C75   S    
C13   C16   D    
C33   N16   A    
C34   C48   A    
C88   H36   S    
C2    C71   S    
C70   C86   S    
C67   H54   S    
C73   C82   S    
N10   Ni6   S    
C2    C63   S    
C75   F5    S    
C7    C79   S    
C72   F2    S    
C22   C58   A    
C32   C51   A    
C68   H32   S    
C11   C17   D    
N1    N13   A    
N8    N22   A    
N6    N25   A    
N14   N31   A    
C84   C88   S    
C41   C60   A    
C5    C66   S    
N3    Ni2   S    
C69   C87   S    
C42   C59   A    
C37   N19   A    
C7    H42   S    
C71   C80   S    
C38   N20   A    
C14   C47   S    
C37   H19   S    
C22   N5    A    
N20   Ni5   S    
N18   Ni6   S    
C36   N18   A    
N16   Ni8   S    
C31   C52   A    
C29   C46   A    
C3    H38   S    
C65   H30   S    
C6    H41   S    
C7    C69   S    
C9    C15   D    
C79   F8    S    
C39   H21   S    
N31   Ni4   S    
C27   N9    A    
C40   N22   A    
C55   C80   S    
C60   C84   S    
C65   C82   S    
C39   C53   A    
C20   H3    S    
N1    Ni1   S    
C5    C76   S    
C24   C59   A    
N4    N18   A    
C70   H35   S    
C31   H14   S    
N32   Ni2   S    
C35   H17   S    
N11   Ni6   S    
C24   H6    S    
N30   Ni3   S    
C41   H24   S    
C59   C87   S    
C41   N24   A    
C13   C50   S    
C37   C55   A    
N3    N19   A    
C7    C82   S    
C23   N23   A    
C34   H34   S    
C69   H33   S    
C64   H29   S    
C63   C76   S    
C32   N15   A    
C8    C70   S    
C19   N2    A    
N17   Ni7   S    
C43   C58   A    
C29   H11   S    
C30   N13   A    
N8    Ni3   S    
N29   Ni4   S    
C56   H53   S    
C11   H47   S    
C76   C85   S    
C67   N30   A    
N22   Ni8   S    
C18   H56   S    
