data_mof_unit_15006.cif
_audit_creation_date              2013-03-05T15:55:17-0500
_audit_creation_method            fapswitch 2.2
_symmetry_space_group_name_H-M    P1
_symmetry_Int_Tables_number       1
_space_group_crystal_system       triclinic
_cell_length_a                    6.930872
_cell_length_b                    16.81417
_cell_length_c                    17.062545
_cell_angle_alpha                 100.350994
_cell_angle_beta                  90.800165
_cell_angle_gamma                 89.441831
_cell_volume                      1955.81135621

loop_
_atom_site_label
_atom_site_type_symbol
_atom_site_description
_atom_site_fract_x
_atom_site_fract_y
_atom_site_fract_z
_atom_type_partial_charge
O1    O     O_R   0.494370 0.415690 0.413450 -0.598039
O2    O     O_R   0.819420 0.429360 0.578420 -0.596658
O3    O     O_R   0.994280 0.584310 0.586550 -0.597203
C1    C     C_R   0.653493 0.413757 0.605469 0.936718
O4    O     O_R   0.823790 0.406230 0.413570 -0.600459
O5    O     O_R   0.998670 0.561000 0.420530 -0.594121
C2    C     C_R   0.654672 0.383039 0.384894 0.917882
O6    O     O_R   0.489970 0.439000 0.579470 -0.589661
O7    O     O_3   0.662300 0.550810 0.502470 -0.270515
V1    V     V_3+5 0.935380 0.490570 0.499540 1.154287
O8    O     O_R   0.328650 0.570640 0.421580 -0.592165
C3    C     C_R   0.157314 0.585837 0.394687 0.938531
O9    O     O_R   0.324290 0.593770 0.586430 -0.599379
C4    C     C_R   0.155312 0.616916 0.615086 0.926897
V2    V     V_3+5 0.435930 0.509430 0.500460 1.154692
O10   O     O_3   0.159140 0.449190 0.497530 -0.274872
C5    C     C_R   0.312050 0.723768 0.718363 -0.143049
H1    H     H_    0.452853 0.704600 0.695119 0.122549
C6    C     C_R   0.300604 0.787495 0.783507 -0.047883
H2    H     H_    0.433279 0.815537 0.808258 0.136728
C7    C     C_R   0.120881 0.814687 0.816070 -0.128238
C8    C     C_R   0.952943 0.776271 0.781619 -0.095485
H3    H     H_    0.812143 0.795447 0.804867 0.128766
C9    C     C_R   0.964392 0.712507 0.716507 -0.129808
H4    H     H_    0.831721 0.684432 0.691790 0.125247
C10   C     C_R   0.144111 0.685349 0.683900 -0.133494
C11   C     C_R   0.133572 0.635947 0.331833 -0.131497
C12   C     C_R   0.130240 0.859308 0.164676 -0.302934
C13   C     C_R   0.326469 0.821721 0.272568 -0.146291
C14   C     C_R   0.287146 0.873100 0.218565 -0.115933
C15   C     C_R   0.008981 0.792394 0.166475 0.271551
C16   C     C_R   0.049416 0.739786 0.221395 0.030268
C17   C     C_R   0.210289 0.754600 0.274303 0.172428
C18   C     C_R   0.252429 0.702316 0.328540 -0.233343
C19   C     C_R   0.976317 0.620976 0.278390 -0.168996
C20   C     C_R   0.935661 0.671481 0.223620 -0.128997
H5    H     H_    0.373180 0.714833 0.369868 0.131797
H6    H     H_    0.882754 0.569905 0.279334 0.131683
H7    H     H_    0.449566 0.834196 0.312620 0.130752
H8    H     H_    0.813654 0.656688 0.183596 0.171484
H9    H     H_    0.381917 0.923958 0.218482 0.145241
C21   C     C_R   0.659551 0.362038 0.667932 -0.142503
C22   C     C_R   0.604254 0.134263 0.828643 -0.284790
C23   C     C_R   0.421292 0.181804 0.721640 -0.327096
C24   C     C_R   0.448325 0.125351 0.772533 0.378906
C25   C     C_R   0.736670 0.197090 0.828099 -0.259750
C26   C     C_R   0.710924 0.252326 0.775357 0.210638
C27   C     C_R   0.550184 0.245452 0.722604 0.153493
C28   C     C_R   0.523727 0.300909 0.669957 -0.236387
C29   C     C_R   0.818240 0.368379 0.721256 -0.145855
C30   C     C_R   0.842824 0.314785 0.774660 -0.181611
H10   H     H_    0.402771 0.294328 0.628379 0.135327
H11   H     H_    0.925729 0.414674 0.720944 0.132206
H12   H     H_    0.301035 0.174775 0.679721 0.176139
H13   H     H_    0.967140 0.321399 0.814461 0.126038
H14   H     H_    0.856006 0.204598 0.870481 0.150619
C31   C     C_R   0.811949 0.276536 0.282278 -0.140943
H15   H     H_    0.952852 0.295985 0.306016 0.120778
C32   C     C_R   0.801019 0.212750 0.217158 -0.138156
H16   H     H_    0.933971 0.184905 0.192890 0.120577
C33   C     C_R   0.621282 0.185283 0.183988 -0.115468
C34   C     C_R   0.452779 0.223381 0.217830 -0.144350
H17   H     H_    0.311879 0.203935 0.194086 0.119109
C35   C     C_R   0.463709 0.287168 0.282951 -0.134798
H18   H     H_    0.330761 0.315017 0.307218 0.122829
C36   C     C_R   0.643448 0.314636 0.316119 -0.124574
O11   O     O_R   0.774880 0.061150 0.920630 -0.581947
O12   O     O_R   0.440980 0.093710 0.086500 -0.611537
O13   O     O_R   0.266190 0.938890 0.079390 -0.594834
C37   C     C_R   0.610081 0.116899 0.115194 0.896089
O14   O     O_R   0.445420 0.070740 0.921670 -0.584089
O15   O     O_R   0.270660 0.915760 0.913380 -0.578962
C38   C     C_R   0.611047 0.084994 0.893463 1.015491
O16   O     O_R   0.770400 0.084270 0.086640 -0.610967
O17   O     O_3   0.602590 0.949210 0.997500 -0.247946
V3    V     V_3+5 0.329470 0.009420 0.000470 1.214757
O18   O     O_R   0.940650 0.906250 0.913470 -0.591487
C39   C     C_R   0.109653 0.883117 0.884858 1.012877
O19   O     O_R   0.936210 0.929220 0.078300 -0.561772
C40   C     C_R   0.107573 0.912655 0.104166 0.996877
V4    V     V_3+5 0.828930 0.990510 0.999490 1.232891
O20   O     O_3   0.105680 0.050790 0.002500 -0.289378
N1    N     N_R   0.852222 0.775614 0.110349 0.231096
O21   O     O_R   0.674845 0.781659 0.134836 -0.415718
O22   O     O_R   0.886552 0.756272 0.034473 -0.410603
N2    N     N_R   0.318942 0.057970 0.764923 0.236620
O23   O     O_R   0.386334 0.985628 0.765817 -0.427646
O24   O     O_R   0.138284 0.066678 0.746142 -0.408669

loop_
_geom_bond_atom_site_label_1
_geom_bond_atom_site_label_2
_geom_bond_distance
_ccdc_geom_bond_type
C33   C37   1.489996 S    
C22   C38   1.496256 S    
C18   H5    1.084238 S    
C6    H2    1.082728 S    
C31   C36   1.406779 A    
O15   V3    2.002239 S    
V4    O20   2.173830 S    
C15   C16   1.422960 A    
O18   C39   1.304035 A    
C34   H17   1.082717 S    
C5    C10   1.406021 A    
C16   C20   1.405792 A    
C6    C7    1.409368 A    
C9    C10   1.409452 A    
O5    C3    1.290922 A    
O14   V3    2.015223 S    
N2    O24   1.301538 A    
C31   C32   1.400571 A    
V2    O10   2.173858 S    
C13   C17   1.397619 A    
C15   N1    1.434199 S    
O13   V3    2.003116 S    
O15   C39   1.297746 A    
O8    V2    1.969378 S    
C26   C27   1.414851 A    
C7    C39   1.490967 S    
C37   O16   1.296231 A    
C34   C35   1.400594 A    
C14   H9    1.083560 S    
O11   C38   1.306978 A    
O7    V1    2.134895 S    
C1    O6    1.306017 A    
C32   H16   1.082751 S    
O9    C4    1.304186 A    
C17   C18   1.412222 A    
C11   C18   1.403153 A    
C32   C33   1.408206 A    
C29   H11   1.083449 S    
C3    C11   1.484660 S    
C20   H8    1.081770 S    
C19   H6    1.083638 S    
C9    H4    1.082720 S    
V3    O20   1.691943 S    
O4    C2    1.299872 A    
N2    O23   1.301297 A    
O17   V4    1.719177 S    
C26   C30   1.400816 A    
C11   C19   1.406372 A    
C19   C20   1.395358 A    
C35   C36   1.408211 A    
O2    C1    1.291741 A    
O17   V3    2.134873 S    
C13   C14   1.394294 A    
N1    O21   1.301121 A    
O18   V4    2.006017 S    
C28   H10   1.084120 S    
C13   H7    1.083795 S    
C5    H1    1.082714 S    
C29   C30   1.399682 A    
C4    C10   1.491281 S    
C22   C24   1.424675 A    
O3    C4    1.297741 A    
C21   C29   1.410077 A    
O1    V2    2.003967 S    
C27   C28   1.415318 A    
N1    O22   1.301647 A    
O11   V4    1.978173 S    
O6    V2    1.977628 S    
O9    V2    2.006050 S    
C8    C9    1.401020 A    
O16   V4    2.005753 S    
C25   H14   1.084207 S    
O2    V1    2.015123 S    
C23   C24   1.406531 A    
O19   V4    1.969318 S    
C25   C26   1.413112 A    
O1    C2    1.296265 A    
C12   C15   1.415866 A    
O5    V1    2.003133 S    
O8    C3    1.306534 A    
O12   V3    2.000680 S    
C16   C17   1.420096 A    
C12   C14   1.407922 A    
C24   N2    1.438150 S    
O7    V2    1.719896 S    
O4    V1    2.000765 S    
O3    V1    2.002429 S    
V1    O10   1.691834 S    
C35   H18   1.082750 S    
C2    C36   1.490005 S    
C31   H15   1.082717 S    
C1    C21   1.491643 S    
C5    C6    1.400970 A    
C30   H13   1.083661 S    
C33   C34   1.406782 A    
C12   C40   1.490202 S    
C22   C25   1.407465 A    
C21   C28   1.405825 A    
O19   C40   1.306168 A    
C23   H12   1.084034 S    
O12   C37   1.299864 A    
O14   C38   1.291927 A    
C8    H3    1.082747 S    
O13   C40   1.292799 A    
C7    C8    1.405938 A    
C23   C27   1.398390 A    
