data_mof_unit_41551.cif
_audit_creation_date              2012-12-10T20:34:51-0500
_audit_creation_method            fapswitch 2.2
_symmetry_space_group_name_H-M    P1
_symmetry_Int_Tables_number       1
_space_group_crystal_system       triclinic
_cell_length_a                    10.634204
_cell_length_b                    10.585168
_cell_length_c                    9.952884
_cell_angle_alpha                 90.987932
_cell_angle_beta                  89.554508
_cell_angle_gamma                 90.013945
_cell_volume                      1120.1443467

loop_
_atom_site_label
_atom_site_type_symbol
_atom_type_description
_atom_site_fract_x
_atom_site_fract_y
_atom_site_fract_z
_atom_type_partial_charge
C1    C     C_R   0.499918 0.260772 0.499074 0.879314
C2    C     C_3   0.878276 0.509333 0.499644 -0.117565
C3    C     C_3   0.930597 0.554195 0.360274 0.241975
C4    C     C_3   0.927682 0.370647 0.518293 -0.248681
C5    C     C_R   0.399774 0.066347 0.555508 0.177774
C6    C     C_R   0.501069 0.128876 0.498504 -0.085401
C7    C     C_R   0.608134 0.064128 0.453853 -0.114850
C8    C     C_R   0.608032 0.933694 0.455704 -0.168319
C9    C     C_R   0.501202 0.871294 0.503001 -0.084984
C10   C     C_R   0.399184 0.936920 0.556972 0.155964
C11   C     C_3   0.264511 0.930919 0.514219 -0.450412
C12   C     C_R   0.258118 0.504427 0.500182 0.852070
C13   C     C_3   0.264887 0.073753 0.516264 -0.468041
C14   C     C_R   0.548316 0.401110 0.068029 0.147629
C15   C     C_R   0.461603 0.603018 0.075418 -0.074503
C16   C     C_R   0.460538 0.603471 0.932494 0.023741
C17   C     C_R   0.546510 0.400541 0.927054 0.109638
C18   C     C_3   0.512475 0.262765 0.918635 -0.364207
C19   C     C_3   0.518582 0.261913 0.073877 -0.245276
C20   C     C_R   0.498719 0.739298 0.500804 0.885599
C21   C     C_R   0.741670 0.505449 0.499665 0.882366
C22   C     C_3   0.072703 0.589281 0.619890 -0.382845
C23   C     C_3   0.928208 0.596628 0.617094 -0.190703
C24   C     C_3   0.073491 0.566206 0.367313 -0.409443
C25   C     C_3   0.072585 0.370671 0.511572 -0.462572
C26   C     C_3   0.121633 0.507550 0.499715 0.049982
H1    H     H_    0.116334 0.684401 0.616339 0.187220
H2    H     H_    0.893694 0.312240 0.431470 0.155357
H3    H     H_    0.114265 0.517291 0.277127 0.202672
H4    H     H_    0.908570 0.480362 0.282802 0.160656
H5    H     H_    0.689590 0.113946 0.415956 0.196821
H6    H     H_    0.689075 0.881792 0.418320 0.216143
H7    H     H_    0.252903 0.888840 0.411854 0.222838
H8    H     H_    0.200959 0.891745 0.591665 0.217835
H9    H     H_    0.250860 0.115462 0.415833 0.224200
H10   H     H_    0.205450 0.115167 0.598047 0.215856
H11   H     H_    0.427282 0.684252 0.132193 0.164006
H12   H     H_    0.101813 0.546756 0.716406 0.254554
H13   H     H_    0.588164 0.207509 0.866787 0.187648
H14   H     H_    0.893946 0.558704 0.713992 0.203268
H15   H     H_    0.102998 0.667024 0.363493 0.222613
H16   H     H_    0.104357 0.313582 0.422685 0.161613
H17   H     H_    0.113952 0.325848 0.601090 0.195047
N1    N     N_R   0.499150 0.499140 0.142800 -0.091734
N2    N     N_R   0.499150 0.499180 0.857150 -0.108022
O1    O     O_R   0.500020 0.316790 0.614690 -0.611484
O2    O     O_R   0.500000 0.316760 0.385350 -0.623349
O3    O     O_R   0.314800 0.500000 0.614670 -0.561736
O4    O     O_R   0.314790 0.499960 0.385330 -0.613093
O5    O     O_R   0.500000 0.683240 0.614650 -0.590694
O6    O     O_R   0.499980 0.683210 0.385310 -0.613257
O7    O     O_R   0.685210 0.500040 0.614670 -0.605771
O8    O     O_R   0.685200 0.500000 0.385330 -0.572420
Zn1   Zn    Zn3+2 0.500010 0.500020 0.653130 1.041889
Zn2   Zn    Zn3+2 0.499990 0.499980 0.346870 1.022968
C27   C     C_2   0.406758 0.715164 0.870401 0.981508
O9    O     O_2   0.457156 0.818159 0.886224 -0.557059
O10   O     O_R   0.292895 0.704996 0.802966 -0.801614
H18   H     H_    0.258316 0.790528 0.778644 0.331688
C28   C     C_2   0.383420 0.232994 0.862924 1.007113
O11   O     O_2   0.352568 0.122527 0.847307 -0.595583
O12   O     O_R   0.297386 0.329251 0.837345 -0.754401
H19   H     H_    0.212588 0.295258 0.808433 0.339867
C29   C     C_2   0.394889 0.229840 0.143721 0.971047
O13   O     O_2   0.376804 0.122887 0.184337 -0.597027
O14   O     O_R   0.299393 0.320277 0.155759 -0.778331
H20   H     H_    0.221204 0.286329 0.201484 0.327177
C30   C     C_2   0.628594 0.185045 0.123479 0.917011
O15   O     O_2   0.715704 0.236405 0.182690 -0.651453
O16   O     O_R   0.630111 0.054330 0.100701 -0.715171
H21   H     H_    0.707552 0.012665 0.138884 0.360996
C31   C     C_2   0.879706 0.731605 0.617100 0.944584
O17   O     O_2   0.934236 0.813586 0.554003 -0.591547
O18   O     O_R   0.773895 0.762929 0.694996 -0.774614
H22   H     H_    0.751673 0.855887 0.690746 0.363294
Cl1   Cl    Cl    0.862305 0.696276 0.296474 -0.580826
C32   C     C_2   0.880587 0.306092 0.644591 0.955522
O19   O     O_2   0.802036 0.222138 0.635238 -0.646768
O20   O     O_R   0.928487 0.339659 0.770744 -0.811605
H23   H     H_    0.889116 0.289456 0.846038 0.356303

loop_
_geom_bond_atom_site_label_1
_geom_bond_atom_site_label_2
_ccdc_geom_bond_type
C12   O3    A    
C25   H17   S    
C12   O4    A    
C7    C8    A    
C32   O19   D    
O3    Zn1   S    
O5    Zn1   S    
C14   N1    A    
C24   C26   S    
C15   N1    A    
C13   H9    S    
C20   O6    A    
C5    C6    A    
C1    O1    A    
C15   C16   A    
C22   H12   S    
C27   O9    D    
C28   O12   S    
C18   C19   S    
C24   H3    S    
C15   H11   S    
C20   O5    A    
C30   O15   D    
C8    C9    A    
O16   H21   S    
C9    C10   A    
C5    C13   S    
O8    Zn2   S    
O14   H20   S    
C24   H15   S    
C14   C17   A    
C3    C24   S    
C23   C31   S    
C4    H2    S    
O7    Zn1   S    
C4    C25   S    
C32   O20   S    
C7    H5    S    
O18   H22   S    
C1    C6    S    
C8    H6    S    
C11   H7    S    
C13   H10   S    
C31   O18   S    
C1    O2    A    
C25   C26   S    
O4    Zn2   S    
C12   C26   S    
C28   O11   D    
C29   O14   S    
C25   H16   S    
C3    H4    S    
C2    C4    S    
C18   H13   S    
C16   C27   S    
O12   H19   S    
C9    C20   S    
C19   C29   S    
O1    Zn1   S    
C2    C21   S    
C17   C18   S    
C19   C30   S    
C3    Cl1   S    
C18   C28   S    
N2    Zn1   S    
C22   H1    S    
O2    Zn2   S    
C14   C19   S    
C11   H8    S    
C17   N2    A    
C31   O17   D    
C16   N2    A    
C6    C7    A    
C29   O13   D    
C2    C3    S    
O10   H18   S    
C5    C10   A    
C21   O8    A    
C11   C13   S    
N1    Zn2   S    
C27   O10   S    
O6    Zn2   S    
C10   C11   S    
O20   H23   S    
C4    C32   S    
C30   O16   S    
C22   C26   S    
C2    C23   S    
C22   C23   S    
C21   O7    A    
C23   H14   S    
