data_mof_unit_63600.cif
_audit_creation_date              2012-12-10T18:28:42-0500
_audit_creation_method            fapswitch 2.2
_symmetry_space_group_name_H-M    P1
_symmetry_Int_Tables_number       1
_space_group_crystal_system       triclinic
_cell_length_a                    21.737699
_cell_length_b                    21.731733
_cell_length_c                    21.167316
_cell_angle_alpha                 120.602353
_cell_angle_beta                  120.430006
_cell_angle_gamma                 90.343387
_cell_volume                      6936.3439987

loop_
_atom_site_label
_atom_site_type_symbol
_atom_type_description
_atom_site_fract_x
_atom_site_fract_y
_atom_site_fract_z
_atom_type_partial_charge
C1    C     C_R   0.084815 0.584602 0.669240 0.794696
C2    C     C_R   0.994646 0.224223 0.205118 -0.168635
C3    C     C_R   0.248018 0.439643 0.430505 -0.191645
C4    C     C_R   0.313809 0.505287 0.501201 -0.085759
C5    C     C_R   0.315054 0.569621 0.571482 0.008273
C6    C     C_R   0.248821 0.566101 0.567260 -0.243278
C7    C     C_R   0.183808 0.499738 0.497272 -0.063854
C8    C     C_R   0.183346 0.435609 0.428724 0.056639
C9    C     C_R   0.409544 0.672493 0.739197 -0.148692
C10   C     C_R   0.472535 0.740511 0.812597 -0.137369
C11   C     C_R   0.509580 0.778054 0.797134 -0.123176
C12   C     C_R   0.117666 0.499226 0.498054 0.795998
C13   C     C_R   0.483679 0.747645 0.708248 -0.124724
C14   C     C_R   0.420712 0.679738 0.634824 -0.099794
C15   C     C_R   0.383154 0.641159 0.649385 0.116538
C16   C     C_1   0.136369 0.635884 0.771767 -0.205815
C17   C     C_1   0.178961 0.678377 0.856722 -0.019213
C18   C     C_1   0.229359 0.728734 0.957488 -0.005400
C19   C     C_1   0.271829 0.771205 0.042451 -0.003108
C20   C     C_1   0.322171 0.821598 0.143231 -0.005137
C21   C     C_1   0.364549 0.864090 0.228197 -0.194195
C22   C     C_R   0.910297 0.395177 0.671848 -0.137640
C23   C     C_R   0.914886 0.415442 0.330752 0.803373
C24   C     C_R   0.853839 0.407195 0.611717 -0.143337
C25   C     C_R   0.870193 0.475408 0.621485 0.123063
C26   C     C_R   0.943393 0.531808 0.692936 -0.121360
C27   C     C_R   0.999551 0.519695 0.753235 -0.117758
C28   C     C_R   0.983110 0.451370 0.742526 -0.111372
C29   C     C_R   0.744879 0.490239 0.557051 -0.252889
C30   C     C_R   0.686248 0.502814 0.499527 -0.088727
C31   C     C_R   0.691594 0.513888 0.442168 -0.005844
C32   C     C_R   0.756863 0.513175 0.444804 -0.235577
C33   C     C_R   0.815714 0.500827 0.502516 -0.073932
C34   C     C_R   0.881981 0.500526 0.501498 0.784387
C35   C     C_R   0.809682 0.488449 0.558785 0.003766
C36   C     C_R   0.595510 0.480269 0.287396 -0.144674
C37   C     C_R   0.542920 0.497362 0.230700 -0.175399
C38   C     C_R   0.527098 0.563953 0.267890 -0.093190
C39   C     C_R   0.563280 0.613171 0.361692 -0.084473
C40   C     C_R   0.615583 0.596074 0.418658 -0.142361
C41   C     C_R   0.632167 0.529509 0.381804 0.121567
C42   C     C_1   0.862554 0.364426 0.228220 -0.187897
C43   C     C_1   0.819531 0.322147 0.143252 -0.026284
C44   C     C_1   0.769219 0.271813 0.042465 -0.016380
C45   C     C_R   0.057719 0.228046 0.276768 -0.243915
C46   C     C_1   0.727050 0.229309 0.957496 -0.017378
C47   C     C_1   0.677164 0.178847 0.856725 -0.032181
C48   C     C_1   0.635156 0.136274 0.771768 -0.196761
C49   C     C_R   0.495947 0.619692 0.499775 0.816084
C50   C     C_R   0.380217 0.503000 0.500441 0.809877
C51   C     C_R   0.501725 0.380049 0.500097 0.824822
C52   C     C_R   0.619787 0.502461 0.499751 0.826914
C53   C     C_R   0.500613 0.119141 0.500952 0.799424
C54   C     C_R   0.415536 0.915379 0.330753 0.797636
C55   C     C_R   0.500544 0.881930 0.501437 0.792004
C56   C     C_R   0.120275 0.297242 0.350620 0.503370
C57   C     C_R   0.584418 0.084823 0.669240 0.806093
C58   C     C_R   0.248161 0.512039 0.261865 -0.242106
C59   C     C_R   0.321078 0.563752 0.308210 0.576596
C60   C     C_R   0.350364 0.635565 0.391485 -0.004616
C61   C     C_R   0.306622 0.655098 0.425090 -0.276163
C62   C     C_R   0.236154 0.602702 0.379819 -0.121897
C63   C     C_R   0.207160 0.531198 0.298612 -0.169456
C64   C     C_R   0.430192 0.757982 0.448234 -0.219330
C65   C     C_R   0.500556 0.815884 0.503008 -0.087255
C66   C     C_R   0.568973 0.809387 0.557454 -0.003637
C67   C     C_R   0.116741 0.363529 0.354124 0.024768
C68   C     C_R   0.565272 0.744425 0.555360 -0.279549
C69   C     C_R   0.495255 0.685910 0.499087 -0.074178
C70   C     C_R   0.426639 0.692237 0.444725 0.061023
C71   C     C_R   0.702315 0.853365 0.607980 -0.142573
C72   C     C_R   0.774415 0.909863 0.667271 -0.137152
C73   C     C_R   0.789681 0.982872 0.738550 -0.115410
C74   C     C_R   0.732904 0.999468 0.750731 -0.120524
C75   C     C_R   0.660574 0.943253 0.691332 -0.122965
C76   C     C_R   0.644713 0.869876 0.619228 0.129585
C77   C     C_R   0.470973 0.190307 0.215432 -0.141515
C78   C     C_R   0.053065 0.359151 0.281987 -0.249823
C79   C     C_R   0.461808 0.191995 0.277038 -0.146390
C80   C     C_R   0.516673 0.247027 0.371157 0.121063
C81   C     C_R   0.581400 0.299438 0.402752 -0.120820
C82   C     C_R   0.590523 0.297262 0.340902 -0.119826
C83   C     C_R   0.535206 0.242968 0.247336 -0.115662
C84   C     C_R   0.505638 0.185227 0.437751 -0.238646
C85   C     C_R   0.501615 0.186344 0.502153 -0.069247
C86   C     C_R   0.500339 0.251853 0.567670 -0.002584
C87   C     C_R   0.501760 0.315246 0.566553 -0.241612
C88   C     C_R   0.503837 0.313607 0.500701 -0.091208
C89   C     C_R   0.992840 0.289401 0.207200 -0.125475
C90   C     C_R   0.507247 0.248689 0.436539 0.002396
C91   C     C_R   0.434103 0.231419 0.627080 -0.102433
C92   C     C_R   0.436358 0.235818 0.696513 -0.131520
C93   C     C_R   0.506421 0.266102 0.780066 -0.101569
C94   C     C_R   0.574326 0.292102 0.794329 -0.130043
C95   C     C_R   0.572308 0.287513 0.724936 -0.167496
C96   C     C_R   0.502145 0.257055 0.640936 0.103992
Cu1   Cu    Cu3+1 0.000010 0.438210 0.500020 0.982797
Cu2   Cu    Cu3+1 0.999990 0.561790 0.499980 0.941775
Cu3   Cu    Cu3+1 0.457530 0.457560 0.415050 0.945294
Cu4   Cu    Cu3+1 0.542470 0.542480 0.584950 0.951451
Cu5   Cu    Cu3+1 0.561810 0.000000 0.500000 0.959206
Cu6   Cu    Cu3+1 0.438190 0.000000 0.500000 0.946456
H1    H     H_    0.947322 0.170569 0.147634 0.146182
H2    H     H_    0.558362 0.830645 0.854007 0.126074
H3    H     H_    0.512426 0.776559 0.696146 0.134714
H4    H     H_    0.401938 0.656661 0.566778 0.105164
H5    H     H_    0.026696 0.442111 0.789227 0.124706
H6    H     H_    0.897529 0.342398 0.663819 0.128623
H7    H     H_    0.797517 0.363325 0.557361 0.122407
H8    H     H_    0.956676 0.585200 0.702286 0.104560
H9    H     H_    0.055747 0.563364 0.808553 0.135217
H10   H     H_    0.739830 0.481300 0.600457 0.147617
H11   H     H_    0.761866 0.522345 0.401523 0.152609
H12   H     H_    0.058225 0.177168 0.274477 0.131872
H13   H     H_    0.607969 0.428930 0.257913 0.121314
H14   H     H_    0.514760 0.459215 0.157988 0.129778
H15   H     H_    0.486631 0.577311 0.223984 0.139119
H16   H     H_    0.551230 0.664902 0.390107 0.148425
H17   H     H_    0.644257 0.635289 0.491436 0.101914
H18   H     H_    0.152118 0.490846 0.263201 0.143990
H19   H     H_    0.221943 0.457031 0.196959 0.122927
H20   H     H_    0.328119 0.710713 0.487870 0.157130
H21   H     H_    0.203836 0.617696 0.407603 0.150122
H22   H     H_    0.377731 0.763741 0.407379 0.156345
H23   H     H_    0.617470 0.739191 0.597606 0.151129
H24   H     H_    0.691218 0.796909 0.553131 0.120967
H25   H     H_    0.818518 0.896982 0.658107 0.128615
H26   H     H_    0.845592 0.026492 0.784566 0.122189
H27   H     H_    0.745115 0.055832 0.806458 0.132698
H28   H     H_    0.617192 0.956647 0.701833 0.100719
H29   H     H_    0.542265 0.241516 0.199572 0.120396
H30   H     H_    0.428309 0.148102 0.142935 0.126363
H31   H     H_    0.411781 0.150921 0.251504 0.121826
H32   H     H_    0.050975 0.409304 0.282755 0.137240
H33   H     H_    0.624805 0.341613 0.475126 0.097832
H34   H     H_    0.640522 0.337504 0.365411 0.136994
H35   H     H_    0.508251 0.134941 0.388865 0.145808
H36   H     H_    0.500257 0.365714 0.616520 0.159424
H37   H     H_    0.379635 0.207242 0.562353 0.122666
H38   H     H_    0.383821 0.215612 0.685490 0.122332
H39   H     H_    0.508106 0.269393 0.833718 0.123380
H40   H     H_    0.628530 0.315552 0.859037 0.137768
H41   H     H_    0.625242 0.307411 0.736445 0.131159
H42   H     H_    0.944843 0.285733 0.150507 0.149246
H43   H     H_    0.247539 0.390275 0.377299 0.142419
H44   H     H_    0.248038 0.615109 0.619489 0.142849
H45   H     H_    0.381663 0.644006 0.752433 0.129354
H46   H     H_    0.492638 0.764104 0.881502 0.131105
O1    O     O_R   0.061970 0.509790 0.623960 -0.556876
O2    O     O_R   0.535870 0.626050 0.571740 -0.597055
O3    O     O_R   0.373960 0.464160 0.428260 -0.601798
O4    O     O_R   0.445680 0.535880 0.571730 -0.576987
O5    O     O_R   0.464130 0.373990 0.428260 -0.579153
O6    O     O_R   0.535860 0.445700 0.571730 -0.589498
O7    O     O_R   0.554320 0.464170 0.428270 -0.573670
O8    O     O_R   0.626040 0.535880 0.571740 -0.590707
O9    O     O_R   0.552180 0.090160 0.499970 -0.581975
O10   O     O_R   0.447790 0.090160 0.499970 -0.579786
O11   O     O_R   0.490230 0.938030 0.376060 -0.565126
O12   O     O_R   0.061960 0.614160 0.623930 -0.566765
O13   O     O_R   0.385840 0.938030 0.376050 -0.566155
O14   O     O_R   0.552210 0.909840 0.500030 -0.567463
O15   O     O_R   0.447820 0.909840 0.500030 -0.586884
O16   O     O_R   0.614160 0.061970 0.623950 -0.562066
O17   O     O_R   0.509770 0.061970 0.623940 -0.559140
O18   O     O_R   0.090190 0.447820 0.500020 -0.558652
O19   O     O_R   0.090170 0.552190 0.499990 -0.588496
O20   O     O_R   0.938040 0.385840 0.376070 -0.556853
O21   O     O_R   0.938030 0.490210 0.376040 -0.571328
O22   O     O_R   0.909830 0.447810 0.500010 -0.571352
O23   O     O_R   0.909810 0.552180 0.499980 -0.583310
O24   O     O_R   0.464140 0.554340 0.428270 -0.558100
O25   O     O_3   0.363543 0.549682 0.273427 -0.583718
C97   C     C_3   0.348824 0.470996 0.215100 -0.297389
H47   H     H_    0.395699 0.464732 0.207585 0.194029
H48   H     H_    0.295239 0.444514 0.146110 0.142367
H49   H     H_    0.347340 0.440097 0.243422 0.159810
O26   O     O_3   0.183819 0.302411 0.422187 -0.577330
C98   C     C_3   0.219407 0.253345 0.390195 0.042184
H50   H     H_    0.217033 0.250305 0.334671 0.124287
H51   H     H_    0.191910 0.194863 0.365070 0.148151
C99   C     C_3   0.303116 0.283223 0.468378 -0.773326
H52   H     H_    0.308319 0.287921 0.525757 0.250072
H53   H     H_    0.330968 0.243425 0.445027 0.203234
H54   H     H_    0.332642 0.340512 0.492466 0.242413

loop_
_geom_bond_atom_site_label_1
_geom_bond_atom_site_label_2
_ccdc_geom_bond_type
C66   C68   A    
C87   C88   A    
C51   O6    A    
C95   H41   S    
Cu5   Cu6   S    
C80   C81   A    
C73   C74   A    
C29   H10   S    
C19   C20   S    
C43   C44   S    
Cu6   O10   S    
C12   O19   A    
O26   C98   S    
C7    C8    A    
C37   H14   S    
C56   O26   S    
O25   C97   S    
Cu4   O4    S    
C52   O7    A    
C26   C27   A    
C93   C94   A    
C23   C42   S    
C49   O2    A    
C36   C37   A    
Cu5   O16   S    
C12   O18   A    
C21   C54   S    
C6    H44   S    
C57   O17   A    
C77   C83   A    
C28   H5    S    
Cu1   O18   S    
Cu1   Cu2   S    
C17   C18   S    
C18   C19   T    
C97   H47   S    
C54   O11   A    
C99   H52   S    
Cu2   O21   S    
C50   O3    A    
C51   O5    A    
C95   C96   A    
C45   C56   A    
Cu6   O15   S    
Cu3   O7    S    
C71   H24   S    
C1    O1    A    
C11   H2    S    
C64   C70   A    
C32   H11   S    
C29   C30   A    
C9    C10   A    
C26   H8    S    
Cu2   O19   S    
C34   O22   A    
C75   H28   S    
C98   C99   S    
Cu4   O8    S    
C91   C96   A    
C27   H9    S    
C59   C60   A    
C2    C45   A    
C49   C69   S    
C13   C14   A    
C82   H34   S    
C38   H15   S    
C36   C41   A    
C94   C95   A    
C67   C78   A    
C84   C90   A    
C45   H12   S    
C62   H21   S    
C55   C65   S    
C44   C46   T    
C81   H33   S    
C99   H53   S    
C77   C79   A    
C78   C89   A    
C38   C39   A    
C79   H31   S    
C74   C75   A    
C72   H25   S    
C94   H40   S    
C47   C48   T    
C48   C57   S    
C84   C85   A    
C13   H3    S    
C3    C8    A    
C39   C40   A    
C86   C87   A    
C16   C17   T    
Cu3   O24   S    
Cu4   O2    S    
C25   C26   A    
C64   H22   S    
Cu3   O3    S    
C9    H45   S    
C39   H16   S    
C81   C82   A    
Cu1   O22   S    
C23   O20   A    
C4    C50   S    
C61   H20   S    
C77   H30   S    
C2    C89   A    
C75   C76   A    
C83   H29   S    
C37   C38   A    
C31   C32   A    
C23   O21   A    
C60   C70   S    
C30   C31   A    
C66   C76   S    
C62   C63   A    
C33   C34   S    
C53   O10   A    
C1    C16   S    
C24   C25   A    
C78   H32   S    
C97   H49   S    
C85   C86   A    
C86   C96   S    
C25   C35   S    
C91   H37   S    
Cu2   O23   S    
C56   C67   A    
C40   C41   A    
Cu2   O12   S    
C84   H35   S    
C3    H43   S    
Cu6   O17   S    
C22   C24   A    
C7    C12   S    
C74   H27   S    
C42   C43   T    
C87   H36   S    
C3    C4    A    
C73   H26   S    
C71   C76   A    
C91   C92   A    
C93   H39   S    
C79   C80   A    
Cu4   O6    S    
C58   C63   A    
C30   C52   S    
C46   C47   S    
Cu5   O14   S    
C58   H19   S    
C31   C41   S    
C9    C15   A    
C68   C69   A    
C1    O12   A    
C24   H7    S    
C55   O14   A    
C88   C90   A    
C72   C73   A    
C59   O25   S    
C51   C88   S    
C49   O24   A    
C53   C85   S    
C6    C7    A    
C52   O8    A    
C89   H42   S    
C29   C35   A    
C53   O9    A    
Cu3   Cu4   S    
C64   C65   A    
C61   C62   A    
C58   C59   A    
C55   O15   A    
C71   C72   A    
C32   C33   A    
C63   H18   S    
C11   C13   A    
C5    C6    A    
C57   O16   A    
C2    H1    S    
Cu6   O13   S    
C22   H6    S    
Cu1   O20   S    
Cu3   O5    S    
C92   C93   A    
C33   C35   A    
C65   C66   A    
C54   O13   A    
C80   C90   S    
C69   C70   A    
C97   H48   S    
C5    C15   S    
C10   C11   A    
Cu5   O9    S    
C98   H50   S    
C50   O4    A    
C4    C5    A    
C40   H17   S    
C20   C21   T    
Cu5   O11   S    
C8    C67   S    
C82   C83   A    
C14   H4    S    
C27   C28   A    
Cu1   O1    S    
C14   C15   A    
C60   C61   A    
C22   C28   A    
C36   H13   S    
C68   H23   S    
C99   H54   S    
C34   O23   A    
C10   H46   S    
C98   H51   S    
C92   H38   S    
