data_mof_unit_16234.cif
_audit_creation_date              2013-03-05T16:45:42-0500
_audit_creation_method            fapswitch 2.2
_symmetry_space_group_name_H-M    P1
_symmetry_Int_Tables_number       1
_space_group_crystal_system       triclinic
_cell_length_a                    10.66462
_cell_length_b                    15.830268
_cell_length_c                    17.144478
_cell_angle_alpha                 95.361433
_cell_angle_beta                  91.294661
_cell_angle_gamma                 91.97741
_cell_volume                      2879.04736046

loop_
_atom_site_label
_atom_site_type_symbol
_atom_site_description
_atom_site_fract_x
_atom_site_fract_y
_atom_site_fract_z
_atom_type_partial_charge
O1    O     O_R   0.494270 0.420530 0.382500 -0.565205
O2    O     O_R   0.505730 0.579470 0.617500 -0.566277
O3    O     O_R   0.504620 0.563720 0.388950 -0.525502
O4    O     O_R   0.495380 0.436280 0.611050 -0.514320
C1    C     C_R   0.500109 0.490296 0.348745 0.961616
C2    C     C_R   0.500599 0.509759 0.651150 0.958083
O5    O     O_R   0.311680 0.428420 0.496760 -0.581966
O6    O     O_R   0.688320 0.571580 0.503240 -0.589180
O7    O     O_R   0.322030 0.571610 0.503210 -0.596131
O8    O     O_R   0.677970 0.428390 0.496790 -0.573991
C3    C     C_R   0.259360 0.500458 0.500085 0.920171
C4    C     C_R   0.740493 0.499495 0.499477 0.932763
Cu1   Cu    Cu3+1 0.493870 0.415220 0.496180 1.084878
Cu2   Cu    Cu3+1 0.506130 0.584780 0.503820 1.069853
C5    C     C_3   0.038669 0.459927 0.431227 -0.218457
C6    C     C_3   0.960820 0.539962 0.567179 -0.193458
C7    C     C_3   0.959236 0.539341 0.439908 0.364019
C8    C     C_3   0.039940 0.460483 0.558473 0.385400
H1    H     H_    0.072012 0.428550 0.375258 0.223109
H2    H     H_    0.927524 0.571338 0.623168 0.216150
C9    C     C_3   0.876629 0.498804 0.498764 -0.152117
C10   C     C_3   0.122937 0.501053 0.499808 -0.167320
C11   C     C_3   0.954714 0.418383 0.491424 -0.190433
C12   C     C_3   0.044646 0.581561 0.506929 -0.229349
H3    H     H_    0.916831 0.351818 0.486366 0.217530
H4    H     H_    0.082458 0.648138 0.511968 0.213571
C13   C     C_R   0.508185 0.486450 0.262936 -0.299536
C14   C     C_R   0.495432 0.513923 0.736872 -0.304053
C15   C     C_R   0.438947 0.541752 0.219890 0.336415
C16   C     C_R   0.572110 0.462529 0.779487 0.347363
C17   C     C_R   0.452388 0.539326 0.139415 -0.223864
C18   C     C_R   0.560911 0.464693 0.860170 -0.205441
C19   C     C_R   0.532285 0.482226 0.099426 0.182645
C20   C     C_R   0.476080 0.517876 0.900482 0.167832
C21   C     C_R   0.603728 0.427999 0.141791 0.312706
C22   C     C_R   0.398818 0.569093 0.858538 0.233416
C23   C     C_R   0.589053 0.428457 0.223473 0.169906
C24   C     C_R   0.411162 0.568975 0.776773 0.188707
N1    N     N_2   0.541691 0.477285 0.016566 -0.120872
N2    N     N_2   0.467418 0.522330 0.983302 -0.143782
H5    H     H_    0.619541 0.424299 0.891688 0.245593
H6    H     H_    0.399295 0.582663 0.107723 0.260282
N3    N     N_R   0.515330 0.712130 0.509560 -0.230162
N4    N     N_R   0.484670 0.287870 0.490440 -0.226559
C25   C     C_R   0.417852 0.753120 0.479455 0.044349
C26   C     C_R   0.582839 0.247043 0.519952 0.028045
C27   C     C_R   0.425897 0.840939 0.471473 0.172119
C28   C     C_R   0.575688 0.159056 0.527279 0.165373
C29   C     C_R   0.535759 0.889109 0.499082 0.169263
C30   C     C_R   0.465693 0.110725 0.500166 0.181367
C31   C     C_R   0.636843 0.844215 0.528147 0.264365
C32   C     C_R   0.363927 0.155489 0.471801 0.259425
C33   C     C_R   0.622784 0.756341 0.534374 0.010880
C34   C     C_R   0.377259 0.243460 0.465890 0.014214
N5    N     N_2   0.550161 0.979638 0.495327 -0.088565
N6    N     N_2   0.451610 0.020166 0.503869 -0.095952
H7    H     H_    0.665036 0.283830 0.542777 0.199234
H8    H     H_    0.335623 0.716595 0.456641 0.175722
H9    H     H_    0.699894 0.722785 0.557267 0.195551
H10   H     H_    0.299676 0.276900 0.443435 0.194897
N7    N     N_R   0.914276 0.582904 0.373770 0.166969
O9    O     O_R   0.993973 0.618509 0.329663 -0.243509
O10   O     O_R   0.794960 0.585620 0.357442 -0.311984
N8    N     N_R   0.082124 0.415990 0.624569 0.163704
O11   O     O_R   0.000053 0.379909 0.666831 -0.224770
O12   O     O_R   0.200934 0.410697 0.641215 -0.315233
S1    S     S_3+6 0.784440 0.894336 0.554450 0.122466
O13   O     O_2   0.813155 0.963437 0.502394 -0.173281
O14   O     O_2   0.782332 0.931539 0.638263 -0.170831
O15   O     O_3   0.897153 0.822503 0.545460 -0.516594
H11   H     H_    0.976239 0.854930 0.561187 0.410458
S2    S     S_3+6 0.216497 0.104945 0.445805 0.120950
O16   O     O_2   0.218379 0.067718 0.361987 -0.165541
O17   O     O_2   0.188630 0.035748 0.497921 -0.180739
O18   O     O_3   0.103285 0.176398 0.455017 -0.515395
H12   H     H_    0.024193 0.143560 0.440242 0.412921
S3    S     S_3+6 0.687018 0.396564 0.735534 0.070068
O19   O     O_2   0.746909 0.437380 0.669355 -0.314117
O20   O     O_2   0.787006 0.380911 0.795234 -0.216923
O21   O     O_3   0.616794 0.303390 0.701308 -0.491489
H13   H     H_    0.685915 0.263368 0.694430 0.405109
S4    S     S_3+6 0.329847 0.612756 0.263055 0.097517
O22   O     O_2   0.400251 0.691235 0.299009 -0.244043
O23   O     O_2   0.237337 0.637407 0.202474 -0.148966
O24   O     O_3   0.251271 0.566344 0.332305 -0.555876
H14   H     H_    0.224061 0.613992 0.368711 0.377329
S5    S     S_3+6 0.712211 0.360458 0.091828 0.130579
O25   O     O_2   0.816974 0.339281 0.145967 -0.168890
O26   O     O_2   0.643073 0.279912 0.059679 -0.206057
O27   O     O_3   0.775303 0.407983 0.017395 -0.490922
H15   H     H_    0.820045 0.362820 0.986646 0.399878
S6    S     S_3+6 0.285543 0.632226 0.909058 0.149858
O28   O     O_2   0.348241 0.715233 0.940627 -0.147102
O29   O     O_2   0.177606 0.649584 0.855663 -0.171350
O30   O     O_3   0.228153 0.583557 0.984471 -0.459073
H16   H     H_    0.188132 0.529763 0.960186 0.366752
N9    N     N_R   0.656503 0.370339 0.266489 0.181962
O31   O     O_R   0.628444 0.289381 0.255957 -0.249393
O32   O     O_R   0.744409 0.398251 0.317166 -0.320142
N10   N     N_R   0.338662 0.624908 0.734198 0.179704
O33   O     O_R   0.360448 0.706565 0.745284 -0.248716
O34   O     O_R   0.252738 0.594427 0.683202 -0.323656
N11   N     N_R   0.673528 0.122892 0.570613 0.164704
O35   O     O_R   0.644523 0.080124 0.629270 -0.240141
O36   O     O_R   0.789742 0.148261 0.563501 -0.281929
N12   N     N_R   0.329370 0.876963 0.426901 0.188180
O37   O     O_R   0.360220 0.920066 0.368803 -0.211542
O38   O     O_R   0.212912 0.851335 0.432437 -0.265227

loop_
_geom_bond_atom_site_label_1
_geom_bond_atom_site_label_2
_geom_bond_distance
_ccdc_geom_bond_type
S3    O19   1.501344 D    
S5    O25   1.503098 D    
C6    C9    1.541320 S    
C17   H6    1.081222 S    
C13   C15   1.413160 A    
O30   H16   0.990622 S    
O7    Cu2   1.966916 S    
C23   N9    1.433974 S    
N9    O31   1.300938 A    
C33   H9    1.080284 S    
C27   C29   1.422695 A    
C34   H10   1.080250 S    
O24   H14   0.988958 S    
C5    H1    1.110153 S    
C19   N1    1.421440 S    
O1    C1    1.294163 A    
C21   C23   1.411997 A    
C12   H4    1.110374 S    
N12   O37   1.300865 A    
C25   C27   1.409463 A    
O4    Cu1   1.966059 S    
N7    O10   1.299725 A    
N10   O33   1.300932 A    
C7    N7    1.461359 S    
C1    C13   1.471300 S    
C16   S3    1.772848 S    
C21   S5    1.781696 S    
N3    C33   1.360514 A    
C5    C10   1.543628 S    
C2    C14   1.467335 S    
C32   C34   1.408248 A    
C29   C31   1.417847 A    
C30   C32   1.417793 A    
C18   H5    1.081079 S    
C17   C19   1.405998 A    
O15   H11   0.990736 S    
C20   C22   1.407721 A    
C6    H2    1.110265 S    
C5    C11   1.557955 S    
C22   S6    1.782475 S    
C28   C30   1.422832 A    
C6    C12   1.558217 S    
Cu1   Cu2   2.673647 S    
O2    C2    1.292233 A    
S2    O18   1.682726 S    
N10   O34   1.300526 A    
N9    O32   1.300708 A    
N4    C26   1.361487 A    
S3    O20   1.504112 D    
C26   C28   1.409777 A    
C25   H8    1.078693 S    
C7    C12   1.537473 S    
S1    O13   1.502837 D    
S2    O17   1.503007 D    
N1    N2    1.247265 D    
S2    O16   1.502193 D    
C29   N5    1.443623 S    
C28   N11   1.433215 S    
C4    C9    1.452577 S    
S6    O30   1.682023 S    
C30   N6    1.443714 S    
C8    C11   1.536065 S    
S1    O14   1.502116 D    
N8    O12   1.299758 A    
O5    C3    1.283839 A    
O18   H12   0.990623 S    
C32   S2    1.767997 S    
O7    C3    1.285845 A    
C14   C24   1.416178 A    
O6    C4    1.283591 A    
C27   N12   1.433630 S    
N5    N6    1.254433 D    
S6    O29   1.503254 D    
N11   O36   1.301481 A    
C31   S1    1.767892 S    
N3    C25   1.361269 A    
O3    Cu2   1.966057 S    
O8    C4    1.284855 A    
C24   N10   1.434279 S    
S4    O23   1.503467 D    
C9    C11   1.542074 S    
C26   H7    1.080442 S    
C20   N2    1.420322 S    
O4    C2    1.293492 A    
O1    Cu1   1.958722 S    
S3    O21   1.680151 S    
C5    C7    1.537676 S    
O6    Cu2   1.961497 S    
C8    C10   1.526181 S    
O21   H13   0.990403 S    
O3    C1    1.293582 A    
O8    Cu1   1.966917 S    
S4    O24   1.678399 S    
C3    C10   1.455163 S    
S1    O15   1.682768 S    
N8    O11   1.299538 A    
C22   C24   1.410777 A    
C15   S4    1.771596 S    
C15   C17   1.387442 A    
C16   C18   1.388442 A    
C8    N8    1.459651 S    
O27   H15   0.990561 S    
N12   O38   1.301491 A    
C13   C23   1.417479 A    
C14   C16   1.412243 A    
S6    O28   1.502255 D    
C19   C21   1.407700 A    
C10   C12   1.544418 S    
C11   H3    1.110443 S    
N7    O9    1.299049 A    
O2    Cu2   1.958722 S    
C7    C9    1.525863 S    
N4    C34   1.360479 A    
O5    Cu1   1.961496 S    
C6    C8    1.536586 S    
S4    O22   1.502916 D    
S5    O27   1.682404 S    
N11   O35   1.300840 A    
S5    O26   1.502877 D    
C31   C33   1.408205 A    
Cu1   N4    2.008070 S    
C18   C20   1.406056 A    
Cu2   N3    2.008070 S    
