data_mof_unit_40267.cif
_audit_creation_date              2012-12-10T20:31:02-0500
_audit_creation_method            fapswitch 2.2
_symmetry_space_group_name_H-M    P1
_symmetry_Int_Tables_number       1
_space_group_crystal_system       triclinic
_cell_length_a                    14.877003
_cell_length_b                    10.6843
_cell_length_c                    9.93152
_cell_angle_alpha                 90.463518
_cell_angle_beta                  88.707513
_cell_angle_gamma                 89.951532
_cell_volume                      1578.16459229

loop_
_atom_site_label
_atom_site_type_symbol
_atom_type_description
_atom_site_fract_x
_atom_site_fract_y
_atom_site_fract_z
_atom_type_partial_charge
C1    C     C_R   0.504084 0.259980 0.499085 0.990368
C2    C     C_R   0.906307 0.608168 0.506093 0.063214
C3    C     C_R   0.954136 0.265295 0.484394 -0.125642
C4    C     C_R   0.047175 0.265385 0.487317 -0.098619
C5    C     C_R   0.094586 0.378480 0.495959 0.045912
C6    C     C_R   0.047113 0.493685 0.502176 -0.019855
C7    C     C_R   0.093424 0.609370 0.510927 0.038579
C8    C     C_R   0.045549 0.723223 0.517657 0.415069
C9    C     C_R   0.952319 0.721656 0.515216 -0.205620
C10   C     C_R   0.188377 0.379724 0.497812 0.380894
C11   C     C_R   0.232282 0.494963 0.504499 -0.128456
C12   C     C_R   0.327420 0.499402 0.501384 0.962556
C13   C     C_R   0.186525 0.607978 0.511805 -0.202716
C14   C     C_R   0.514067 0.064615 0.620304 0.052952
C15   C     C_R   0.519733 0.127983 0.498034 -0.220839
C16   C     C_R   0.543956 0.060602 0.379100 0.470811
C17   C     C_R   0.543186 0.931230 0.382256 -0.242057
C18   C     C_R   0.518399 0.870375 0.501469 -0.151585
C19   C     C_R   0.513007 0.937034 0.621799 0.056486
C20   C     C_3   0.444886 0.931457 0.734328 -0.452416
C21   C     C_3   0.446313 0.073528 0.733725 0.291337
C22   C     C_R   0.427464 0.542094 0.074077 -0.050619
C23   C     C_R   0.502906 0.739583 0.500430 0.883130
C24   C     C_R   0.573487 0.460426 0.066519 0.477483
C25   C     C_R   0.573250 0.461722 0.923995 -0.070482
C26   C     C_R   0.427643 0.543275 0.932104 0.033071
C27   C     C_3   0.332279 0.498092 0.929433 0.591234
C28   C     C_3   0.333155 0.493738 0.083305 0.148884
C29   C     C_R   0.672655 0.499550 0.498647 0.941230
C30   C     C_R   0.813529 0.607999 0.504229 -0.267884
C31   C     C_R   0.767900 0.495181 0.495697 -0.105920
C32   C     C_R   0.812293 0.379828 0.488269 0.348936
C33   C     C_R   0.906207 0.378304 0.490376 0.044838
C34   C     C_R   0.953251 0.493293 0.499471 0.034857
H1    H     H_    0.776319 0.695461 0.510180 0.159038
H2    H     H_    0.556284 0.879190 0.289729 0.205936
H3    H     H_    0.379721 0.891365 0.702198 0.212987
H4    H     H_    0.472765 0.888847 0.826260 0.247441
H5    H     H_    0.286835 0.561796 0.134105 0.140757
N1    N     N_R   0.499390 0.499140 0.142800 -0.112143
N2    N     N_R   0.499390 0.499180 0.857150 -0.117725
O1    O     O_R   0.500010 0.316790 0.614690 -0.582938
O2    O     O_R   0.500000 0.316760 0.385350 -0.516322
O3    O     O_R   0.367850 0.499990 0.614680 -0.557275
O4    O     O_R   0.367840 0.499950 0.385340 -0.599469
O5    O     O_R   0.500000 0.683240 0.614650 -0.617501
O6    O     O_R   0.499990 0.683210 0.385310 -0.637326
O7    O     O_R   0.632160 0.500050 0.614660 -0.636697
O8    O     O_R   0.632150 0.500010 0.385320 -0.560975
Zn1   Zn    Zn3+2 0.500010 0.500020 0.653130 1.048134
Zn2   Zn    Zn3+2 0.499990 0.499980 0.346870 1.089725
H6    H     H_    0.381706 0.116676 0.704396 0.188730
Cl1   Cl    Cl    0.494561 0.138776 0.881488 -0.418554
Cl2   Cl    Cl    0.670246 0.398301 0.137791 -0.463796
H7    H     H_    0.631472 0.428573 0.867029 0.192178
Cl3   Cl    Cl    0.258672 0.615628 0.868051 -0.563670
Cl4   Cl    Cl    0.317044 0.350462 0.845848 -0.424117
Cl5   Cl    Cl    0.749076 0.239457 0.478458 -0.578824
Cl6   Cl    Cl    0.326609 0.339349 0.153549 -0.387021
H8    H     H_    0.920552 0.175788 0.477492 0.217589
H9    H     H_    0.081205 0.175915 0.482321 0.240803
Cl7   Cl    Cl    0.252171 0.239162 0.491875 -0.543676
H10   H     H_    0.224714 0.694151 0.517218 0.203740
Cl8   Cl    Cl    0.098973 0.870259 0.529245 -0.557400
H11   H     H_    0.915702 0.809443 0.520451 0.191373
Cl9   Cl    Cl    0.569479 0.128518 0.221887 -0.392133

loop_
_geom_bond_atom_site_label_1
_geom_bond_atom_site_label_2
_ccdc_geom_bond_type
O6    Zn2   S    
C11   C12   S    
C24   C25   A    
C6    C7    A    
C1    C15   S    
C17   H2    S    
N1    Zn2   S    
C20   H4    S    
O5    Zn1   S    
C19   C20   S    
C13   H10   S    
C32   Cl5   S    
C30   C31   A    
C2    C30   A    
C22   N1    A    
C32   C33   A    
C2    C34   A    
O7    Zn1   S    
C17   C18   A    
C5    C10   A    
C12   O3    A    
C23   O5    A    
C22   C28   S    
C3    H8    S    
C21   Cl1   S    
C20   H3    S    
C11   C13   A    
O2    Zn2   S    
C26   C27   S    
C10   Cl7   S    
C6    C34   A    
C30   H1    S    
O1    Zn1   S    
C4    C5    A    
C14   C19   A    
C14   C21   S    
C24   N1    A    
C8    Cl8   S    
C33   C34   A    
C22   C26   A    
C5    C6    A    
C31   C32   A    
C9    H11   S    
C16   Cl9   S    
C10   C11   A    
O4    Zn2   S    
C29   O7    A    
C24   Cl2   S    
C18   C23   S    
C25   H7    S    
N2    Zn1   S    
C7    C13   A    
C1    O1    A    
C23   O6    A    
C20   C21   S    
C26   N2    A    
O3    Zn1   S    
C29   C31   S    
C18   C19   A    
C27   Cl4   S    
C28   Cl6   S    
C25   N2    A    
C27   C28   S    
C7    C8    A    
C3    C33   A    
C27   Cl3   S    
C12   O4    A    
C29   O8    A    
C28   H5    S    
C14   C15   A    
C2    C9    A    
C4    H9    S    
C1    O2    A    
C21   H6    S    
C3    C4    A    
C15   C16   A    
C16   C17   A    
C8    C9    A    
O8    Zn2   S    
