data_mof_unit_11232.cif
_audit_creation_date              2012-12-10T17:36:49-0500
_audit_creation_method            fapswitch 2.2
_symmetry_space_group_name_H-M    P1
_symmetry_Int_Tables_number       1
_space_group_crystal_system       triclinic
_cell_length_a                    10.61966
_cell_length_b                    12.336328
_cell_length_c                    13.088219
_cell_angle_alpha                 116.486168
_cell_angle_beta                  77.68038
_cell_angle_gamma                 100.975951
_cell_volume                      1490.42973072

loop_
_atom_site_label
_atom_site_type_symbol
_atom_type_description
_atom_site_fract_x
_atom_site_fract_y
_atom_site_fract_z
_atom_type_partial_charge
C1    C     C_R   0.514458 0.854956 0.285668 0.820648
C2    C     C_3   0.017537 0.013592 0.602148 0.628894
C3    C     C_3   0.932578 0.905707 0.522539 -0.275018
C4    C     C_3   0.876499 0.998205 0.500037 -0.144102
C5    C     C_R   0.310080 0.284262 0.022072 0.619319
C6    C     C_R   0.449972 0.227493 0.837357 -0.250062
C7    C     C_R   0.614239 0.811464 0.081914 0.419954
C8    C     C_R   0.639494 0.728643 0.966337 -0.224852
C9    C     C_R   0.586739 0.607928 0.930014 -0.214937
C10   C     C_R   0.502044 0.566305 0.007390 0.139949
C11   C     C_R   0.462453 0.653049 0.120651 0.003225
C12   C     C_R   0.740154 0.999269 0.499905 0.840514
C13   C     C_R   0.454167 0.441416 0.975551 0.031007
C14   C     C_R   0.356882 0.407341 0.051882 -0.072309
C15   C     C_R   0.306932 0.496713 0.156820 -0.133661
C16   C     C_R   0.358068 0.617563 0.190328 -0.150317
C17   C     C_R   0.501554 0.349187 0.870493 -0.303784
C18   C     C_R   0.357480 0.193795 0.916580 0.342205
C19   C     C_R   0.527043 0.773371 0.160781 -0.149700
C20   C     C_R   0.710249 0.349144 0.331470 -0.354285
C21   C     C_R   0.323110 0.758953 0.644658 -0.020012
C22   C     C_R   0.284328 0.662289 0.676099 0.583962
C23   C     C_R   0.479247 0.144893 0.714299 0.853485
C24   C     C_R   0.350797 0.559112 0.621591 -0.290677
C25   C     C_R   0.457646 0.551424 0.534530 -0.060371
C26   C     C_R   0.494118 0.653287 0.505599 0.255003
C27   C     C_R   0.529839 0.447254 0.475462 0.019615
C28   C     C_R   0.636896 0.448179 0.389963 0.077178
C29   C     C_R   0.670798 0.548019 0.363274 -0.237840
C30   C     C_R   0.601027 0.647969 0.419565 -0.147354
C31   C     C_R   0.501319 0.341472 0.497043 -0.095940
C32   C     C_R   0.677903 0.248799 0.357232 0.839359
C33   C     C_R   0.259840 0.000544 0.499833 0.870497
C34   C     C_3   0.981226 0.985890 0.395218 -0.140927
C35   C     C_3   0.039033 0.896554 0.419958 0.351628
C36   C     C_3   0.123432 0.001539 0.499452 -0.117720
C37   C     C_3   0.066116 0.093385 0.477233 -0.234868
C38   C     C_3   0.958776 0.106097 0.581863 -0.213545
Cu1   Cu    Cu3+1 0.529830 0.098270 0.475420 1.028310
Cu2   Cu    Cu3+1 0.470170 0.901730 0.524580 0.961051
H1    H     H_    0.578778 0.369455 0.811263 0.181215
H2    H     H_    0.611794 0.550324 0.839748 0.155185
H3    H     H_    0.704072 0.756760 0.904267 0.164828
H4    H     H_    0.312428 0.682850 0.270711 0.209870
H5    H     H_    0.752634 0.549108 0.297866 0.155097
H6    H     H_    0.792623 0.349635 0.266397 0.187229
H7    H     H_    0.421462 0.332773 0.560220 0.156946
H8    H     H_    0.270829 0.838507 0.687198 0.205677
H9    H     H_    0.963362 0.972456 0.309586 0.197804
H10   H     H_    0.316830 0.487035 0.649315 0.171162
H11   H     H_    0.635013 0.719290 0.392508 0.197184
H12   H     H_    0.122748 0.169952 0.459114 0.195681
H13   H     H_    0.922330 0.192110 0.649596 0.167794
H14   H     H_    0.876809 0.828542 0.540156 0.175008
H15   H     H_    0.228809 0.473389 0.214378 0.202888
N1    N     N_R   0.575030 0.246270 0.438190 -0.242778
N2    N     N_R   0.425760 0.754330 0.561190 -0.254214
O1    O     O_R   0.537510 0.972500 0.318130 -0.477300
O2    O     O_R   0.487140 0.806530 0.359650 -0.627889
O3    O     O_R   0.708330 0.082950 0.479220 -0.524304
O4    O     O_R   0.657960 0.916980 0.520740 -0.615265
O5    O     O_R   0.512860 0.193470 0.640350 -0.595295
O6    O     O_R   0.462490 0.027500 0.681870 -0.583732
O7    O     O_R   0.342040 0.083020 0.479260 -0.603917
O8    O     O_R   0.291670 0.917050 0.520780 -0.555754
O9    O     O_3   0.085228 0.788059 0.335487 -0.732441
H16   H     H_    0.008672 0.736954 0.299620 0.326625
O10   O     O_3   0.675913 0.928862 0.119518 -0.649299
H17   H     H_    0.733702 0.939799 0.053682 0.348088
F1    F     F_    0.750203 0.153892 0.301673 -0.611857
F2    F     F_    0.181765 0.668581 0.759768 -0.633785
F3    F     F_    0.039786 0.028729 0.708275 -0.628393
O11   O     O_3   0.307107 0.075043 0.892516 -0.629336
H18   H     H_    0.381052 0.025555 0.861499 0.332466
F4    F     F_    0.218205 0.251210 0.095850 -0.618708

loop_
_geom_bond_atom_site_label_1
_geom_bond_atom_site_label_2
_ccdc_geom_bond_type
C30   H11   S    
C34   C37   S    
O11   H18   S    
C35   C36   S    
C8    H3    S    
C33   O8    A    
C7    C8    A    
Cu1   O7    S    
C11   C19   A    
C9    H2    S    
C29   C30   A    
Cu2   O6    S    
C28   C29   A    
C1    O2    A    
C3    H14   S    
C6    C23   S    
C15   C16   A    
C33   C36   S    
C34   C35   S    
C6    C17   A    
C7    O10   S    
C23   O5    A    
O10   H17   S    
C31   N1    A    
C4    C12   S    
C9    C10   A    
C16   H4    S    
C21   H8    S    
C23   O6    A    
O9    H16   S    
Cu2   O2    S    
C31   H7    S    
C13   C14   A    
C2    F3    S    
C24   H10   S    
C6    C18   A    
C4    C34   S    
C1    C19   S    
C27   C31   A    
C24   C25   A    
Cu1   Cu2   S    
C37   H12   S    
C8    C9    A    
C32   F1    S    
C5    C18   A    
C20   C28   A    
C35   O9    S    
C25   C26   A    
Cu1   O1    S    
Cu2   O4    S    
C29   H5    S    
C15   H15   S    
C5    F4    S    
C21   N2    A    
C37   C38   S    
C11   C16   A    
C2    C38   S    
Cu1   N1    S    
C3    C35   S    
C5    C14   A    
C4    C38   S    
C26   C30   A    
C18   O11   S    
C7    C19   A    
Cu2   O8    S    
C22   C24   A    
C3    C4    S    
C22   F2    S    
C20   C32   A    
C2    C36   S    
Cu1   O5    S    
C36   C37   S    
C34   H9    S    
Cu2   N2    S    
C10   C13   A    
C25   C27   A    
C13   C17   A    
C2    C3    S    
C1    O1    A    
C12   O4    A    
C38   H13   S    
C33   O7    A    
Cu1   O3    S    
C26   N2    A    
C17   H1    S    
C10   C11   A    
C12   O3    A    
C27   C28   A    
C14   C15   A    
C21   C22   A    
C32   N1    A    
C20   H6    S    
