data_mof_unit_5729.cif
_audit_creation_date              2012-12-11T15:41:10-0500
_audit_creation_method            fapswitch 2.2
_symmetry_space_group_name_H-M    P1
_symmetry_Int_Tables_number       1
_space_group_crystal_system       triclinic
_cell_length_a                    19.10192
_cell_length_b                    11.194721
_cell_length_c                    18.670048
_cell_angle_alpha                 89.888926
_cell_angle_beta                  91.077612
_cell_angle_gamma                 89.447282
_cell_volume                      3991.51466267

loop_
_atom_site_label
_atom_site_type_symbol
_atom_type_description
_atom_site_fract_x
_atom_site_fract_y
_atom_site_fract_z
_atom_type_partial_charge
C1    C     C_R   0.727952 0.955181 0.853223 0.543348
C2    C     C_R   0.272647 0.955606 0.147451 0.544682
C3    C     C_R   0.227948 0.455192 0.853228 0.542159
C4    C     C_R   0.772647 0.455605 0.147452 0.548733
C5    C     C_R   0.690048 0.388796 0.051219 -0.000001
C6    C     C_R   0.308449 0.449403 0.960007 0.009185
C7    C     C_R   0.190043 0.888814 0.051218 -0.000744
C8    C     C_R   0.808503 0.949282 0.959973 0.009328
C9    C     C_R   0.679253 0.364171 0.979192 -0.002584
C10   C     C_R   0.318441 0.417345 0.031204 0.019232
C11   C     C_R   0.179248 0.864195 0.979189 -0.002661
C12   C     C_R   0.818493 0.917231 0.031172 0.018688
C13   C     C_R   0.803146 0.387541 0.958337 -0.160807
C14   C     C_R   0.233243 0.262384 0.017583 -0.156992
C15   C     C_R   0.303143 0.887549 0.958337 -0.160901
C16   C     C_R   0.733205 0.762410 0.017590 -0.157047
C17   C     C_R   0.813772 0.411316 0.029542 -0.153885
C18   C     C_R   0.223179 0.294187 0.945467 -0.147821
C19   C     C_R   0.313770 0.911312 0.029543 -0.153433
C20   C     C_R   0.723146 0.794201 0.945471 -0.147566
C21   C     C_3   0.623339 0.457797 0.056890 -0.280355
C22   C     C_3   0.321612 0.578083 0.975497 -0.258431
C23   C     C_3   0.123337 0.957824 0.056890 -0.280468
C24   C     C_3   0.821772 0.077937 0.975436 -0.258755
C25   C     C_3   0.612604 0.435753 0.977263 -0.258971
C26   C     C_3   0.333225 0.542889 0.053320 -0.256573
C27   C     C_3   0.112601 0.935784 0.977262 -0.258831
C28   C     C_3   0.833379 0.042753 0.053263 -0.256022
C29   C     C_R   0.735378 0.366648 0.931985 0.017576
C30   C     C_R   0.275696 0.331982 0.062918 0.014126
C31   C     C_R   0.235375 0.866667 0.931983 0.017306
C32   C     C_R   0.775702 0.831956 0.062911 0.012784
C33   C     C_R   0.521934 0.154597 0.414485 0.011516
C34   C     C_R   0.554702 0.167656 0.559813 -0.008264
C35   C     C_R   0.001033 0.665701 0.422760 0.028388
C36   C     C_R   0.045913 0.668015 0.564702 -0.000138
C37   C     C_R   0.576391 0.228971 0.436297 0.044220
C38   C     C_R   0.595932 0.229135 0.510563 -0.009925
C39   C     C_R   0.067877 0.704787 0.440126 0.028030
C40   C     C_R   0.090738 0.702882 0.510536 -0.026597
C41   C     C_R   0.516030 0.072402 0.532449 -0.173628
C42   C     C_R   0.508900 0.058700 0.458879 -0.182614
C43   C     C_R   0.975886 0.644614 0.547848 -0.169906
C44   C     C_R   0.953330 0.645989 0.477143 -0.181138
C45   C     C_R   0.530528 0.177719 0.850528 0.557124
C46   C     C_R   0.469370 0.177793 0.149451 0.542965
C47   C     C_R   0.030522 0.677719 0.850523 0.556410
C48   C     C_R   0.969370 0.677793 0.149451 0.542824
C49   C     C_3   0.650335 0.201238 0.416190 -0.265052
C50   C     C_3   0.669816 0.195089 0.494179 -0.281892
C51   C     C_3   0.137267 0.670293 0.411664 -0.269384
C52   C     C_3   0.161826 0.661037 0.489527 -0.286667
C53   C     C_R   0.758294 0.458438 0.432407 -0.004063
C54   C     C_R   0.250633 0.402359 0.580426 -0.002674
C55   C     C_R   0.248661 0.922636 0.423862 -0.006835
C56   C     C_R   0.754838 0.892658 0.583231 -0.005454
C57   C     C_R   0.817613 0.445909 0.476430 0.018043
C58   C     C_R   0.199844 0.337412 0.541469 0.028910
C59   C     C_R   0.301304 0.867659 0.465391 0.004387
C60   C     C_R   0.704949 0.824039 0.546012 0.032601
C61   C     C_R   0.817016 0.451007 0.549761 -0.011246
C62   C     C_R   0.202420 0.329509 0.468101 0.019666
C63   C     C_R   0.302293 0.873912 0.538638 -0.017596
C64   C     C_R   0.711372 0.800339 0.474131 0.018362
C65   C     C_R   0.695433 0.492329 0.544601 -0.148502
C66   C     C_R   0.309847 0.439790 0.468643 -0.170314
C67   C     C_R   0.190376 0.967634 0.536400 -0.149574
C68   C     C_R   0.829909 0.864652 0.479872 -0.181644
C69   C     C_R   0.693884 0.496943 0.467480 -0.027017
C70   C     C_R   0.311699 0.440572 0.543973 -0.056642
C71   C     C_R   0.187789 0.970565 0.459624 -0.020491
C72   C     C_R   0.821680 0.908980 0.550659 -0.046484
C73   C     C_3   0.884030 0.375579 0.473393 -0.121656
C74   C     C_3   0.120889 0.350884 0.538319 -0.121826
C75   C     C_3   0.377422 0.892736 0.464682 -0.115438
C76   C     C_3   0.629090 0.853551 0.535958 -0.129411
C77   C     C_3   0.885164 0.385834 0.554437 -0.274011
C78   C     C_3   0.124646 0.339965 0.458066 -0.258653
C79   C     C_3   0.375607 0.912548 0.543802 -0.268770
C80   C     C_3   0.637432 0.836435 0.456786 -0.248638
C81   C     C_R   0.753284 0.444705 0.584027 -0.011285
C82   C     C_R   0.254375 0.387469 0.430208 -0.004056
C83   C     C_R   0.247511 0.918488 0.575924 -0.009821
C84   C     C_R   0.771957 0.828041 0.438447 -0.014129
C85   C     C_R   0.726779 0.322084 0.860476 0.557988
C86   C     C_R   0.276290 0.312066 0.140515 0.566076
C87   C     C_R   0.226780 0.822091 0.860477 0.557252
C88   C     C_R   0.776291 0.812063 0.140515 0.568657
C89   C     C_R   0.729279 0.952772 0.648676 0.528133
C90   C     C_R   0.270562 0.955545 0.351827 0.543946
C91   C     C_R   0.228617 0.453593 0.648625 0.535586
C92   C     C_R   0.772635 0.461765 0.355036 0.535305
C93   C     C_R   0.564999 0.180175 0.637719 0.562202
C94   C     C_R   0.474897 0.174718 0.352034 0.545868
C95   C     C_R   0.065175 0.680221 0.638487 0.558612
C96   C     C_R   0.972708 0.675782 0.352457 0.535824
C97   C     C_R   0.740441 0.368907 0.648459 0.541034
C98   C     C_R   0.261383 0.358325 0.354894 0.559205
C99   C     C_R   0.239073 0.865229 0.647073 0.544448
C100  C     C_R   0.775175 0.810413 0.360712 0.565186
C101  C     C_2   0.498001 0.166864 0.920508 -0.117602
C102  C     C_2   0.501309 0.170012 0.079170 -0.105389
C103  C     C_2   0.997994 0.666868 0.920502 -0.117460
C104  C     C_2   0.001306 0.670015 0.079167 -0.106609
C105  C     C_2   0.497523 0.070538 0.039523 -0.164422
C106  C     C_2   0.513048 0.071891 0.962749 -0.166937
C107  C     C_2   0.997516 0.570543 0.039519 -0.164866
C108  C     C_2   0.013038 0.571895 0.962743 -0.166914
C109  C     C_R   0.757066 0.416695 0.076183 0.026507
C110  C     C_R   0.255938 0.396305 0.917960 0.017449
C111  C     C_R   0.257064 0.916695 0.076184 0.027243
C112  C     C_R   0.755947 0.896266 0.917946 0.017484
Cr1   Cr    Cr6+3 0.769260 0.163750 0.750730 0.990436
Cr2   Cr    Cr6+3 0.230740 0.163750 0.249270 0.979390
Cr3   Cr    Cr6+3 0.269260 0.663750 0.750730 0.999874
Cr4   Cr    Cr6+3 0.730740 0.663750 0.249270 0.973141
Cr5   Cr    Cr6+3 0.612640 0.009910 0.748780 0.990429
Cr6   Cr    Cr6+3 0.387360 0.009910 0.251220 0.990687
Cr7   Cr    Cr6+3 0.112640 0.509910 0.748780 0.990496
Cr8   Cr    Cr6+3 0.887360 0.509910 0.251220 0.990000
Cr9   Cr    Cr6+3 0.614190 0.322400 0.747710 0.992070
Cr10  Cr    Cr6+3 0.385810 0.322400 0.252290 0.998851
Cr11  Cr    Cr6+3 0.114190 0.822400 0.747710 0.993285
Cr12  Cr    Cr6+3 0.885810 0.822400 0.252290 1.001629
H1    H     H_    0.483398 0.986001 0.063520 0.144001
H2    H     H_    0.539443 0.993598 0.941512 0.159764
H3    H     H_    0.983393 0.486006 0.063517 0.143855
H4    H     H_    0.039429 0.493598 0.941507 0.159648
H5    H     H_    0.161166 0.745132 0.382162 0.147437
H6    H     H_    0.174100 0.569644 0.506839 0.132418
H7    H     H_    0.674137 0.276719 0.387300 0.145489
H8    H     H_    0.684518 0.103606 0.512134 0.120492
H9    H     H_    0.656615 0.114451 0.388159 0.136711
H10   H     H_    0.708449 0.262057 0.510511 0.142971
H11   H     H_    0.137270 0.585520 0.381389 0.126499
H12   H     H_    0.202753 0.724191 0.504431 0.146465
H13   H     H_    0.649330 0.513014 0.574527 0.112884
H14   H     H_    0.349488 0.485324 0.439325 0.116639
H15   H     H_    0.146747 0.998439 0.566539 0.105224
H16   H     H_    0.879453 0.861865 0.454585 0.134780
H17   H     H_    0.927800 0.421652 0.447142 0.173304
H18   H     H_    0.101188 0.439532 0.555461 0.169546
H19   H     H_    0.386824 0.977192 0.436096 0.185997
H20   H     H_    0.618756 0.946343 0.551019 0.169450
H21   H     H_    0.879651 0.303431 0.581315 0.153700
H22   H     H_    0.100263 0.258580 0.436689 0.152852
H23   H     H_    0.411625 0.853842 0.573525 0.129549
H24   H     H_    0.603650 0.766453 0.434744 0.144830
H25   H     H_    0.928998 0.438009 0.576658 0.131982
H26   H     H_    0.106514 0.421264 0.429729 0.121417
H27   H     H_    0.378499 0.008394 0.559182 0.134065
H28   H     H_    0.634141 0.921432 0.426264 0.136200
H29   H     H_    0.518917 0.252290 0.055297 0.101526
H30   H     H_    0.469911 0.243708 0.941376 0.104996
H31   H     H_    0.018914 0.752294 0.055294 0.101632
H32   H     H_    0.969907 0.743716 0.941370 0.105115
H33   H     H_    0.848327 0.386425 0.924095 0.149996
H34   H     H_    0.204112 0.189252 0.039017 0.126627
H35   H     H_    0.348326 0.886429 0.924096 0.150191
H36   H     H_    0.704034 0.689339 0.039038 0.126385
H37   H     H_    0.866567 0.431139 0.047326 0.140468
H38   H     H_    0.184930 0.245839 0.913600 0.135512
H39   H     H_    0.366567 0.931123 0.047329 0.140588
H40   H     H_    0.684863 0.745900 0.913620 0.135581
H41   H     H_    0.130277 0.052923 0.070991 0.140758
H42   H     H_    0.774154 0.134018 0.966737 0.145467
H43   H     H_    0.630275 0.552896 0.070989 0.140734
H44   H     H_    0.273950 0.634054 0.966795 0.145173
H45   H     H_    0.585157 0.411258 0.090904 0.141588
H46   H     H_    0.369682 0.611006 0.949594 0.142834
H47   H     H_    0.085153 0.911289 0.090904 0.141468
H48   H     H_    0.869862 0.110732 0.949511 0.142516
H49   H     H_    0.566194 0.380536 0.964771 0.142156
H50   H     H_    0.388311 0.554050 0.072196 0.140106
H51   H     H_    0.066189 0.880571 0.964769 0.142117
H52   H     H_    0.888480 0.053801 0.072122 0.140406
H53   H     H_    0.616607 0.518233 0.944319 0.141991
H54   H     H_    0.292934 0.580484 0.089397 0.154381
H55   H     H_    0.116607 0.018265 0.944319 0.141848
H56   H     H_    0.793126 0.080455 0.089344 0.156081
H57   H     H_    0.498204 0.003254 0.567521 0.139549
H58   H     H_    0.494710 0.975520 0.435624 0.137070
H59   H     H_    0.937952 0.634169 0.589790 0.146305
H60   H     H_    0.898334 0.634388 0.464725 0.126565
O1    O     O_R   0.784290 0.290360 0.830540 -0.530252
O2    O     O_R   0.215710 0.290360 0.169460 -0.519505
O3    O     O_R   0.284290 0.790360 0.830540 -0.528290
O4    O     O_R   0.715710 0.790360 0.169460 -0.513378
O5    O     O_R   0.554690 0.080440 0.673480 -0.506848
O6    O     O_R   0.445310 0.080440 0.326520 -0.516667
O7    O     O_R   0.054690 0.580440 0.673480 -0.506494
O8    O     O_R   0.945310 0.580440 0.326520 -0.514290
O9    O     O_R   0.543980 0.282110 0.666770 -0.535386
O10   O     O_R   0.456020 0.282110 0.333230 -0.505613
O11   O     O_R   0.043980 0.782110 0.666770 -0.530322
O12   O     O_R   0.956020 0.782110 0.333230 -0.511676
O13   O     O_R   0.679070 0.374030 0.674430 -0.522694
O14   O     O_R   0.320930 0.374030 0.325570 -0.506014
O15   O     O_R   0.179070 0.874030 0.674430 -0.526747
O16   O     O_R   0.820930 0.874030 0.325570 -0.496186
O17   O     O_3   0.665360 0.165350 0.749070 -0.283360
O18   O     O_3   0.334640 0.165350 0.250930 -0.268298
O19   O     O_3   0.165360 0.665350 0.749070 -0.287534
O20   O     O_3   0.834640 0.665350 0.250930 -0.292961
O21   O     O_R   0.762610 0.041070 0.825230 -0.504183
O22   O     O_R   0.237390 0.041070 0.174770 -0.523139
O23   O     O_R   0.262610 0.541070 0.825230 -0.504702
O24   O     O_R   0.737390 0.541070 0.174770 -0.521012
O25   O     O_R   0.667390 0.924160 0.829970 -0.524146
O26   O     O_R   0.332610 0.924160 0.170030 -0.526829
O27   O     O_R   0.167390 0.424160 0.829970 -0.524708
O28   O     O_R   0.832610 0.424160 0.170030 -0.524417
O29   O     O_R   0.553980 0.081420 0.821780 -0.492294
O30   O     O_R   0.446020 0.081420 0.178220 -0.501068
O31   O     O_R   0.053980 0.581420 0.821780 -0.492931
O32   O     O_R   0.946020 0.581420 0.178220 -0.500002
O33   O     O_R   0.543210 0.283170 0.826740 -0.516123
O34   O     O_R   0.456790 0.283170 0.173260 -0.527036
O35   O     O_R   0.043210 0.783170 0.826740 -0.515464
O36   O     O_R   0.956790 0.783170 0.173260 -0.525296
O37   O     O_R   0.678350 0.375000 0.822720 -0.494579
O38   O     O_R   0.321650 0.375000 0.177280 -0.500039
O39   O     O_R   0.178350 0.875000 0.822720 -0.494402
O40   O     O_R   0.821650 0.875000 0.177280 -0.492997
O41   O     O_R   0.785060 0.289300 0.670580 -0.549751
O42   O     O_R   0.214940 0.289300 0.329420 -0.546103
O43   O     O_R   0.285060 0.789300 0.670580 -0.539533
O44   O     O_R   0.714940 0.789300 0.329420 -0.545399
O45   O     O_R   0.763330 0.040090 0.676940 -0.505478
O46   O     O_R   0.236670 0.040090 0.323060 -0.527388
O47   O     O_R   0.263330 0.540090 0.676940 -0.499132
O48   O     O_R   0.736670 0.540090 0.323060 -0.540993
O49   O     O_R   0.668160 0.923110 0.670000 -0.531839
O50   O     O_R   0.331840 0.923110 0.330000 -0.525694
O51   O     O_R   0.168160 0.423110 0.670000 -0.533527
O52   O     O_R   0.831840 0.423110 0.330000 -0.514790
C113  C     C_R   0.621279 0.517919 0.431362 0.022561
C114  C     C_R   0.607105 0.579050 0.366028 -0.092870
C115  C     C_R   0.540609 0.584964 0.333792 -0.146314
C116  C     C_R   0.484651 0.531979 0.366661 -0.078345
C117  C     C_R   0.495256 0.479144 0.433168 -0.093257
C118  C     C_R   0.560944 0.479106 0.466451 -0.110189
H61   H     H_    0.642444 0.637605 0.342848 0.198630
H62   H     H_    0.532392 0.633452 0.284047 0.095439
H63   H     H_    0.433246 0.533616 0.341330 0.128228
H64   H     H_    0.453904 0.432037 0.458238 0.119370
H65   H     H_    0.563847 0.439804 0.518491 0.105336
C119  C     C_R   0.371963 0.499347 0.581039 0.011472
C120  C     C_R   0.366038 0.618638 0.600099 -0.040679
C121  C     C_R   0.414141 0.669827 0.648571 -0.089669
C122  C     C_R   0.476126 0.611393 0.664725 -0.153198
C123  C     C_R   0.489508 0.502672 0.632906 -0.094016
C124  C     C_R   0.435823 0.440742 0.596088 -0.086965
H66   H     H_    0.319916 0.664873 0.581430 0.152558
H67   H     H_    0.406103 0.756507 0.672240 0.139749
H68   H     H_    0.515378 0.653509 0.698442 0.095865
H69   H     H_    0.542633 0.471620 0.636679 0.155253
H70   H     H_    0.444837 0.351082 0.576591 0.132803
C125  C     C_R   0.117386 0.004463 0.423081 0.021385
C126  C     C_R   0.106955 0.073980 0.359992 -0.091505
C127  C     C_R   0.041757 0.091030 0.326672 -0.140064
C128  C     C_R   0.982524 0.055110 0.361176 -0.072118
C129  C     C_R   0.989919 0.005399 0.428776 -0.098728
C130  C     C_R   0.055416 0.973729 0.457255 -0.103029
H71   H     H_    0.143335 0.135198 0.341641 0.202431
H72   H     H_    0.036831 0.143207 0.277887 0.096388
H73   H     H_    0.931184 0.074630 0.338441 0.116025
H74   H     H_    0.945205 0.999475 0.460927 0.102189
H75   H     H_    0.057359 0.928002 0.507527 0.105613
C131  C     C_R   0.879970 0.978306 0.585900 0.009389
C132  C     C_R   0.869312 0.094314 0.609528 -0.058365
C133  C     C_R   0.914758 0.145030 0.661278 -0.099458
C134  C     C_R   0.980548 0.096619 0.672161 -0.145749
C135  C     C_R   0.999472 0.999146 0.631648 -0.085730
C136  C     C_R   0.948208 0.934742 0.593074 -0.087493
H76   H     H_    0.822270 0.139916 0.591239 0.147463
H77   H     H_    0.902433 0.226813 0.688977 0.143185
H78   H     H_    0.018187 0.139874 0.707270 0.096412
H79   H     H_    0.053829 0.974215 0.631843 0.148741
H80   H     H_    0.962237 0.856698 0.564709 0.135750
C137  C     C_3   0.874399 0.246849 0.448614 -0.406432
H81   H     H_    0.918262 0.193771 0.471674 0.133105
H82   H     H_    0.824371 0.208737 0.466923 0.134850
H83   H     H_    0.875962 0.241247 0.389548 0.166514
C138  C     C_3   0.081714 0.249514 0.573672 -0.390576
H84   H     H_    0.024780 0.269761 0.571089 0.134425
H85   H     H_    0.090562 0.164288 0.545833 0.135710
H86   H     H_    0.098771 0.239967 0.630465 0.162465
C139  C     C_3   0.419315 0.781379 0.441454 -0.396130
H87   H     H_    0.396213 0.698161 0.462621 0.140179
H88   H     H_    0.419802 0.775373 0.382218 0.162294
H89   H     H_    0.474177 0.785089 0.461206 0.125084
C140  C     C_3   0.582178 0.762998 0.572487 -0.387268
H90   H     H_    0.580622 0.677312 0.543485 0.139082
H91   H     H_    0.601186 0.745158 0.627959 0.164446
H92   H     H_    0.528353 0.799218 0.574845 0.118961

loop_
_geom_bond_atom_site_label_1
_geom_bond_atom_site_label_2
_ccdc_geom_bond_type
Cr12  O36   S    
C130  H75   S    
C55   C59   A    
C75   C139  S    
C53   C69   A    
C137  H83   S    
C49   H7    S    
C113  C118  A    
C14   H34   S    
C92   O48   A    
C132  C133  A    
C135  C136  A    
C64   C84   A    
C124  H70   S    
C133  C134  A    
C56   C72   A    
Cr3   O19   S    
C45   O29   A    
Cr1   O17   S    
C22   H44   S    
C3    O27   A    
C82   C98   S    
Cr10  O10   S    
Cr4   O20   S    
C4    O24   A    
C2    C111  S    
C31   C87   S    
C51   C52   S    
C84   C100  S    
C129  C130  A    
C50   H10   S    
Cr11  O39   S    
C92   O52   A    
C87   O39   A    
C43   C44   A    
C94   O6    A    
Cr3   O43   S    
C37   C38   A    
C66   C82   A    
C10   C30   A    
Cr1   O41   S    
C54   C70   A    
C11   C27   S    
C68   C72   A    
Cr5   O29   S    
C28   H56   S    
C102  H29   S    
C22   H46   S    
C75   H19   S    
C76   H20   S    
Cr7   O51   S    
Cr4   O44   S    
C116  H63   S    
C68   H16   S    
C39   C40   A    
C49   H9    S    
C94   O10   A    
C17   C109  A    
C57   C61   A    
C19   C111  A    
C59   C63   A    
C134  H78   S    
Cr11  O19   S    
C60   C64   A    
C3    O23   A    
C136  H80   S    
Cr9   O17   S    
C76   C140  S    
C138  H85   S    
Cr8   O20   S    
C122  H68   S    
C66   C70   A    
C43   H59   S    
C78   H22   S    
C107  H3    S    
C25   H49   S    
C103  H32   S    
C127  H72   S    
C23   H47   S    
Cr10  O38   S    
C73   C77   S    
C75   C79   S    
C104  C107  D    
C55   C71   A    
C123  C124  A    
C6    C22   S    
Cr8   O28   S    
C39   C51   S    
C4    C109  S    
C67   C83   A    
C16   H36   S    
Cr6   O6    S    
C33   C94   S    
C51   H5    S    
C35   C96   S    
C120  C121  A    
C33   C42   A    
Cr11  O15   S    
C55   C90   S    
C1    C112  S    
C127  C128  A    
C3    C110  S    
C71   C125  S    
C32   C88   S    
C91   O51   A    
C117  C118  A    
C57   C73   S    
C23   H41   S    
Cr12  O40   S    
C61   C77   S    
C107  C108  S    
C88   O40   A    
C2    O22   A    
C67   H15   S    
C29   C85   S    
C113  C114  A    
Cr4   O48   S    
Cr6   O18   S    
C13   H33   S    
C85   O1    A    
C132  H76   S    
C1    O25   A    
C135  H79   S    
C97   O13   A    
C128  H73   S    
C119  C124  A    
C87   O3    A    
C114  H61   S    
C108  H4    S    
C91   O47   A    
Cr1   O21   S    
C80   H24   S    
C5    C9    A    
C140  H90   S    
Cr3   O3    S    
C66   H14   S    
Cr5   O49   S    
C8    C12   A    
Cr1   O1    S    
Cr12  O12   S    
C139  H87   S    
C5    C21   S    
C19   H39   S    
Cr10  O14   S    
Cr4   O24   S    
C17   H37   S    
C100  O16   A    
C56   C89   S    
C74   C78   S    
C52   H12   S    
C58   C74   S    
C73   C137  S    
C101  C106  D    
C21   C25   S    
Cr9   O33   S    
C131  C136  A    
C62   C78   S    
C76   C80   S    
C126  C127  A    
C15   C31   A    
C128  C129  A    
C93   O5    A    
C16   C32   A    
Cr7   O27   S    
C13   C17   A    
C96   O8    A    
Cr5   O25   S    
C65   H13   S    
C61   C81   A    
C9    C29   A    
C36   C95   S    
C101  H30   S    
C21   H45   S    
C116  C117  A    
C8    C24   S    
C104  H31   S    
C24   H48   S    
C49   C50   S    
C90   O46   A    
C85   O37   A    
C99   O43   A    
C70   C119  S    
C58   C62   A    
C97   O41   A    
C46   O34   A    
C77   H21   S    
C41   C42   A    
C115  C116  A    
Cr5   O5    S    
Cr11  O11   S    
C9    C25   S    
C122  C123  A    
C73   H17   S    
C42   H58   S    
C15   C19   A    
C12   C28   S    
C13   C29   A    
C27   H55   S    
C140  H92   S    
C8    C112  A    
C25   H53   S    
C26   H50   S    
C20   H40   S    
C139  H89   S    
C102  C105  D    
C100  O44   A    
Cr11  O35   S    
C20   C112  A    
C47   O31   A    
Cr2   O18   S    
C62   C82   A    
C120  H66   S    
C83   C99   S    
C64   C80   S    
C41   H57   S    
C34   C41   A    
Cr9   O9    S    
Cr2   O2    S    
C123  H69   S    
C129  H74   S    
C47   C103  S    
C117  H64   S    
C68   C84   A    
C24   C28   S    
Cr7   O19   S    
C125  C130  A    
C27   H51   S    
C53   C57   A    
C28   H52   S    
C79   H23   S    
C74   C138  S    
C121  C122  A    
C33   C37   A    
C56   C60   A    
C63   C83   A    
C35   C39   A    
C105  H1    S    
C15   H35   S    
C138  H84   S    
Cr2   O42   S    
C37   C49   S    
C65   C81   A    
Cr6   O30   S    
Cr1   O45   S    
C50   H8    S    
C86   O2    A    
C60   C76   S    
C98   O42   A    
C137  H82   S    
C77   H25   S    
C119  C120  A    
C48   O36   A    
C114  C115  A    
C95   O11   A    
C93   O9    A    
C18   C110  A    
C6    C10   A    
C105  C106  S    
C106  H2    S    
C21   H43   S    
Cr10  O18   S    
C54   C91   S    
C18   H38   S    
C5    C109  A    
C65   C69   A    
C7    C111  A    
C67   C71   A    
C96   O12   A    
C22   C26   S    
C99   O15   A    
Cr9   O37   S    
C131  C132  A    
C36   C43   A    
C126  H71   S    
C48   O32   A    
Cr7   O31   S    
C133  H77   S    
Cr3   O23   S    
C45   O33   A    
C14   C18   A    
C24   H42   S    
C34   C93   S    
C63   C79   S    
C7    C11   A    
Cr4   O4    S    
Cr12  O16   S    
Cr12  O20   S    
Cr7   O7    S    
C138  H86   S    
Cr8   O8    S    
C7    C23   S    
C89   O49   A    
C48   C104  S    
C90   O50   A    
C51   H11   S    
C46   O30   A    
C115  H62   S    
C23   C27   S    
C30   C86   S    
C1    O21   A    
C44   H60   S    
Cr3   O47   S    
C16   C20   A    
C10   C26   S    
C74   H18   S    
C11   C31   A    
C12   C32   A    
C72   C131  S    
C6    C110  A    
C14   C30   A    
Cr5   O17   S    
C26   H54   S    
C2    O26   A    
C98   O14   A    
C36   C40   A    
C137  H81   S    
C40   C52   S    
C47   O35   A    
Cr2   O22   S    
Cr6   O50   S    
C53   C92   S    
C134  C135  A    
C35   C44   A    
Cr9   O13   S    
C103  C108  D    
C45   C101  S    
C125  C126  A    
C59   C75   S    
C78   H26   S    
C79   H27   S    
C54   C58   A    
C121  H67   S    
C80   H28   S    
Cr10  O34   S    
C34   C38   A    
Cr2   O46   S    
C38   C50   S    
C95   O7    A    
Cr8   O32   S    
C118  H65   S    
C4    O28   A    
Cr6   O26   S    
C52   H6    S    
C140  H91   S    
Cr8   O52   S    
C81   C97   S    
C139  H88   S    
C88   O4    A    
C86   O38   A    
C89   O45   A    
C69   C113  S    
C46   C102  S    
