data_mof_unit_12486.cif
_audit_creation_date              2012-12-11T17:41:38-0500
_audit_creation_method            fapswitch 2.2
_symmetry_space_group_name_H-M    P1
_symmetry_Int_Tables_number       1
_space_group_crystal_system       triclinic
_cell_length_a                    15.478071
_cell_length_b                    14.833991
_cell_length_c                    14.818042
_cell_angle_alpha                 109.526557
_cell_angle_beta                  121.118596
_cell_angle_gamma                 59.32365
_cell_volume                      2493.53786498

loop_
_atom_site_label
_atom_site_type_symbol
_atom_type_description
_atom_site_fract_x
_atom_site_fract_y
_atom_site_fract_z
_atom_type_partial_charge
Br1   Br    Br    0.733508 0.916409 0.153746 -0.708755
Br2   Br    Br    0.286417 0.871261 0.748754 -0.575095
C1    C     C_R   0.749716 0.996878 0.792243 -0.105909
C2    C     C_R   0.145805 0.195601 0.933242 -0.024330
C3    C     C_R   0.693347 0.639501 0.914613 -0.137776
C4    C     C_R   0.253422 0.123248 0.946428 -0.138119
C5    C     C_R   0.705009 0.735014 0.951670 0.182668
C6    C     C_R   0.290704 0.017652 0.958301 0.136957
C7    C     C_R   0.807346 0.733982 0.979416 -0.129577
C8    C     C_R   0.218489 0.984544 0.954409 -0.045840
C9    C     C_R   0.895468 0.639478 0.970209 -0.139464
C10   C     C_R   0.110444 0.057247 0.940404 -0.123283
C11   C     C_R   0.882986 0.545171 0.934221 -0.086261
C12   C     C_R   0.197140 0.061924 0.225487 -0.092747
C13   C     C_R   0.074472 0.162789 0.930454 -0.111003
C14   C     C_R   0.604777 0.887988 0.053514 0.271090
C15   C     C_R   0.410274 0.893102 0.871972 0.276365
C16   C     C_R   0.244008 0.290813 0.491497 -0.123653
C17   C     C_R   0.802134 0.726871 0.562375 -0.132586
C18   C     C_R   0.501556 0.941397 0.061887 -0.065633
C19   C     C_R   0.508134 0.861305 0.865046 -0.066117
C20   C     C_R   0.403159 0.942718 0.967969 -0.108917
C21   C     C_R   0.607377 0.833657 0.956900 -0.095693
C22   C     C_2   0.151508 0.398076 0.616850 -0.208050
C23   C     C_R   0.212492 0.300081 0.567816 0.145543
C24   C     C_2   0.980509 0.655818 0.542845 -0.189319
C25   C     C_2   0.135282 0.490849 0.602728 -0.103196
C26   C     C_2   0.040575 0.584772 0.612936 -0.084571
C27   C     C_2   0.828830 0.132674 0.901880 -0.231335
C28   C     C_2   0.014779 0.049391 0.159345 -0.185217
C29   C     C_R   0.091740 0.729875 0.200346 -0.203401
C30   C     C_R   0.833559 0.119837 0.389142 -0.193369
C31   C     C_R   0.192075 0.659143 0.268309 -0.155882
C32   C     C_R   0.729187 0.204766 0.367332 -0.124299
C33   C     C_R   0.292441 0.632382 0.266397 0.027815
C34   C     C_R   0.865028 0.727969 0.522633 0.147301
C35   C     C_R   0.714818 0.292474 0.442548 0.023149
C36   C     C_R   0.290414 0.678245 0.195769 -0.327356
C37   C     C_R   0.806589 0.294216 0.539247 -0.374126
C38   C     C_R   0.189731 0.748542 0.127549 0.836633
C39   C     C_R   0.910650 0.208898 0.560769 0.828490
C40   C     C_R   0.593870 0.216007 0.487945 -0.139185
C41   C     C_R   0.406093 0.768525 0.443035 -0.094431
C42   C     C_R   0.090447 0.773626 0.129306 -0.310721
C43   C     C_R   0.924092 0.121810 0.485721 -0.264887
C44   C     C_R   0.403912 0.458023 0.336850 -0.240664
C45   C     C_R   0.504010 0.298248 0.429384 0.074086
C46   C     C_R   0.599585 0.481189 0.422360 -0.232301
C47   C     C_R   0.505675 0.377053 0.390656 0.042763
C48   C     C_R   0.497632 0.569631 0.394641 0.046641
C49   C     C_R   0.605031 0.383513 0.418496 0.086168
C50   C     C_R   0.398979 0.553948 0.334840 0.090687
C51   C     C_2   0.855380 0.109472 0.995270 -0.080671
C52   C     C_2   0.953490 0.118822 0.087434 -0.124993
C53   C     C_R   0.409789 0.977685 0.713561 -0.122949
C54   C     C_R   0.591864 0.957919 0.266553 -0.082812
C55   C     C_R   0.410538 0.289131 0.410047 -0.129778
C56   C     C_R   0.497478 0.673906 0.445149 0.053291
C57   C     C_R   0.591012 0.694108 0.515368 -0.115323
C58   C     C_R   0.592596 0.903548 0.785418 -0.131224
C59   C     C_R   0.407417 0.041402 0.192192 -0.151716
C60   C     C_R   0.243176 0.199071 0.584206 -0.131242
C61   C     C_R   0.802515 0.817166 0.469704 -0.142940
C62   C     C_R   0.750402 0.090362 0.701690 -0.124269
C63   C     C_R   0.195934 0.971012 0.316813 -0.160939
C64   C     C_R   0.776472 0.076927 0.802647 0.147311
C65   C     C_R   0.132625 0.024799 0.227887 0.178281
C66   C     C_R   0.502578 0.913580 0.791801 0.126875
C67   C     C_R   0.499785 0.982480 0.168386 0.126465
C68   C     C_R   0.781963 0.545187 0.906377 -0.116987
F1    F     F_    0.188339 0.791955 0.059240 -0.720655
F2    F     F_    0.998603 0.210740 0.654388 -0.718547
H1    H     H_    0.758765 0.965065 0.853848 0.094912
H2    H     H_    0.307946 0.149241 0.947586 0.120916
H3    H     H_    0.818123 0.806269 0.004021 0.148731
H4    H     H_    0.245819 0.903060 0.962026 0.174972
H5    H     H_    0.973227 0.639366 0.989844 0.133714
H6    H     H_    0.055039 0.031414 0.937311 0.156597
H7    H     H_    0.009601 0.585482 0.664329 0.127943
H8    H     H_    0.177204 0.495239 0.565063 0.134353
H9    H     H_    0.012357 0.653622 0.491334 0.138227
H10   H     H_    0.108369 0.394586 0.653891 0.151758
H11   H     H_    0.012346 0.826644 0.075310 0.147260
H12   H     H_    0.169603 0.118870 0.175598 0.080656
H13   H     H_    0.004701 0.055906 0.502220 0.167948
H14   H     H_    0.231706 0.352975 0.457844 0.093589
H15   H     H_    0.829939 0.677086 0.619584 0.088618
H16   H     H_    0.014770 0.749999 0.202014 0.187693
H17   H     H_    0.844520 0.052549 0.331096 0.200016
H18   H     H_    0.191502 0.625733 0.322648 0.131392
H19   H     H_    0.659755 0.202332 0.292096 0.152046
H20   H     H_    0.366649 0.658529 0.192768 0.159524
H21   H     H_    0.797157 0.361207 0.598097 0.155603
H22   H     H_    0.327453 0.448501 0.298995 0.122374
H23   H     H_    0.980685 0.002075 0.161324 0.141031
H24   H     H_    0.676220 0.488262 0.452004 0.131852
H25   H     H_    0.680301 0.189449 0.509721 0.121524
H26   H     H_    0.319607 0.783804 0.401849 0.119989
H27   H     H_    0.324232 0.995314 0.687995 0.162257
H28   H     H_    0.676867 0.905886 0.282903 0.158065
H29   H     H_    0.325749 0.331480 0.356151 0.085316
H30   H     H_    0.676875 0.639043 0.539091 0.096248
H31   H     H_    0.677226 0.848238 0.822759 0.104287
H32   H     H_    0.321007 0.078470 0.141297 0.115577
H33   H     H_    0.230967 0.177349 0.638149 0.134963
H34   H     H_    0.860575 0.181069 0.898494 0.126649
H35   H     H_    0.832870 0.849961 0.442910 0.123275
H36   H     H_    0.760764 0.146711 0.681594 0.107216
H37   H     H_    0.165231 0.945643 0.350521 0.110355
H38   H     H_    0.985811 0.167731 0.085438 0.123589
H39   H     H_    0.822119 0.062653 0.999431 0.137640
H40   H     H_    0.951335 0.472200 0.927206 0.105838
H41   H     H_    0.991506 0.219790 0.920316 0.096900
H42   H     H_    0.772144 0.472126 0.878012 0.115140
H43   H     H_    0.117547 0.277029 0.924785 0.109843
H44   H     H_    0.615421 0.638076 0.892310 0.132495
N1    N     N_R   0.705410 0.966550 0.689210 -0.047761
N2    N     N_R   0.556610 0.796750 0.548620 -0.042660
N3    N     N_R   0.556610 0.951620 0.703500 -0.047857
N4    N     N_R   0.443390 0.048380 0.296500 -0.045322
N5    N     N_R   0.294590 0.131500 0.522480 -0.047361
N6    N     N_R   0.705410 0.868500 0.477520 -0.046683
N7    N     N_R   0.705410 0.023370 0.632390 -0.044271
N8    N     N_R   0.294590 0.976630 0.367610 -0.044606
N9    N     N_R   0.294590 0.033450 0.310790 -0.046383
N10   N     N_R   0.294590 0.188320 0.465660 -0.048196
N11   N     N_R   0.705410 0.811680 0.534340 -0.044751
N12   N     N_R   0.556610 0.157790 0.497330 -0.042343
N13   N     N_R   0.443390 0.842210 0.502670 -0.041730
N14   N     N_R   0.443390 0.997080 0.657540 -0.050252
N15   N     N_R   0.556610 0.002920 0.342460 -0.050665
N16   N     N_R   0.443390 0.203250 0.451380 -0.040405
Ni1   Ni    Ni4+2 0.629830 0.882720 0.617850 0.216297
Ni2   Ni    Ni4+2 0.370170 0.117280 0.382150 0.208692
Ni3   Ni    Ni4+2 0.629830 0.013030 0.487540 0.227232
Ni4   Ni    Ni4+2 0.370170 0.986970 0.512460 0.229668

loop_
_geom_bond_atom_site_label_1
_geom_bond_atom_site_label_2
_ccdc_geom_bond_type
N9    Ni2   S    
C55   N16   A    
C24   H9    S    
C38   F1    S    
C36   H20   S    
C32   C35   A    
C30   C43   A    
C2    H43   S    
C22   C25   D    
C12   H12   S    
C42   H11   S    
N1    Ni1   S    
C53   C66   A    
C37   C39   A    
C60   H33   S    
C51   C52   S    
C68   H42   S    
C28   C52   D    
C44   C47   A    
N3    Ni1   S    
C12   N9    A    
C11   H40   S    
N15   Ni3   S    
C17   C34   A    
C35   C49   S    
C11   C68   A    
N4    N15   A    
C44   C50   A    
N3    N14   A    
C52   H38   S    
C58   N3    A    
C63   N8    A    
N6    N11   A    
C26   H7    S    
C22   H10   S    
C32   H19   S    
C37   H21   S    
C1    N1    A    
C41   C56   A    
C8    H4    S    
C46   C49   A    
C63   C65   A    
C10   H6    S    
C6    C20   S    
C12   C65   A    
C41   H26   S    
C62   H36   S    
C58   H31   S    
C9    H5    S    
C28   C65   S    
C40   N12   A    
C40   C45   A    
C51   H39   S    
C46   C48   A    
C59   N4    A    
N16   Ni2   S    
C16   C23   A    
N12   N16   A    
N10   Ni2   S    
C4    H2    S    
C35   C37   A    
C29   C42   A    
N8    Ni4   S    
C48   C56   S    
C41   N13   A    
C33   C36   A    
C22   C23   S    
C2    C4    A    
C25   H8    S    
N12   Ni3   S    
C3    C5    A    
C4    C6    A    
C47   C49   A    
C56   C57   A    
C15   C19   A    
N7    Ni3   S    
C62   C64   A    
C43   H13   S    
C28   H23   S    
C45   C55   A    
N13   Ni4   S    
C48   C50   A    
C30   H17   S    
C44   H22   S    
C10   C13   A    
C14   C18   A    
C53   N14   A    
C59   H32   S    
C13   H41   S    
Br1   C14   S    
C16   H14   S    
C7    C9    A    
C63   H37   S    
N2    Ni1   S    
C8    C10   A    
C39   F2    S    
C24   C34   S    
C18   C20   A    
C14   C21   A    
C19   C21   A    
C3    H44   S    
C27   H34   S    
C40   H25   S    
C1    C64   A    
C54   H28   S    
C61   H35   S    
C34   C61   A    
C33   C50   S    
C61   N6    A    
C59   C67   A    
C5    C7    A    
C29   C31   A    
C29   H16   S    
C46   H24   S    
C57   H30   S    
N14   Ni4   S    
N11   Ni1   S    
C3    C68   A    
C45   C47   S    
C62   N7    A    
C55   H29   S    
C24   C26   D    
C15   C20   A    
C2    C13   A    
N1    N7    A    
C17   H15   S    
N5    N10   A    
C19   C66   S    
N2    N13   A    
C31   H18   S    
C16   N10   A    
C36   C38   A    
C9    C11   A    
C27   C51   D    
C5    C21   S    
C17   N11   A    
C31   C33   A    
N4    Ni2   S    
C23   C60   A    
N5    Ni4   S    
C1    H1    S    
N6    Ni3   S    
C54   N15   A    
C27   C64   S    
C38   C42   A    
C57   N2    A    
C58   C66   A    
C6    C8    A    
C54   C67   A    
C53   H27   S    
C25   C26   S    
C39   C43   A    
C18   C67   S    
C7    H3    S    
C60   N5    A    
C30   C32   A    
N8    N9    A    
Br2   C15   S    
