data_mof_unit_25767.cif
_audit_creation_date              2012-12-11T15:18:10-0500
_audit_creation_method            fapswitch 2.2
_symmetry_space_group_name_H-M    P1
_symmetry_Int_Tables_number       1
_space_group_crystal_system       triclinic
_cell_length_a                    15.755284
_cell_length_b                    15.755098
_cell_length_c                    34.502099
_cell_angle_alpha                 89.999458
_cell_angle_beta                  89.99978
_cell_angle_gamma                 119.9996
_cell_volume                      7416.94816908

loop_
_atom_site_label
_atom_site_type_symbol
_atom_type_description
_atom_site_fract_x
_atom_site_fract_y
_atom_site_fract_z
_atom_type_partial_charge
C1    C     C_R   0.577784 0.441858 0.554728 0.544765
C2    C     C_R   0.494374 0.980921 0.212810 0.350289
C3    C     C_R   0.942036 0.782086 0.546668 -0.106410
C4    C     C_R   0.889460 0.748334 0.581252 -0.112070
C5    C     C_R   0.889532 0.671633 0.601620 -0.089394
C6    C     C_R   0.372323 0.314296 0.587368 0.051416
C7    C     C_R   0.337204 0.332605 0.552722 -0.066496
C8    C     C_R   0.260619 0.255536 0.532430 -0.112636
C9    C     C_R   0.217959 0.159850 0.546675 -0.106394
C10   C     C_R   0.251710 0.141085 0.581272 -0.112073
C11   C     C_R   0.328385 0.217898 0.601635 -0.089419
C12   C     C_R   0.685687 0.057995 0.587362 0.051411
C13   C     C_R   0.486711 0.505497 0.212770 0.350290
C14   C     C_R   0.667372 0.004584 0.552712 -0.066490
C15   C     C_R   0.744434 0.005064 0.532416 -0.112629
C16   C     C_R   0.840121 0.058069 0.546661 -0.106398
C17   C     C_R   0.858891 0.110562 0.581264 -0.112079
C18   C     C_R   0.782083 0.110428 0.601631 -0.089436
C19   C     C_R   0.627613 0.941959 0.087385 0.051434
C20   C     C_R   0.671384 0.889247 0.101553 -0.089166
C21   C     C_R   0.748080 0.889205 0.081169 -0.111934
C22   C     C_R   0.782031 0.942094 0.046654 -0.106372
C23   C     C_R   0.739527 0.995365 0.032509 -0.112724
C24   C     C_R   0.018633 0.513221 0.212743 0.350296
C25   C     C_R   0.662896 0.995719 0.052817 -0.066752
C26   C     C_R   0.314256 0.372363 0.087383 0.051443
C27   C     C_R   0.217807 0.328654 0.101586 -0.089187
C28   C     C_R   0.140996 0.251971 0.081226 -0.111966
C29   C     C_R   0.159819 0.217984 0.046699 -0.106371
C30   C     C_R   0.255554 0.260437 0.032518 -0.112715
C31   C     C_R   0.332618 0.337044 0.052804 -0.066714
C32   C     C_R   0.058002 0.685720 0.087352 0.051436
C33   C     C_R   0.110302 0.782100 0.101656 -0.089550
C34   C     C_R   0.110443 0.858901 0.081291 -0.112152
C35   C     C_R   0.003941 0.432514 0.854227 -0.117685
C36   C     C_R   0.058121 0.840150 0.046649 -0.106421
C37   C     C_R   0.005271 0.744490 0.032364 -0.112610
C38   C     C_R   0.004759 0.667431 0.052661 -0.066351
C39   C     C_R   0.567460 0.571522 0.854204 -0.117686
C40   C     C_R   0.428515 0.995970 0.854206 -0.117682
C41   C     C_R   0.432462 0.003784 0.354256 -0.117685
C42   C     C_R   0.571468 0.567498 0.354219 -0.117680
C43   C     C_R   0.995935 0.428495 0.354195 -0.117680
C44   C     C_R   0.038253 0.445475 0.892154 -0.131031
C45   C     C_R   0.558142 0.135926 0.554728 0.544759
C46   C     C_R   0.554511 0.592837 0.892138 -0.131015
C47   C     C_R   0.407189 0.961699 0.892140 -0.131024
C48   C     C_R   0.445447 0.038166 0.392174 -0.131031
C49   C     C_R   0.592810 0.554534 0.392149 -0.131012
C50   C     C_R   0.961666 0.407168 0.392129 -0.131016
C51   C     C_R   0.073366 0.613767 0.890658 -0.132675
C52   C     C_R   0.386244 0.459611 0.890654 -0.132658
C53   C     C_R   0.540389 0.926620 0.890653 -0.132656
C54   C     C_R   0.613742 0.073302 0.390675 -0.132674
C55   C     C_R   0.459581 0.386266 0.390664 -0.132668
C56   C     C_R   0.864068 0.422212 0.554730 0.544765
C57   C     C_R   0.926613 0.540387 0.390649 -0.132660
C58   C     C_R   0.039303 0.600903 0.852610 -0.118529
C59   C     C_R   0.399096 0.438444 0.852598 -0.118525
C60   C     C_R   0.561562 0.960641 0.852598 -0.118526
C61   C     C_R   0.600855 0.039172 0.352635 -0.118538
C62   C     C_R   0.438389 0.399133 0.352613 -0.118521
C63   C     C_R   0.960634 0.561562 0.352593 -0.118519
C64   C     C_R   0.008770 0.511534 0.833464 0.034820
C65   C     C_R   0.488443 0.497323 0.833445 0.034822
C66   C     C_R   0.502701 0.991133 0.833445 0.034819
C67   C     C_R   0.441859 0.577782 0.054727 0.544806
C68   C     C_R   0.511472 0.008590 0.333496 0.034812
C69   C     C_R   0.497255 0.488489 0.333461 0.034820
C70   C     C_R   0.991114 0.502695 0.333437 0.034817
C71   C     C_R   0.077608 0.537527 0.909983 0.021297
C72   C     C_R   0.462475 0.540100 0.909977 0.021303
C73   C     C_R   0.459908 0.922378 0.909977 0.021298
C74   C     C_R   0.537511 0.077564 0.409995 0.021299
C75   C     C_R   0.540085 0.462489 0.409984 0.021293
C76   C     C_R   0.922363 0.459899 0.409971 0.021289
C77   C     C_R   0.577869 0.442245 0.445622 0.547403
C78   C     C_R   0.135916 0.558140 0.054725 0.544713
C79   C     C_R   0.557757 0.135623 0.445624 0.547412
C80   C     C_R   0.864371 0.422130 0.445620 0.547400
C81   C     C_R   0.442244 0.577869 0.945621 0.547413
C82   C     C_R   0.135626 0.557758 0.945622 0.547381
C83   C     C_R   0.422132 0.864375 0.945622 0.547426
C84   C     C_R   0.919919 0.456271 0.591386 0.011311
C85   C     C_R   0.543700 0.463670 0.591374 0.011312
C86   C     C_R   0.536330 0.080029 0.591375 0.011309
C87   C     C_R   0.456220 0.919852 0.091405 0.011320
C88   C     C_R   0.463656 0.543702 0.091380 0.011324
C89   C     C_R   0.422206 0.864062 0.054732 0.544810
C90   C     C_R   0.079981 0.536324 0.091363 0.011278
C91   C     C_R   0.935597 0.388864 0.612313 -0.144407
C92   C     C_R   0.611078 0.546790 0.612290 -0.144417
C93   C     C_R   0.453220 0.064304 0.612294 -0.144417
C94   C     C_R   0.388778 0.935449 0.112345 -0.144392
C95   C     C_R   0.546786 0.611059 0.112295 -0.144461
C96   C     C_R   0.064182 0.453182 0.112278 -0.144470
C97   C     C_R   0.960201 0.403710 0.651296 -0.126495
C98   C     C_R   0.596211 0.556585 0.651269 -0.126497
C99   C     C_R   0.443424 0.039637 0.651272 -0.126497
C100  C     C_R   0.981167 0.494482 0.712776 0.350280
C101  C     C_R   0.403599 0.959983 0.151337 -0.126489
C102  C     C_R   0.556550 0.596211 0.151280 -0.126505
C103  C     C_R   0.039540 0.443399 0.151258 -0.126517
C104  C     C_R   0.971085 0.487129 0.670279 0.024038
C105  C     C_R   0.512800 0.484048 0.670256 0.024036
C106  C     C_R   0.515949 0.028739 0.670256 0.024037
C107  C     C_R   0.487022 0.970866 0.170314 0.024041
C108  C     C_R   0.483969 0.512838 0.170274 0.024041
C109  C     C_R   0.028722 0.515964 0.170247 0.024047
C110  C     C_R   0.967235 0.560487 0.648605 -0.118659
C111  C     C_R   0.505444 0.486801 0.712751 0.350296
C112  C     C_R   0.439466 0.406805 0.648589 -0.118662
C113  C     C_R   0.593182 0.032631 0.648586 -0.118657
C114  C     C_R   0.560396 0.967061 0.148635 -0.118674
C115  C     C_R   0.406706 0.439518 0.148609 -0.118665
C116  C     C_R   0.032653 0.593221 0.148580 -0.118642
C117  C     C_R   0.942980 0.546783 0.609052 -0.022595
C118  C     C_R   0.453188 0.396220 0.609040 -0.022600
C119  C     C_R   0.603769 0.056947 0.609037 -0.022597
C120  C     C_R   0.546718 0.942897 0.109073 -0.022635
C121  C     C_R   0.396169 0.453222 0.109055 -0.022619
C122  C     C_R   0.513200 0.018631 0.712752 0.350286
C123  C     C_R   0.056946 0.603796 0.109029 -0.022547
C124  C     C_R   0.992648 0.503643 0.791249 0.348886
C125  C     C_R   0.496317 0.489120 0.791226 0.348906
C126  C     C_R   0.510905 0.007208 0.791227 0.348899
C127  C     C_R   0.503560 0.992417 0.291283 0.348889
C128  C     C_R   0.489032 0.496372 0.291245 0.348896
C129  C     C_R   0.007197 0.510911 0.291218 0.348917
C130  C     C_R   0.941984 0.627670 0.587372 0.051421
C131  C     C_R   0.995468 0.662787 0.552739 -0.066526
C132  C     C_R   0.995054 0.739401 0.532442 -0.112654
Cr1   Cr    Cr6+3 0.522350 0.263930 0.500020 1.029665
Cr2   Cr    Cr6+3 0.736070 0.258420 0.500020 1.029663
Cr3   Cr    Cr6+3 0.741580 0.477650 0.500020 1.029673
Cr4   Cr    Cr6+3 0.263930 0.522350 0.000020 1.029695
Cr5   Cr    Cr6+3 0.258420 0.736070 0.000020 1.029625
Cr6   Cr    Cr6+3 0.477650 0.741580 0.000020 1.029721
H1    H     H_    0.922205 0.320808 0.599284 0.136551
H2    H     H_    0.385046 0.039332 0.406666 0.128369
H3    H     H_    0.654387 0.614931 0.406639 0.128378
H4    H     H_    0.960503 0.345599 0.406619 0.128375
H5    H     H_    0.965965 0.347194 0.666928 0.138602
H6    H     H_    0.652709 0.618892 0.666894 0.138609
H7    H     H_    0.381127 0.033843 0.666900 0.138606
H8    H     H_    0.347067 0.965702 0.166975 0.138603
H9    H     H_    0.618873 0.652692 0.166903 0.138608
H10   H     H_    0.033697 0.381076 0.166884 0.138592
H11   H     H_    0.980825 0.627669 0.662642 0.135011
H12   H     H_    0.679129 0.601457 0.599260 0.136528
H13   H     H_    0.372287 0.353212 0.662628 0.135006
H14   H     H_    0.646766 0.019029 0.662622 0.135006
H15   H     H_    0.627571 0.980622 0.162667 0.135052
H16   H     H_    0.353064 0.372366 0.162651 0.135046
H17   H     H_    0.019091 0.646825 0.162621 0.134972
H18   H     H_    0.979003 0.362101 0.840531 0.138861
H19   H     H_    0.637858 0.617026 0.840502 0.138854
H20   H     H_    0.383023 0.020881 0.840505 0.138860
H21   H     H_    0.362041 0.978813 0.340564 0.138865
H22   H     H_    0.616964 0.637901 0.340518 0.138856
H23   H     H_    0.398563 0.077706 0.599267 0.136545
H24   H     H_    0.020832 0.382994 0.340490 0.138866
H25   H     H_    0.102547 0.685335 0.903906 0.128647
H26   H     H_    0.314689 0.417192 0.903910 0.128659
H27   H     H_    0.582793 0.897467 0.903908 0.128669
H28   H     H_    0.685318 0.102515 0.403918 0.128661
H29   H     H_    0.417170 0.314705 0.403917 0.128647
H30   H     H_    0.897470 0.582799 0.403907 0.128651
H31   H     H_    0.042524 0.662743 0.837546 0.138644
H32   H     H_    0.337261 0.379818 0.837537 0.138643
H33   H     H_    0.620179 0.957418 0.837536 0.138648
H34   H     H_    0.320716 0.922048 0.099319 0.136609
H35   H     H_    0.662686 0.042380 0.337573 0.138642
H36   H     H_    0.379753 0.337303 0.337553 0.138642
H37   H     H_    0.957423 0.620191 0.337533 0.138642
H38   H     H_    0.037336 0.630762 0.541488 0.095984
H39   H     H_    0.036012 0.765805 0.505714 0.099578
H40   H     H_    0.941855 0.841442 0.530941 0.100792
H41   H     H_    0.848498 0.781519 0.592265 0.106986
H42   H     H_    0.848019 0.645956 0.628283 0.104662
H43   H     H_    0.369208 0.406484 0.541457 0.095980
H44   H     H_    0.234217 0.270044 0.505691 0.099556
H45   H     H_    0.601489 0.679075 0.099255 0.136382
H46   H     H_    0.158625 0.100281 0.530952 0.100786
H47   H     H_    0.218545 0.066952 0.592299 0.106982
H48   H     H_    0.354062 0.202106 0.628309 0.104680
H49   H     H_    0.593493 0.962727 0.541446 0.095979
H50   H     H_    0.729923 0.964172 0.505673 0.099560
H51   H     H_    0.899686 0.058303 0.530935 0.100791
H52   H     H_    0.933023 0.151514 0.592291 0.106992
H53   H     H_    0.797881 0.151883 0.628308 0.104662
H54   H     H_    0.645549 0.847507 0.128164 0.104624
H55   H     H_    0.781112 0.848030 0.092114 0.106893
H56   H     H_    0.077508 0.398489 0.099243 0.136406
H57   H     H_    0.841392 0.941949 0.030917 0.100786
H58   H     H_    0.766082 0.036559 0.005835 0.099625
H59   H     H_    0.630998 0.037767 0.041629 0.096002
H60   H     H_    0.201987 0.354520 0.128208 0.104668
H61   H     H_    0.066821 0.218979 0.092201 0.106879
H62   H     H_    0.100254 0.158636 0.030981 0.100776
H63   H     H_    0.270102 0.233861 0.005834 0.099609
H64   H     H_    0.406535 0.368893 0.041591 0.096006
H65   H     H_    0.151656 0.797885 0.128360 0.104621
H66   H     H_    0.151284 0.933015 0.092348 0.107049
H67   H     H_    0.039407 0.385067 0.906648 0.128366
H68   H     H_    0.058375 0.899706 0.030922 0.100825
H69   H     H_    0.964532 0.729993 0.005587 0.099532
H70   H     H_    0.963025 0.593570 0.041362 0.095940
H71   H     H_    0.614914 0.654405 0.906630 0.128382
H72   H     H_    0.345629 0.960547 0.906633 0.128368
N1    N     N_R   0.977488 0.421950 0.772178 -0.226194
N2    N     N_R   0.417204 0.971171 0.233804 -0.224868
N3    N     N_R   0.554280 0.582599 0.233749 -0.224862
N4    N     N_R   0.028313 0.445751 0.233728 -0.224858
N5    N     N_R   0.995470 0.576025 0.731813 -0.226345
N6    N     N_R   0.423977 0.419469 0.731800 -0.226347
N7    N     N_R   0.580487 0.004412 0.731796 -0.226335
N8    N     N_R   0.575944 0.995290 0.231844 -0.226327
N9    N     N_R   0.419378 0.424026 0.231819 -0.226339
N10   N     N_R   0.004352 0.580461 0.231785 -0.226344
N11   N     N_R   0.001691 0.580733 0.770305 -0.225140
N12   N     N_R   0.577931 0.555752 0.772144 -0.226182
N13   N     N_R   0.419284 0.420981 0.770293 -0.225146
N14   N     N_R   0.578984 0.998217 0.770288 -0.225133
N15   N     N_R   0.580664 0.001519 0.270335 -0.225138
N16   N     N_R   0.420892 0.419334 0.270311 -0.225147
N17   N     N_R   0.998152 0.578952 0.270278 -0.225128
N18   N     N_R   0.444320 0.022275 0.772149 -0.226183
N19   N     N_R   0.421840 0.977185 0.272216 -0.226199
N20   N     N_R   0.555661 0.577992 0.272162 -0.226172
N21   N     N_R   0.022330 0.444376 0.272142 -0.226188
N22   N     N_R   0.971483 0.417327 0.733765 -0.224864
N23   N     N_R   0.582539 0.554372 0.733731 -0.224880
N24   N     N_R   0.445690 0.028253 0.733736 -0.224873
O1    O     O_R   0.498680 0.159540 0.541860 -0.516114
O2    O     O_R   0.358060 0.532760 0.040030 -0.489862
O3    O     O_R   0.174700 0.641940 0.040030 -0.489934
O4    O     O_R   0.467240 0.825300 0.040030 -0.489845
O5    O     O_R   0.498590 0.161190 0.456930 -0.522418
O6    O     O_R   0.838810 0.337400 0.456930 -0.522424
O7    O     O_R   0.662600 0.501410 0.456930 -0.522430
O8    O     O_R   0.161190 0.498590 0.956930 -0.522425
O9    O     O_R   0.337400 0.838810 0.956930 -0.522429
O10   O     O_R   0.501410 0.662600 0.956930 -0.522433
O11   O     O_R   0.532680 0.359580 0.461300 -0.505422
O12   O     O_R   0.840460 0.339140 0.541860 -0.516114
O13   O     O_R   0.640420 0.173100 0.461300 -0.505440
O14   O     O_R   0.826900 0.467320 0.461300 -0.505418
O15   O     O_R   0.359580 0.532680 0.961300 -0.505402
O16   O     O_R   0.173100 0.640420 0.961300 -0.505453
O17   O     O_R   0.467320 0.826900 0.961300 -0.505391
O18   O     O_3   0.666667 0.333333 0.499990 -0.243196
O19   O     O_3   0.333333 0.666667 0.999990 -0.243205
O20   O     O_R   0.660860 0.501320 0.541860 -0.516122
O21   O     O_R   0.159540 0.498680 0.041860 -0.516104
O22   O     O_R   0.339140 0.840460 0.041860 -0.516119
O23   O     O_R   0.501320 0.660860 0.041860 -0.516138
O24   O     O_R   0.532760 0.358060 0.540030 -0.489901
O25   O     O_R   0.641940 0.174700 0.540030 -0.489904
O26   O     O_R   0.825300 0.467240 0.540030 -0.489893

loop_
_geom_bond_atom_site_label_1
_geom_bond_atom_site_label_2
_ccdc_geom_bond_type
C101  C107  A    
C40   C47   A    
C112  C118  A    
C55   C62   A    
C100  N5    A    
C115  C121  A    
C122  N7    A    
C11   H48   S    
C37   H69   S    
C90   C123  A    
C2    C107  S    
Cr4   O21   S    
C50   H4    S    
C19   C20   A    
C113  H14   S    
C79   O5    A    
Cr3   O18   S    
C110  H11   S    
C108  C115  A    
C124  N1    A    
Cr5   O16   S    
C92   C98   A    
C7    C8    A    
C107  C114  A    
C57   H30   S    
C125  N12   A    
C78   C90   S    
Cr3   O14   S    
C67   C88   S    
C29   C30   A    
C98   C105  A    
C38   H70   S    
C77   O7    A    
C78   O21   A    
C57   C76   A    
C40   H20   S    
C28   C29   A    
C116  C123  A    
C3    H40   S    
C30   C31   A    
C102  H9    S    
C126  N14   A    
C15   C16   A    
C62   H36   S    
C87   C94   A    
C83   O9    A    
C131  H38   S    
C127  N19   A    
C10   H47   S    
C82   O8    A    
C44   C71   A    
C17   C18   A    
Cr1   O1    S    
C13   N3    A    
C99   C106  A    
C80   O6    A    
C97   H5    S    
C116  H17   S    
C105  C111  S    
C109  C116  A    
C94   H34   S    
C113  C119  A    
C24   N4    A    
C85   C92   A    
C100  C104  S    
C69   C128  S    
C34   H66   S    
Cr2   O25   S    
C31   H64   S    
C89   O22   A    
C49   H3    S    
C23   H58   S    
C83   O17   A    
C80   O14   A    
C51   H25   S    
C35   C64   A    
C26   C121  S    
Cr2   O18   S    
Cr6   O19   S    
C9    C10   A    
C93   C99   A    
N8    N15   A    
C46   C72   A    
C72   C81   S    
C95   C102  A    
C132  H39   S    
C71   C82   S    
C55   C75   A    
N7    N14   A    
C96   H56   S    
C99   H7    S    
Cr6   O23   S    
C60   C66   A    
C26   C31   A    
Cr3   O20   S    
C54   C74   A    
C21   C22   A    
C39   H19   S    
C58   C64   A    
C39   C65   A    
C32   C123  S    
C106  C122  S    
C56   O26   A    
C27   H60   S    
C51   C71   A    
C54   H28   S    
C13   C108  S    
C19   C25   A    
N4    N21   A    
N5    N11   A    
C110  C117  A    
C53   C60   A    
C103  H10   S    
C56   C84   S    
C41   C68   A    
C125  N13   A    
C1    C85   S    
C101  H8    S    
C53   C73   A    
C67   O2    A    
C28   H61   S    
Cr1   O11   S    
N1    N22   A    
C7    H43   S    
C106  C113  A    
C18   H53   S    
C97   C104  A    
C48   C74   A    
Cr4   O19   S    
C100  N22   A    
C58   H31   S    
C61   H35   S    
C35   H18   S    
C94   C101  A    
Cr6   O17   S    
C16   H51   S    
C6    C11   A    
C48   H2    S    
N2    N19   A    
C8    C9    A    
C47   C73   A    
C64   C124  S    
C56   O12   A    
C33   H65   S    
C42   C69   A    
C91   C97   A    
C3    C132  A    
N10   N17   A    
C65   C125  S    
C5    H42   S    
C37   C38   A    
C52   C72   A    
C86   C93   A    
C50   C76   A    
C52   C59   A    
C12   C119  S    
C63   H37   S    
C68   C127  S    
C63   C70   A    
C93   H23   S    
C29   H62   S    
C129  N17   A    
C49   C75   A    
C33   C34   A    
C26   C27   A    
C112  H13   S    
C55   H29   S    
C51   C58   A    
C36   H68   S    
C111  N6    A    
N12   N23   A    
C102  C108  A    
C117  C130  S    
C75   C77   S    
Cr1   O18   S    
C35   C44   A    
C86   C119  A    
C52   H26   S    
C39   C46   A    
C91   H1    S    
C24   N10   A    
C53   H27   S    
C5    C130  A    
C122  N24   A    
C105  C112  A    
C12   C14   A    
C19   C120  S    
C43   C70   A    
C32   C38   A    
C74   C79   S    
C87   C89   S    
C115  H16   S    
C92   H12   S    
C22   H57   S    
C13   N9    A    
C76   C80   S    
C4    H41   S    
C3    C4    A    
C59   H32   S    
Cr2   O13   S    
C45   O25   A    
Cr6   O10   S    
C1    O20   A    
C81   O10   A    
C127  N15   A    
C1    O24   A    
C8    H44   S    
C114  C120  A    
C30   H63   S    
C36   C37   A    
C128  N20   A    
C114  H15   S    
Cr2   O12   S    
C98   H6    S    
C22   C23   A    
C60   H33   S    
Cr2   O6    S    
C89   O4    A    
C82   O16   A    
N18   N24   A    
C42   H22   S    
C24   C109  S    
C45   O1    A    
C57   C63   A    
C81   O15   A    
C88   C121  A    
C20   H54   S    
C43   C50   A    
C90   C96   A    
C6    C7    A    
C54   C61   A    
C17   H52   S    
C78   O3    A    
C46   H71   S    
C15   H50   S    
C129  N21   A    
C2    N2    A    
Cr4   O8    S    
C103  C109  A    
C45   C86   S    
C32   C33   A    
Cr1   O24   S    
C77   O11   A    
C130  C131  A    
N6    N13   A    
C87   C120  A    
C9    H46   S    
Cr3   O7    S    
C59   C65   A    
C104  C110  A    
C14   H49   S    
C61   C68   A    
C95   H45   S    
C16   C17   A    
C84   C91   A    
Cr4   O2    S    
C44   H67   S    
C111  N23   A    
C41   C48   A    
C6    C118  S    
Cr6   O4    S    
C34   C36   A    
C23   C25   A    
N9    N16   A    
Cr5   O3    S    
C85   C118  A    
Cr4   O15   S    
Cr5   O19   S    
C88   C95   A    
Cr5   O22   S    
C25   H59   S    
C10   C11   A    
C84   C117  A    
C42   C49   A    
C126  N18   A    
Cr5   O9    S    
C43   H24   S    
C66   C126  S    
C4    C5    A    
C20   C21   A    
C62   C69   A    
C128  N16   A    
C70   C129  S    
C47   H72   S    
C12   C18   A    
C27   C28   A    
C2    N8    A    
Cr3   O26   S    
C14   C15   A    
C40   C66   A    
Cr1   O5    S    
C21   H55   S    
C96   C103  A    
C67   O23   A    
C73   C83   S    
C41   H21   S    
N3    N20   A    
C131  C132  A    
C79   O13   A    
C124  N11   A    
