data_mof_unit_51213.cif
_audit_creation_date              2012-10-26T18:43:49-0400
_audit_creation_method            fapswitch 2.2
_symmetry_space_group_name_H-M    P1
_symmetry_Int_Tables_number       1
_space_group_crystal_system       triclinic
_cell_length_a                    9.58157
_cell_length_b                    10.899176
_cell_length_c                    17.113879
_cell_angle_alpha                 90.973765
_cell_angle_beta                  85.177411
_cell_angle_gamma                 88.721188
_cell_volume                      1780.13305413

loop_
_atom_site_label
_atom_site_type_symbol
_atom_type_description
_atom_site_fract_x
_atom_site_fract_y
_atom_site_fract_z
_atom_type_partial_charge
C1    C     C_R   0.498580 0.737087 0.501334 0.534548
C2    C     C_R   0.525866 0.534808 0.266202 0.030094
C3    C     C_R   0.379111 0.942357 0.520924 -0.058951
C4    C     C_R   0.480638 0.499802 0.650683 0.583596
C5    C     C_R   0.499130 0.869479 0.505310 -0.035991
C6    C     C_R   0.627978 0.929276 0.497854 -0.125747
C7    C     C_R   0.634622 0.057636 0.503428 0.030045
C8    C     C_R   0.507766 0.129864 0.510865 0.000148
C9    C     C_R   0.384365 0.066349 0.522875 -0.035956
C10   C     C_3   0.230417 0.086911 0.537805 -0.021146
C11   C     C_3   0.222057 0.943879 0.536382 0.082751
C12   C     C_R   0.339680 0.561853 0.773004 -0.119724
C13   C     C_R   0.935754 0.418148 0.453754 0.177843
C14   C     C_R   0.916264 0.572506 0.551142 0.210056
C15   C     C_R   0.065220 0.571498 0.551283 0.004365
C16   C     C_R   0.501867 0.262817 0.503827 0.572228
C17   C     C_R   0.083083 0.420173 0.452773 0.135483
C18   C     C_3   0.103275 0.413640 0.365576 -0.240272
C19   C     C_3   0.944800 0.408261 0.366117 -0.069360
C20   C     C_R   0.518599 0.504939 0.349743 0.559527
C21   C     C_R   0.465700 0.510731 0.737043 -0.027745
C22   C     C_R   0.576348 0.481213 0.783736 0.042132
C23   C     C_R   0.434057 0.658711 0.164085 0.103878
C24   C     C_R   0.560498 0.510025 0.863776 -0.123955
C25   C     C_R   0.436053 0.564244 0.899221 -0.009303
C26   C     C_R   0.322867 0.589073 0.853550 0.068771
C27   C     C_2   0.707523 0.415939 0.752926 0.592557
C28   C     C_2   0.776562 0.106823 0.504297 0.598779
C29   C     C_2   0.188078 0.151501 0.615536 0.611648
C30   C     C_2   0.163871 0.888050 0.613119 0.635013
C31   C     C_2   0.187758 0.646875 0.886585 0.594999
C32   C     C_R   0.433144 0.626049 0.242567 -0.105047
C33   C     C_R   0.621672 0.476501 0.210118 0.071973
C34   C     C_R   0.623791 0.510024 0.131591 -0.117431
C35   C     C_R   0.529674 0.599113 0.108101 0.017067
C36   C     C_2   0.422447 0.580376 0.985224 -0.091272
C37   C     C_2   0.528862 0.620279 0.023966 -0.136316
Cu1   Cu    Cu3+1 0.359330 0.500020 0.500000 0.963042
Cu2   Cu    Cu3+1 0.640670 0.499980 0.500000 1.053327
H1    H     H_    0.695990 0.463014 0.088245 0.123987
H2    H     H_    0.255029 0.585218 0.737346 0.198390
H3    H     H_    0.328075 0.548432 0.017546 0.156160
H4    H     H_    0.644040 0.484269 0.899692 0.151001
H5    H     H_    0.917378 0.399213 0.755052 0.348076
H6    H     H_    0.976421 0.094730 0.459727 0.339490
H7    H     H_    0.029517 0.214554 0.691368 0.350570
H8    H     H_    0.350710 0.822494 0.646564 0.305681
H9    H     H_    0.199791 0.931765 0.416925 0.228805
H10   H     H_    0.164390 0.802154 0.465723 0.246844
H11   H     H_    0.859346 0.635821 0.660865 0.256395
H12   H     H_    0.725168 0.875940 0.489744 0.186318
H13   H     H_    0.859802 0.742912 0.590498 0.254335
H14   H     H_    0.962353 0.218268 0.354558 0.251281
H15   H     H_    0.796757 0.275214 0.363971 0.285489
H16   H     H_    0.814231 0.400392 0.211188 0.254290
H17   H     H_    0.685824 0.299386 0.201627 0.241031
H18   H     H_    0.982009 0.677144 0.874405 0.358479
H19   H     H_    0.270512 0.717071 0.105502 0.268305
H20   H     H_    0.397688 0.821188 0.113158 0.257285
H21   H     H_    0.189275 0.134159 0.487365 0.087878
H22   H     H_    0.113970 0.630568 0.591866 0.157406
H23   H     H_    0.144876 0.499844 0.339904 0.139298
H24   H     H_    0.360018 0.672849 0.285516 0.140113
H25   H     H_    0.161886 0.328906 0.343921 0.141959
H26   H     H_    0.896539 0.487815 0.337776 0.182456
H27   H     H_    0.625842 0.647477 0.992137 0.141276
N1    N     N_R   0.852130 0.499070 0.499500 -0.205381
N2    N     N_R   0.148040 0.499110 0.499500 -0.260589
N3    N     N_3   0.152053 0.897627 0.469127 -0.606929
N4    N     N_3   0.833117 0.652892 0.603921 -0.544044
N5    N     N_3   0.897607 0.289775 0.338020 -0.608787
N6    N     N_3   0.711820 0.379028 0.231520 -0.610383
N7    N     N_3   0.339532 0.754020 0.143170 -0.615179
O1    O     O_R   0.381190 0.680360 0.500000 -0.525068
O2    O     O_R   0.834971 0.449563 0.780302 -0.690190
O3    O     O_2   0.803358 0.181726 0.554501 -0.397021
O4    O     O_R   0.883202 0.057431 0.451888 -0.712712
O5    O     O_2   0.276391 0.186332 0.658067 -0.487068
O6    O     O_R   0.046040 0.171979 0.638198 -0.605683
O7    O     O_2   0.038385 0.898745 0.631722 -0.431033
O8    O     O_R   0.247310 0.825924 0.663785 -0.669678
O9    O     O_2   0.181585 0.708364 0.947255 -0.523495
O10   O     O_R   0.067181 0.633331 0.846741 -0.663229
O11   O     O_R   0.618770 0.680320 0.499990 -0.494707
O12   O     O_R   0.367430 0.500040 0.613600 -0.498114
O13   O     O_R   0.605020 0.500000 0.613590 -0.434435
O14   O     O_R   0.381230 0.319680 0.500010 -0.498677
O15   O     O_R   0.618810 0.319640 0.500000 -0.469919
O16   O     O_R   0.394980 0.500000 0.386410 -0.529763
O17   O     O_R   0.632570 0.499960 0.386400 -0.495265
O18   O     O_2   0.704033 0.330364 0.706038 -0.430898

loop_
_geom_bond_atom_site_label_1
_geom_bond_atom_site_label_2
_ccdc_geom_bond_type
C19   N5    S    
H9    N3    S    
C7    C8    A    
C1    O11   A    
Cu1   O16   S    
C31   O9    D    
C1    C5    S    
C1    O1    A    
C36   C37   D    
C35   C37   S    
Cu2   O11   S    
C18   C19   S    
C13   N1    A    
C5    C6    A    
C4    O13   A    
C31   O10   S    
C2    C32   A    
C34   C35   A    
C33   N6    S    
C36   H3    S    
C29   O5    D    
C11   C30   S    
C8    C9    A    
H17   N6    S    
C16   O14   A    
C14   N1    A    
H18   O10   S    
C27   O18   D    
C6    H12   S    
C9    C10   S    
H20   N7    S    
Cu2   O17   S    
H16   N6    S    
C30   O7    D    
C26   C31   S    
C8    C16   S    
H10   N3    S    
C21   C22   A    
C14   N4    S    
Cu2   O15   S    
C23   N7    S    
C27   O2    S    
C33   C34   A    
Cu1   Cu2   S    
C13   C19   S    
Cu1   O12   S    
C2    C20   S    
H13   N4    S    
C24   C25   A    
C18   H23   S    
C4    O12   A    
C25   C26   A    
C20   O17   A    
C12   C21   A    
C7    C28   S    
C12   C26   A    
H5    O2    S    
C10   H21   S    
C12   H2    S    
C3    C9    A    
C29   O6    S    
C37   H27   S    
C17   C18   S    
C15   H22   S    
C28   O4    S    
C2    C33   A    
Cu1   N2    S    
C23   C35   A    
C22   C27   S    
C22   C24   A    
C28   O3    D    
Cu1   O1    S    
C17   N2    A    
Cu2   N1    S    
H15   N5    S    
C32   H24   S    
C3    C5    A    
C11   N3    S    
C6    C7    A    
C20   O16   A    
C13   C17   A    
Cu1   O14   S    
C23   C32   A    
C30   O8    S    
H11   N4    S    
C4    C21   S    
C10   C29   S    
C18   H25   S    
H7    O6    S    
C15   N2    A    
C19   H26   S    
H8    O8    S    
C3    C11   S    
C10   C11   S    
C25   C36   S    
C16   O15   A    
C24   H4    S    
C14   C15   A    
C34   H1    S    
H6    O4    S    
Cu2   O13   S    
H19   N7    S    
H14   N5    S    
