data_mof_unit_10008.cif
_audit_creation_date              2012-12-10T18:34:33-0500
_audit_creation_method            fapswitch 2.2
_symmetry_space_group_name_H-M    P1
_symmetry_Int_Tables_number       1
_space_group_crystal_system       triclinic
_cell_length_a                    14.895046
_cell_length_b                    15.252776
_cell_length_c                    15.723552
_cell_angle_alpha                 89.08145
_cell_angle_beta                  103.834885
_cell_angle_gamma                 83.336712
_cell_volume                      3441.63051161

loop_
_atom_site_label
_atom_site_type_symbol
_atom_type_description
_atom_site_fract_x
_atom_site_fract_y
_atom_site_fract_z
_atom_type_partial_charge
C1    C     C_R   0.442062 0.663464 0.487832 0.910103
C2    C     C_R   0.557056 0.337426 0.521403 0.903620
C3    C     C_R   0.279031 0.872606 0.491672 -0.298378
C4    C     C_R   0.705021 0.123142 0.617649 -0.290348
C5    C     C_R   0.309925 0.786340 0.474105 0.421417
C6    C     C_R   0.680970 0.208695 0.579063 0.431832
C7    C     C_R   0.470389 0.818110 0.522952 0.362583
C8    C     C_R   0.520224 0.199027 0.586308 0.382656
C9    C     C_R   0.439104 0.899948 0.553343 -0.045394
C10   C     C_R   0.540646 0.107079 0.607350 -0.031240
C11   C     C_R   0.342761 0.929331 0.530580 -0.032543
C12   C     C_R   0.636009 0.070879 0.625838 -0.047503
C13   C     C_R   0.501676 0.956193 0.599750 -0.095866
C14   C     C_R   0.471240 0.047418 0.600991 -0.100670
C15   C     C_R   0.373232 0.071899 0.587985 0.490350
C16   C     C_R   0.594429 0.925286 0.644880 0.519208
C17   C     C_R   0.310842 0.014005 0.550326 -0.235745
C18   C     C_R   0.661792 0.982300 0.653379 -0.219671
C19   C     C_R   0.847453 0.632905 0.635622 0.394682
C20   C     C_R   0.156765 0.359488 0.370494 0.416648
C21   C     C_R   0.758069 0.605771 0.616365 -0.107158
C22   C     C_R   0.247935 0.381219 0.395965 -0.122377
C23   C     C_R   0.499510 0.503044 0.661709 0.868966
C24   C     C_R   0.499886 0.499155 0.338021 0.877127
C25   C     C_R   0.790240 0.519986 0.500648 -0.035692
C26   C     C_R   0.203327 0.494331 0.483897 -0.042607
C27   C     C_R   0.881186 0.544155 0.515219 -0.118971
C28   C     C_R   0.108654 0.480775 0.456686 -0.113881
C29   C     C_R   0.908596 0.604292 0.582336 -0.026266
C30   C     C_R   0.084677 0.413830 0.396093 -0.037221
C31   C     C_R   0.946575 0.507284 0.468377 0.069608
C32   C     C_R   0.038765 0.529115 0.490894 0.067864
C33   C     C_R   0.058343 0.599464 0.546347 -0.379492
C34   C     C_R   0.922422 0.450253 0.399074 -0.395642
C35   C     C_R   0.996321 0.635236 0.594731 0.513758
C36   C     C_R   0.990035 0.402145 0.363008 0.522256
C37   C     C_3   0.448010 0.570995 0.017984 0.442946
C38   C     C_3   0.555967 0.432388 0.982599 0.438466
C39   C     C_3   0.535035 0.578704 0.982118 -0.516743
C40   C     C_3   0.468863 0.424728 0.018382 -0.524977
C41   C     C_1   0.499867 0.506720 0.750585 -0.194428
C42   C     C_1   0.500321 0.496541 0.249249 -0.182347
C43   C     C_3   0.415242 0.500792 0.953060 0.432426
C44   C     C_3   0.588749 0.502669 0.047579 0.438816
C45   C     C_3   0.501593 0.507050 0.917088 -0.040367
C46   C     C_3   0.502283 0.496365 0.083512 -0.041272
C47   C     C_1   0.500558 0.508348 0.825976 0.061522
C48   C     C_1   0.501507 0.495238 0.174251 0.069931
C49   C     C_R   0.406637 0.757517 0.492282 -0.316324
C50   C     C_R   0.587122 0.246255 0.560174 -0.317495
H1    H     H_    0.561078 0.640217 0.964811 0.162478
H2    H     H_    0.442645 0.363219 0.035431 0.163046
H3    H     H_    0.228290 0.541706 0.530981 0.163807
H4    H     H_    0.763794 0.474163 0.452476 0.149132
H5    H     H_    0.303265 0.345264 0.372183 0.145638
H6    H     H_    0.709204 0.625245 0.655460 0.156576
H7    H     H_    0.120846 0.629674 0.550946 0.163199
H8    H     H_    0.850530 0.444744 0.370525 0.138299
H9    H     H_    0.236679 0.034265 0.540419 0.167458
H10   H     H_    0.734437 0.956688 0.678684 0.152528
H11   H     H_    0.204792 0.894157 0.477341 0.162855
H12   H     H_    0.777862 0.095959 0.637332 0.162247
N1    N     N_R   0.731710 0.552730 0.549140 -0.114333
N2    N     N_R   0.268290 0.447270 0.450860 -0.118573
O1    O     O_R   0.383110 0.605620 0.475230 -0.569970
O2    O     O_R   0.616890 0.394380 0.524770 -0.565849
O3    O     O_R   0.531900 0.639510 0.506760 -0.560328
O4    O     O_R   0.468100 0.360490 0.493240 -0.576939
O5    O     O_R   0.425620 0.483070 0.607460 -0.620165
O6    O     O_R   0.574380 0.516930 0.392540 -0.619906
O7    O     O_R   0.574400 0.516960 0.638990 -0.613230
O8    O     O_R   0.425600 0.483040 0.361010 -0.617346
Zn1   Zn    Zn3+2 0.400660 0.477370 0.478940 0.965777
Zn2   Zn    Zn3+2 0.599340 0.522630 0.521060 0.980300
O9    O     O_3   0.881373 0.675852 0.712038 -0.586587
C51   C     C_3   0.816966 0.746550 0.725303 0.182182
H13   H     H_    0.764109 0.721085 0.755233 0.164207
H14   H     H_    0.782687 0.785171 0.662911 0.181359
C52   C     C_3   0.867859 0.808573 0.789224 -0.823606
H15   H     H_    0.916344 0.841071 0.759047 0.260075
H16   H     H_    0.816871 0.860194 0.806150 0.216292
H17   H     H_    0.907748 0.771197 0.850393 0.250335
O10   O     O_3   0.137153 0.287058 0.319853 -0.558682
C53   C     C_3   0.194514 0.209574 0.359932 0.119906
H18   H     H_    0.209054 0.208458 0.433036 0.161140
H19   H     H_    0.261541 0.203728 0.339834 0.135300
C54   C     C_3   0.146125 0.129108 0.329730 -0.832471
H20   H     H_    0.127971 0.128561 0.257012 0.262940
H21   H     H_    0.193029 0.067881 0.356637 0.202287
H22   H     H_    0.081682 0.130410 0.353697 0.247733
O11   O     O_3   0.389642 0.639592 0.043925 -0.608278
C55   C     C_3   0.362429 0.707214 0.977514 0.122070
H23   H     H_    0.333448 0.680717 0.912391 0.163408
H24   H     H_    0.422777 0.742581 0.973975 0.141962
C56   C     C_3   0.287470 0.773278 0.999313 -0.853947
H25   H     H_    0.314013 0.800415 0.064424 0.259855
H26   H     H_    0.267406 0.828557 0.949009 0.207637
H27   H     H_    0.224995 0.740408 0.000535 0.257722
O12   O     O_3   0.613753 0.363583 0.956204 -0.608319
C57   C     C_3   0.645706 0.298259 0.024570 0.109652
H28   H     H_    0.586681 0.265493 0.036675 0.137530
H29   H     H_    0.682319 0.326625 0.086225 0.172589
C58   C     C_3   0.714070 0.228416 0.998020 -0.838688
H30   H     H_    0.775164 0.258662 0.987622 0.260851
H31   H     H_    0.738399 0.175377 0.050426 0.204484
H32   H     H_    0.679726 0.198867 0.936400 0.260742
O13   O     O_3   0.678723 0.499075 0.103566 -0.620534
C59   C     C_3   0.740623 0.525607 0.055696 0.092858
H33   H     H_    0.727039 0.598288 0.041645 0.149274
H34   H     H_    0.734415 0.491221 0.992887 0.172558
C60   C     C_3   0.840184 0.503293 0.110027 -0.789959
H35   H     H_    0.857836 0.430553 0.119529 0.268147
H36   H     H_    0.889038 0.529374 0.075440 0.207252
H37   H     H_    0.848346 0.533149 0.175003 0.264253
O14   O     O_3   0.325372 0.504549 0.896907 -0.619870
C61   C     C_3   0.262857 0.479868 0.944947 0.111924
H38   H     H_    0.268890 0.515626 0.006956 0.172536
H39   H     H_    0.275791 0.407408 0.960437 0.146137
C62   C     C_3   0.163675 0.502234 0.889835 -0.818355
H40   H     H_    0.155267 0.469319 0.826382 0.259802
H41   H     H_    0.114008 0.479430 0.925430 0.214611
H42   H     H_    0.147520 0.574798 0.877117 0.255100
O15   O     O_3   0.438846 0.245172 0.597886 -0.555966
C63   C     C_3   0.458256 0.280711 0.682315 0.179407
H43   H     H_    0.509518 0.328739 0.686952 0.119365
H44   H     H_    0.488310 0.228151 0.734783 0.105480
C64   C     C_3   0.368807 0.327545 0.700621 -0.718138
H45   H     H_    0.323542 0.279386 0.714874 0.243290
H46   H     H_    0.386067 0.368206 0.758820 0.215725
H47   H     H_    0.328757 0.370508 0.643347 0.274372
O16   O     O_3   0.563472 0.796955 0.523547 -0.561690
C65   C     C_3   0.578220 0.828775 0.443878 0.129093
H48   H     H_    0.561490 0.902039 0.436217 0.125196
H49   H     H_    0.535115 0.797957 0.386980 0.125342
C66   C     C_3   0.680276 0.805035 0.443959 -0.799758
H50   H     H_    0.698911 0.732178 0.450521 0.261028
H51   H     H_    0.693037 0.829659 0.381593 0.199777
H52   H     H_    0.725051 0.835709 0.499513 0.244763
O17   O     O_3   0.750088 0.260433 0.573640 -0.573688
C67   C     C_3   0.799305 0.227781 0.511900 0.091061
H53   H     H_    0.762672 0.256904 0.445689 0.130631
H54   H     H_    0.806948 0.154440 0.508671 0.121691
C68   C     C_3   0.896755 0.255618 0.536554 -0.815333
H55   H     H_    0.932950 0.229839 0.603982 0.261533
H56   H     H_    0.938005 0.228539 0.490659 0.201740
H57   H     H_    0.892591 0.328772 0.534088 0.261510
O18   O     O_3   0.245010 0.729051 0.444174 -0.594718
C69   C     C_3   0.211344 0.743423 0.352602 0.109554
H58   H     H_    0.269601 0.738762 0.318929 0.130075
H59   H     H_    0.169185 0.809410 0.336678 0.131130
C70   C     C_3   0.149360 0.673082 0.317394 -0.786178
H60   H     H_    0.091771 0.674021 0.351215 0.256253
H61   H     H_    0.119213 0.685879 0.245955 0.199883
H62   H     H_    0.190921 0.606811 0.328194 0.263016
O19   O     O_3   0.336519 0.139715 0.629854 -0.740385
H63   H     H_    0.375695 0.134961 0.690729 0.323452
O20   O     O_3   0.620321 0.841797 0.684251 -0.794353
H64   H     H_    0.563589 0.817121 0.691057 0.334662
O21   O     O_3   0.015279 0.707064 0.647047 -0.571099
C71   C     C_3   0.108366 0.697792 0.697963 0.136203
H65   H     H_    0.154432 0.722354 0.659163 0.145132
H66   H     H_    0.134459 0.628045 0.721692 0.144535
C72   C     C_3   0.113850 0.753992 0.777507 -0.819684
H67   H     H_    0.071124 0.729983 0.819872 0.267871
H68   H     H_    0.187228 0.749622 0.815722 0.202469
H69   H     H_    0.088327 0.824138 0.756416 0.252093
O22   O     O_3   0.966937 0.350085 0.290299 -0.554769
C73   C     C_3   0.882275 0.313816 0.282118 0.090292
H70   H     H_    0.822169 0.364408 0.253399 0.162222
H71   H     H_    0.875586 0.287015 0.346136 0.127075
C74   C     C_3   0.879139 0.238401 0.219833 -0.813550
H72   H     H_    0.937305 0.185487 0.246327 0.263108
H73   H     H_    0.812189 0.210445 0.211959 0.188553
H74   H     H_    0.884966 0.262739 0.154669 0.260440

loop_
_geom_bond_atom_site_label_1
_geom_bond_atom_site_label_2
_ccdc_geom_bond_type
C68   H57   S    
C39   H1    S    
C54   H20   S    
O20   H64   S    
C5    O18   S    
C27   C29   A    
C56   H25   S    
C24   C42   S    
C23   O5    A    
O18   C69   S    
C69   C70   S    
C74   H72   S    
C56   H27   S    
C24   O6    A    
C66   H50   S    
C60   H36   S    
C20   C30   A    
C61   H38   S    
C40   C46   S    
C74   H73   S    
C19   C21   A    
C51   H14   S    
C2    O4    A    
O21   C71   S    
C8    C10   A    
C70   H62   S    
C3    H11   S    
C68   H55   S    
O2    Zn2   S    
C4    H12   S    
O1    Zn1   S    
C59   H33   S    
C68   H56   S    
C25   N1    A    
C45   C47   S    
C6    O17   S    
C9    C13   A    
C57   H28   S    
C38   C45   S    
C26   N2    A    
C2    C50   S    
C43   O14   S    
C53   H18   S    
C73   C74   S    
O12   C57   S    
C61   H39   S    
C65   H48   S    
O6    Zn2   S    
C1    O1    A    
C70   H60   S    
C53   C54   S    
O5    Zn1   S    
C4    C12   A    
C58   H30   S    
C7    O16   S    
C39   C45   S    
O15   C63   S    
C73   H71   S    
C13   C14   A    
C21   H6    S    
C5    C49   A    
C57   H29   S    
C44   C46   S    
C62   H41   S    
C74   H74   S    
C46   C48   S    
C37   O11   S    
C27   C31   A    
C71   C72   S    
C23   O7    A    
C28   C32   A    
C72   H69   S    
C51   H13   S    
C7    C49   A    
C4    C6    A    
C10   C14   A    
O11   C55   S    
C52   H16   S    
C38   O12   S    
C3    C5    A    
O4    Zn1   S    
C40   H2    S    
C36   O22   S    
C6    C50   A    
C1    O3    A    
C71   H66   S    
C58   H32   S    
C37   C43   S    
O9    C51   S    
C64   H46   S    
C38   C44   S    
C52   H17   S    
C44   O13   S    
C43   C45   S    
O10   C53   S    
N2    Zn1   S    
C40   C43   S    
C55   H24   S    
C41   C47   T    
C31   C34   A    
C58   H31   S    
O3    Zn2   S    
C42   C48   T    
C67   H53   S    
C67   C68   S    
C9    C11   A    
C22   H5    S    
C66   H52   S    
C10   C12   A    
C25   H4    S    
C17   H9    S    
C63   C64   S    
C18   H10   S    
C73   H70   S    
C20   C22   A    
C54   H21   S    
C20   O10   S    
C55   C56   S    
O13   C59   S    
C64   H45   S    
C19   C29   A    
C26   H3    S    
C8    C50   A    
O22   C73   S    
C24   O8    A    
C63   H44   S    
C62   H42   S    
C66   H51   S    
C61   C62   S    
C11   C17   A    
C33   H7    S    
C60   H35   S    
C72   H68   S    
C16   O20   S    
C15   O19   S    
C31   C32   A    
C69   H59   S    
O8    Zn1   S    
C2    O2    A    
O7    Zn2   S    
C62   H40   S    
C56   H26   S    
C8    O15   S    
C15   C17   A    
C39   C44   S    
C67   H54   S    
N1    Zn2   S    
C25   C27   A    
C29   C35   A    
C26   C28   A    
C23   C41   S    
C59   C60   S    
C30   C36   A    
C32   C33   A    
C28   C30   A    
C13   C16   A    
C64   H47   S    
C37   C39   S    
C71   H65   S    
C38   C40   S    
O17   C67   S    
O14   C61   S    
C65   C66   S    
C65   H49   S    
C19   O9    S    
C55   H23   S    
C33   C35   A    
C59   H34   S    
C60   H37   S    
C34   C36   A    
C69   H58   S    
C70   H61   S    
C57   C58   S    
C35   O21   S    
C21   N1    A    
C72   H67   S    
C3    C11   A    
C22   N2    A    
C52   H15   S    
C7    C9    A    
C51   C52   S    
C16   C18   A    
C54   H22   S    
C12   C18   A    
O19   H63   S    
C34   H8    S    
C14   C15   A    
C53   H19   S    
C37   C46   S    
C1    C49   S    
O16   C65   S    
C63   H43   S    
