data_mof_unit_44254.cif
_audit_creation_date              2012-12-10T18:33:37-0500
_audit_creation_method            fapswitch 2.2
_symmetry_space_group_name_H-M    P1
_symmetry_Int_Tables_number       1
_space_group_crystal_system       triclinic
_cell_length_a                    10.475018
_cell_length_b                    14.995789
_cell_length_c                    15.509441
_cell_angle_alpha                 80.743332
_cell_angle_beta                  91.1609
_cell_angle_gamma                 104.048492
_cell_volume                      2332.14878278

loop_
_atom_site_label
_atom_site_type_symbol
_atom_type_description
_atom_site_fract_x
_atom_site_fract_y
_atom_site_fract_z
_atom_type_partial_charge
C1    C     C_R   0.477946 0.440728 0.661947 0.856474
C2    C     C_R   0.523994 0.559265 0.338087 0.855726
C3    C     C_R   0.521871 0.461826 0.812217 -0.275899
C4    C     C_R   0.501675 0.536729 0.187126 -0.264712
C5    C     C_R   0.503831 0.437495 0.902433 0.090219
C6    C     C_R   0.551692 0.549832 0.102208 0.099115
C7    C     C_R   0.423002 0.348882 0.935850 0.158059
C8    C     C_R   0.644010 0.634294 0.071215 0.157634
C9    C     C_R   0.556600 0.501804 0.959431 0.061298
C10   C     C_R   0.513706 0.480488 0.048042 0.057227
C11   C     C_R   0.438751 0.389414 0.080354 -0.243528
C12   C     C_R   0.650288 0.586720 0.930853 -0.241929
C13   C     C_R   0.395592 0.324602 0.025079 -0.244627
C14   C     C_R   0.693129 0.651442 0.986063 -0.252650
C15   C     C_R   0.659801 0.826500 0.659529 -0.331589
C16   C     C_R   0.270605 0.154589 0.383532 -0.335118
C17   C     C_R   0.646176 0.744906 0.625260 -0.015499
C18   C     C_R   0.321517 0.246354 0.394830 -0.017731
C19   C     C_R   0.513249 0.796445 0.510729 0.168234
C20   C     C_R   0.483267 0.202460 0.491437 0.182668
C21   C     C_R   0.513795 0.877117 0.547290 0.005114
C22   C     C_R   0.428583 0.107030 0.488069 0.017697
C23   C     C_R   0.742201 0.500912 0.499744 0.855724
C24   C     C_R   0.257862 0.498839 0.500902 0.861465
C25   C     C_R   0.594003 0.892969 0.620762 0.148526
C26   C     C_R   0.324310 0.084629 0.429533 0.142001
C27   C     C_R   0.442552 0.944082 0.512228 0.076353
C28   C     C_R   0.476610 0.033588 0.537389 0.073749
C29   C     C_R   0.550089 0.044320 0.614025 -0.220198
C30   C     C_R   0.333111 0.923311 0.457842 -0.211519
C31   C     C_R   0.606752 0.974714 0.655361 -0.233268
C32   C     C_R   0.274000 0.992430 0.418096 -0.236910
C33   C     C_3   0.930989 0.424681 0.554899 -0.243823
C34   C     C_3   0.069536 0.575024 0.447033 -0.243848
C35   C     C_3   0.043488 0.501667 0.582131 0.061751
C36   C     C_3   0.957263 0.498145 0.419527 0.057291
C37   C     C_3   0.122534 0.497881 0.501821 -0.012542
C38   C     C_3   0.877685 0.501741 0.499742 -0.015142
C39   C     C_3   0.012414 0.421071 0.473765 -0.203443
C40   C     C_3   0.988018 0.578596 0.528089 -0.205470
C41   C     C_R   0.460232 0.402622 0.755173 -0.097145
C42   C     C_R   0.557204 0.596022 0.245674 -0.103048
C43   C     C_R   0.366973 0.286372 0.879418 -0.258736
C44   C     C_R   0.690444 0.699430 0.126780 -0.249520
C45   C     C_R   0.382486 0.312664 0.788684 0.000924
C46   C     C_R   0.652263 0.679966 0.215101 0.009921
H1    H     H_    0.276533 0.300390 0.362938 0.137811
H2    H     H_    0.691279 0.690986 0.657257 0.135917
H3    H     H_    0.719089 0.836753 0.716844 0.146351
H4    H     H_    0.188579 0.138235 0.340333 0.146103
H5    H     H_    0.558487 0.103760 0.646558 0.171632
H6    H     H_    0.286526 0.852987 0.449023 0.160105
H7    H     H_    0.869084 0.363568 0.597577 0.131678
H8    H     H_    0.131911 0.636469 0.405043 0.125658
H9    H     H_    0.026036 0.357200 0.451417 0.139723
H10   H     H_    0.974670 0.642021 0.551352 0.138097
H11   H     H_    0.336746 0.256079 0.052044 0.144955
H12   H     H_    0.766010 0.715071 0.962025 0.142920
H13   H     H_    0.420924 0.478440 0.210488 0.150562
H14   H     H_    0.578359 0.529764 0.784019 0.157614
H15   H     H_    0.305270 0.218591 0.905914 0.137480
H16   H     H_    0.763111 0.763209 0.102568 0.136294
H17   H     H_    0.414418 0.365086 0.148660 0.150122
H18   H     H_    0.696843 0.604210 0.867047 0.143408
H19   H     H_    0.662992 0.985756 0.713807 0.144604
H20   H     H_    0.190410 0.973888 0.376555 0.146917
N1    N     N_R   0.574200 0.731700 0.552740 -0.109498
N2    N     N_R   0.425800 0.268300 0.447260 -0.109405
O1    O     O_R   0.462600 0.383110 0.605620 -0.618228
O2    O     O_R   0.537400 0.616890 0.394380 -0.625973
O3    O     O_R   0.510210 0.531900 0.639510 -0.613246
O4    O     O_R   0.489790 0.468100 0.360490 -0.607559
O5    O     O_R   0.662240 0.425610 0.483080 -0.641493
O6    O     O_R   0.337760 0.574390 0.516920 -0.638648
O7    O     O_R   0.709860 0.574400 0.516970 -0.623413
O8    O     O_R   0.290140 0.425600 0.483030 -0.624523
Zn1   Zn    Zn3+2 0.468210 0.400660 0.477370 0.923876
Zn2   Zn    Zn3+2 0.531790 0.599340 0.522630 0.919253
C47   C     C_R   0.099175 0.506916 0.672133 0.077050
C48   C     C_R   0.054547 0.434384 0.742150 -0.190057
C49   C     C_R   0.111435 0.438314 0.824266 -0.126988
C50   C     C_R   0.211904 0.515038 0.837418 -0.099397
C51   C     C_R   0.255261 0.588229 0.768578 -0.132007
C52   C     C_R   0.198603 0.584577 0.686420 -0.122073
H21   H     H_    0.977899 0.373884 0.733164 0.125411
H22   H     H_    0.078119 0.381583 0.877623 0.133254
H23   H     H_    0.256150 0.517753 0.900922 0.136089
H24   H     H_    0.332988 0.647730 0.778803 0.134846
H25   H     H_    0.232713 0.642157 0.633910 0.144691
C53   C     C_R   0.908432 0.493259 0.327798 0.079033
C54   C     C_R   0.960661 0.564711 0.258286 -0.180605
C55   C     C_R   0.918847 0.557298 0.172987 -0.120494
C56   C     C_R   0.825077 0.478606 0.156283 -0.096451
C57   C     C_R   0.771451 0.407802 0.224990 -0.136207
C58   C     C_R   0.813442 0.414814 0.310298 -0.124360
H26   H     H_    0.033762 0.626131 0.269487 0.123859
H27   H     H_    0.959419 0.612505 0.119739 0.130688
H28   H     H_    0.793687 0.472652 0.090113 0.139029
H29   H     H_    0.698267 0.347051 0.212032 0.132539
H30   H     H_    0.773562 0.358341 0.362303 0.132718
N3    N     N_3   0.604390 0.231037 0.534784 -0.491426
H31   H     H_    0.591975 0.272737 0.580074 0.227702
H32   H     H_    0.676768 0.267220 0.488325 0.195554
N4    N     N_3   0.461269 0.786419 0.426009 -0.483448
H33   H     H_    0.387213 0.725325 0.430356 0.211847
H34   H     H_    0.537037 0.782027 0.385864 0.231591
C59   C     C_R   0.719148 0.747178 0.271828 0.108391
C60   C     C_R   0.711245 0.840606 0.253207 -0.198543
C61   C     C_R   0.778137 0.905363 0.304318 -0.142155
C62   C     C_R   0.855205 0.877833 0.373318 -0.134053
C63   C     C_R   0.866492 0.785766 0.390743 -0.133024
C64   C     C_R   0.799639 0.720840 0.339840 -0.071272
H35   H     H_    0.652004 0.862920 0.199836 0.136429
H36   H     H_    0.770203 0.976868 0.290412 0.135184
H37   H     H_    0.906970 0.927973 0.412832 0.126381
H38   H     H_    0.927702 0.764965 0.443364 0.122979
H39   H     H_    0.810502 0.650210 0.353244 0.121605
C65   C     C_R   0.310383 0.246473 0.732349 0.132296
C66   C     C_R   0.216676 0.271293 0.673082 -0.082842
C67   C     C_R   0.148299 0.208301 0.620924 -0.126914
C68   C     C_R   0.171179 0.119434 0.628463 -0.114086
C69   C     C_R   0.262466 0.093496 0.688181 -0.147229
C70   C     C_R   0.331925 0.156637 0.739945 -0.187221
H40   H     H_    0.198412 0.339891 0.666161 0.120426
H41   H     H_    0.077598 0.228417 0.574681 0.123895
H42   H     H_    0.118329 0.070704 0.587987 0.131617
H43   H     H_    0.279818 0.024523 0.694089 0.140795
H44   H     H_    0.402986 0.135738 0.785544 0.126583

loop_
_geom_bond_atom_site_label_1
_geom_bond_atom_site_label_2
_ccdc_geom_bond_type
C45   C65   S    
C25   C31   A    
C38   C40   S    
C26   C32   A    
C56   C57   A    
O2    Zn2   S    
C34   C37   S    
C59   C64   A    
O1    Zn1   S    
C63   C64   A    
C17   H2    S    
C18   H1    S    
N4    H34   S    
C49   C50   A    
C53   C54   A    
C53   C58   A    
C66   H40   S    
C1    O3    A    
C34   C40   S    
C28   C29   A    
C35   C37   S    
C16   H4    S    
C11   H17   S    
C47   C52   A    
C12   H18   S    
C15   C25   A    
C13   H11   S    
C18   N2    A    
C50   H23   S    
C60   C61   A    
C31   H19   S    
C42   C46   A    
C69   H43   S    
C65   C66   A    
C21   C25   A    
O4    Zn1   S    
C54   H26   S    
C62   C63   A    
C39   H9    S    
C40   H10   S    
C59   C60   A    
C19   N1    A    
C63   H38   S    
C7    C43   A    
C9    C10   A    
C49   H22   S    
C3    H14   S    
C51   H24   S    
C21   C27   A    
N3    H32   S    
C22   C28   A    
C27   C30   A    
C16   C26   A    
N1    Zn2   S    
C23   O5    A    
C2    O4    A    
N4    H33   S    
C9    C12   A    
C44   C46   A    
C55   H27   S    
C33   H7    S    
C14   H12   S    
C17   N1    A    
N3    H31   S    
O8    Zn1   S    
C4    C6    A    
C23   O7    A    
C54   C55   A    
C5    C7    A    
C58   H30   S    
C24   O8    A    
C6    C8    A    
C20   N3    S    
C44   H16   S    
C1    O1    A    
C60   H35   S    
C5    C9    A    
C48   H21   S    
C19   N4    S    
C51   C52   A    
C46   C59   S    
C24   C37   S    
C16   C18   A    
C33   C39   S    
C43   C45   A    
C68   C69   A    
C61   H36   S    
C1    C41   S    
C12   C14   A    
C34   H8    S    
O6    Zn2   S    
C52   H25   S    
C67   C68   A    
C43   H15   S    
C32   H20   S    
C29   H5    S    
C36   C53   S    
N2    Zn1   S    
C15   C17   A    
C30   H6    S    
C3    C41   A    
C8    C14   A    
C19   C21   A    
C67   H41   S    
C20   N2    A    
C36   C39   S    
C8    C44   A    
C20   C22   A    
C48   C49   A    
C3    C5    A    
C6    C10   A    
C66   C67   A    
C23   C38   S    
C33   C38   S    
C36   C38   S    
C35   C40   S    
C68   H42   S    
C37   C39   S    
C41   C45   A    
C61   C62   A    
C30   C32   A    
C11   C13   A    
C24   O6    A    
C70   H44   S    
C64   H39   S    
C4    C42   A    
C57   H29   S    
C2    C42   S    
C62   H37   S    
C4    H13   S    
C35   C47   S    
C55   C56   A    
C33   C35   S    
C34   C36   S    
C65   C70   A    
C15   H3    S    
C57   C58   A    
O7    Zn2   S    
C10   C11   A    
C47   C48   A    
C7    C13   A    
C29   C31   A    
C50   C51   A    
C22   C26   A    
C27   C28   A    
O5    Zn1   S    
C69   C70   A    
C2    O2    A    
C56   H28   S    
O3    Zn2   S    
