data_mof_unit_27027.cif
_audit_creation_date              2012-10-26T20:18:17-0400
_audit_creation_method            fapswitch 2.2
_symmetry_space_group_name_H-M    P1
_symmetry_Int_Tables_number       1
_space_group_crystal_system       triclinic
_cell_length_a                    23.476044
_cell_length_b                    8.67474
_cell_length_c                    7.457075
_cell_angle_alpha                 103.281281
_cell_angle_beta                  94.211911
_cell_angle_gamma                 92.776117
_cell_volume                      1470.67367704

loop_
_atom_site_label
_atom_site_type_symbol
_atom_type_description
_atom_site_fract_x
_atom_site_fract_y
_atom_site_fract_z
_atom_type_partial_charge
C1    C     C_R   0.498248 0.199577 0.452950 0.532675
C2    C     C_R   0.706700 0.598223 0.634299 0.361171
C3    C     C_R   0.234063 0.400822 0.366986 -0.061659
C4    C     C_R   0.765937 0.599180 0.633012 -0.061660
C5    C     C_R   0.209375 0.501644 0.510041 0.153328
C6    C     C_R   0.790625 0.498357 0.489958 0.153328
C7    C     C_2   0.497443 0.031393 0.426721 -0.104130
C8    C     C_2   0.502557 0.968607 0.573279 -0.104130
C9    C     C_R   0.391151 0.502453 0.502981 0.573270
C10   C     C_R   0.608849 0.497547 0.497018 0.573270
C11   C     C_R   0.881709 0.625191 0.454750 0.424993
C12   C     C_R   0.501752 0.800422 0.547050 0.532676
C13   C     C_R   0.118291 0.374810 0.545248 0.424994
C14   C     C_R   0.878585 0.372534 0.532394 0.464095
C15   C     C_R   0.121415 0.627467 0.467606 0.464095
C16   C     C_R   0.938316 0.370292 0.536060 0.030264
C17   C     C_R   0.061684 0.629709 0.463940 0.030263
C18   C     C_R   0.969925 0.499695 0.498323 -0.025482
C19   C     C_R   0.030075 0.500306 0.501676 -0.025482
C20   C     C_R   0.941532 0.628529 0.457348 0.031116
C21   C     C_R   0.058468 0.371472 0.542650 0.031116
C22   C     C_R   0.967048 0.242513 0.576930 -0.116761
C23   C     C_R   0.244146 0.604039 0.653134 0.456960
C24   C     C_R   0.032952 0.757489 0.423071 -0.116762
C25   C     C_R   0.026531 0.243078 0.580153 -0.121858
C26   C     C_R   0.973469 0.756923 0.419847 -0.121858
C27   C     C_R   0.755854 0.395960 0.346867 0.456960
C28   C     C_R   0.303789 0.606703 0.653456 0.053035
C29   C     C_R   0.696211 0.393296 0.346544 0.053034
C30   C     C_R   0.328789 0.504112 0.508667 -0.043348
C31   C     C_R   0.671211 0.495888 0.491333 -0.043348
C32   C     C_R   0.293299 0.401779 0.365699 0.361170
Cu1   Cu    Cu3+1 0.506340 0.517380 0.684380 1.254665
Cu2   Cu    Cu3+1 0.493660 0.482620 0.315620 1.254666
F1    F     F_    0.219641 0.701789 0.791242 -0.542164
F2    F     F_    0.780359 0.298209 0.208759 -0.542163
F3    F     F_    0.315937 0.300485 0.226087 -0.545336
F4    F     F_    0.684062 0.699518 0.773910 -0.545336
F5    F     F_    0.443679 0.360225 0.926400 -0.505440
F6    F     F_    0.556320 0.639774 0.073600 -0.505440
H1    H     H_    0.943705 0.141810 0.606684 0.176906
H2    H     H_    0.056295 0.858192 0.393318 0.176907
H3    H     H_    0.047360 0.142803 0.612305 0.170211
H4    H     H_    0.952640 0.857198 0.387695 0.170211
H5    H     H_    0.207120 0.321808 0.256247 0.192421
H6    H     H_    0.792880 0.678195 0.743749 0.192422
H7    H     H_    0.492646 0.958996 0.285857 0.172819
H8    H     H_    0.507354 0.041003 0.714143 0.172819
I1    I     I_    0.352440 0.777019 0.869132 -0.056000
I2    I     I_    0.647560 0.222978 0.130871 -0.056000
N1    N     N_R   0.851671 0.498502 0.491832 -0.377097
N2    N     N_R   0.148329 0.501500 0.508167 -0.377097
N3    N     N_2   0.484110 0.456420 0.038520 0.183114
N4    N     N_2   0.515890 0.543580 0.961480 0.183114
O1    O     O_R   0.504120 0.286130 0.619770 -0.490882
O2    O     O_2   0.146317 0.253045 0.585337 -0.438990
O3    O     O_2   0.847599 0.250504 0.570170 -0.409745
O4    O     O_2   0.152401 0.749498 0.429833 -0.409745
O5    O     O_R   0.495880 0.713870 0.380230 -0.490882
O6    O     O_R   0.493410 0.256770 0.308360 -0.485593
O7    O     O_R   0.506590 0.743230 0.691640 -0.485593
O8    O     O_R   0.423230 0.514630 0.655730 -0.471555
O9    O     O_R   0.576770 0.485370 0.344270 -0.471555
O10   O     O_R   0.412530 0.485280 0.344320 -0.435003
O11   O     O_R   0.587470 0.514720 0.655680 -0.435003
O12   O     O_2   0.853683 0.746955 0.414659 -0.438990

loop_
_geom_bond_atom_site_label_1
_geom_bond_atom_site_label_2
_ccdc_geom_bond_type
Cu1   O1    S    
C18   C20   A    
C2    C4    A    
C8    H8    S    
C5    N2    S    
C27   F2    S    
C27   C29   A    
C13   N2    A    
C24   H2    S    
C28   I1    S    
C2    F4    S    
F6    N4    S    
C14   N1    A    
C5    C23   A    
C11   O12   S    
C8    C12   S    
C13   O2    S    
C25   H3    S    
C10   O9    A    
Cu2   O10   S    
Cu1   Cu2   S    
C1    O1    A    
C26   H4    S    
C7    C8    D    
C29   C31   A    
C4    H6    S    
N3    N4    D    
C9    O10   A    
C30   C32   A    
C12   O7    A    
C12   O5    A    
F5    N3    S    
C20   C26   A    
C9    C30   S    
C10   C31   S    
Cu1   O7    S    
Cu2   O9    S    
C17   C19   A    
C24   C26   A    
C18   C19   A    
C23   F1    S    
C29   I2    S    
C3    C32   A    
C6    N1    S    
C15   O4    S    
C14   C16   A    
C11   C20   A    
C1    O6    A    
C17   C24   A    
C11   N1    A    
Cu1   O11   S    
C13   C21   A    
C9    O8    A    
C22   H1    S    
C3    C5    A    
Cu2   N3    S    
C16   C18   A    
C4    C6    A    
C10   O11   A    
Cu1   N4    S    
C15   C17   A    
C14   O3    S    
C21   C25   A    
C2    C31   A    
C16   C22   A    
C32   F3    S    
C1    C7    S    
C15   N2    A    
C23   C28   A    
Cu2   O5    S    
Cu1   O8    S    
Cu2   O6    S    
C3    H5    S    
C6    C27   A    
C28   C30   A    
C19   C21   A    
C22   C25   A    
C7    H7    S    
