data_mof_unit_18670.cif
_audit_creation_date              2012-12-10T19:04:11-0500
_audit_creation_method            fapswitch 2.2
_symmetry_space_group_name_H-M    P1
_symmetry_Int_Tables_number       1
_space_group_crystal_system       triclinic
_cell_length_a                    10.615766
_cell_length_b                    10.831249
_cell_length_c                    9.544071
_cell_angle_alpha                 90.0924
_cell_angle_beta                  89.27982
_cell_angle_gamma                 90.869686
_cell_volume                      1097.18221266

loop_
_atom_site_label
_atom_site_type_symbol
_atom_type_description
_atom_site_fract_x
_atom_site_fract_y
_atom_site_fract_z
_atom_type_partial_charge
C1    C     C_R   0.507210 0.262600 0.499129 0.787147
C2    C     C_3   0.962775 0.531524 0.371421 -0.165855
C3    C     C_3   0.040746 0.415818 0.404389 -0.175109
C4    C     C_3   0.122334 0.495651 0.502127 0.001734
C5    C     C_R   0.470135 0.064266 0.613842 0.126650
C6    C     C_R   0.513258 0.128751 0.495626 -0.157124
C7    C     C_R   0.552490 0.062330 0.373536 0.057540
C8    C     C_R   0.541785 0.933080 0.375793 -0.230394
C9    C     C_R   0.504039 0.870514 0.498043 -0.130879
C10   C     C_R   0.466763 0.937157 0.615487 0.110974
C11   C     C_3   0.515895 0.930761 0.761118 -0.480074
C12   C     C_R   0.259270 0.496976 0.500768 0.800447
C13   C     C_3   0.520091 0.070415 0.759651 -0.430915
C14   C     C_R   0.565768 0.588418 0.072819 0.248167
C15   C     C_R   0.425288 0.420438 0.076158 -0.211828
C16   C     C_R   0.422346 0.421070 0.925242 0.577128
C17   C     C_R   0.566051 0.588247 0.925634 0.170112
C18   C     C_3   0.704592 0.612431 0.917908 -0.492070
C19   C     C_3   0.704322 0.612155 0.076784 -0.498185
C20   C     C_R   0.502099 0.737430 0.499935 0.803457
C21   C     C_R   0.740617 0.502500 0.499248 0.765018
C22   C     C_3   0.037182 0.465149 0.629339 -0.158398
C23   C     C_3   0.953780 0.386926 0.531109 0.121653
C24   C     C_3   0.877416 0.501435 0.498063 -0.006848
C25   C     C_3   0.959233 0.580799 0.595383 -0.193129
C26   C     C_3   0.046606 0.611009 0.468720 -0.163824
Cu1   Cu    Cu3+1 0.499990 0.499980 0.640670 0.974541
Cu2   Cu    Cu3+1 0.500010 0.500020 0.359330 0.924308
H1    H     H_    0.610821 0.889034 0.766070 0.198502
H2    H     H_    0.452239 0.112005 0.834889 0.228813
H3    H     H_    0.617372 0.109724 0.762863 0.195396
H4    H     H_    0.370039 0.354634 0.136643 0.151899
H5    H     H_    0.757799 0.534195 0.872062 0.215758
H6    H     H_    0.727878 0.704375 0.872123 0.185377
H7    H     H_    0.756134 0.532950 0.120393 0.210810
H8    H     H_    0.727990 0.703729 0.123102 0.183392
H9    H     H_    0.069756 0.437718 0.734591 0.142848
H10   H     H_    0.922848 0.648763 0.672512 0.134642
H11   H     H_    0.087974 0.703175 0.443340 0.126698
H12   H     H_    0.931425 0.560140 0.266224 0.133278
H13   H     H_    0.077223 0.348420 0.326665 0.118184
H14   H     H_    0.568283 0.879709 0.284646 0.159617
H15   H     H_    0.444932 0.891891 0.836175 0.195836
N1    N     N_R   0.500800 0.500930 0.147930 -0.202482
N2    N     N_R   0.500800 0.500890 0.852020 -0.226235
O1    O     O_R   0.500000 0.319640 0.618810 -0.525889
O2    O     O_R   0.500010 0.319680 0.381230 -0.603475
O3    O     O_R   0.316850 0.499950 0.618770 -0.542207
O4    O     O_R   0.316860 0.499990 0.381190 -0.584991
O5    O     O_R   0.499990 0.680320 0.618770 -0.579077
O6    O     O_R   0.500000 0.680360 0.381190 -0.584445
O7    O     O_R   0.683140 0.500010 0.618810 -0.593457
O8    O     O_R   0.683150 0.500050 0.381230 -0.589489
C27   C     C_3   0.891044 0.262056 0.564599 -0.422599
C28   C     C_3   0.986527 0.157771 0.568799 -0.335329
C29   C     C_3   0.920926 0.034026 0.599015 -0.859328
H16   H     H_    0.871107 0.036933 0.701963 0.246962
H17   H     H_    0.851755 0.011782 0.515877 0.259101
H18   H     H_    0.991894 0.959817 0.601679 0.237750
H19   H     H_    0.036951 0.151449 0.466344 0.214065
H20   H     H_    0.056786 0.177014 0.651434 0.213991
H21   H     H_    0.840953 0.268917 0.667245 0.197208
H22   H     H_    0.820348 0.241213 0.482727 0.183977
O9    O     O_3   0.349322 0.338467 0.847645 -0.543901
C30   C     C_3   0.240861 0.295215 0.920277 -0.427714
H23   H     H_    0.176111 0.252436 0.843523 0.190844
H24   H     H_    0.189140 0.371536 0.972658 0.158589
H25   H     H_    0.265589 0.221753 0.995779 0.159106
C31   C     C_3   0.611237 0.128302 0.246411 -0.347866
C32   C     C_3   0.687426 0.047787 0.144051 -0.389148
C33   C     C_3   0.760849 0.127688 0.038505 -0.861698
H26   H     H_    0.834040 0.183720 0.092715 0.249632
H27   H     H_    0.807906 0.067681 0.959994 0.237909
H28   H     H_    0.696449 0.190688 0.983426 0.254696
H29   H     H_    0.755605 0.991225 0.202652 0.220802
H30   H     H_    0.622614 0.985635 0.085211 0.221138
H31   H     H_    0.535234 0.173027 0.186675 0.210160
H32   H     H_    0.677110 0.200938 0.285486 0.208107

loop_
_geom_bond_atom_site_label_1
_geom_bond_atom_site_label_2
_ccdc_geom_bond_type
Cu1   O3    S    
C28   C29   S    
Cu2   O2    S    
C3    C23   S    
C12   O3    A    
C12   O4    A    
C7    C8    A    
C8    H14   S    
C15   N1    A    
C20   O6    A    
C19   H8    S    
C5    C6    A    
Cu2   O6    S    
C26   H11   S    
C27   H22   S    
C15   C16   A    
C29   H16   S    
C18   C19   S    
C20   O5    A    
C31   H31   S    
C8    C9    A    
C30   H24   S    
C22   C25   S    
C23   C24   S    
C11   H15   S    
C32   C33   S    
C4    C12   S    
C9    C10   A    
C2    C24   S    
C5    C13   S    
Cu1   O5    S    
Cu1   N2    S    
C28   H19   S    
C14   C17   A    
C31   H32   S    
C1    C6    S    
C13   H2    S    
C15   H4    S    
C24   C25   S    
C33   H27   S    
C1    O2    A    
C27   H21   S    
C25   C26   S    
C22   H9    S    
Cu2   N1    S    
C25   H10   S    
C4    C22   S    
Cu2   O4    S    
C9    C20   S    
C30   H25   S    
C17   C18   S    
C2    C26   S    
C18   H6    S    
Cu1   O1    S    
C32   H30   S    
C3    C4    S    
Cu1   Cu2   S    
Cu1   O7    S    
C23   C27   S    
C14   N1    A    
C27   C28   S    
C3    H13   S    
C14   C19   S    
C13   H3    S    
C17   N2    A    
C16   N2    A    
C7    C31   S    
C33   H28   S    
C4    C26   S    
Cu2   O8    S    
C6    C7    A    
C29   H18   S    
O9    C30   S    
C2    C3    S    
C5    C10   A    
C19   H7    S    
C21   O8    A    
C11   C13   S    
C28   H20   S    
C29   H17   S    
C31   C32   S    
C1    O1    A    
C18   H5    S    
C10   C11   S    
C2    H12   S    
C33   H26   S    
C11   H1    S    
C30   H23   S    
C21   C24   S    
C32   H29   S    
C22   C23   S    
C16   O9    S    
C21   O7    A    
