data_mof_unit_46256.cif
_audit_creation_date              2013-03-05T16:23:14-0500
_audit_creation_method            fapswitch 2.2
_symmetry_space_group_name_H-M    P1
_symmetry_Int_Tables_number       1
_space_group_crystal_system       triclinic
_cell_length_a                    27.581336
_cell_length_b                    10.486294
_cell_length_c                    9.741743
_cell_angle_alpha                 90.349782
_cell_angle_beta                  89.95729
_cell_angle_gamma                 90.408118
_cell_volume                      2817.44066929

loop_
_atom_site_label
_atom_site_type_symbol
_atom_site_description
_atom_site_fract_x
_atom_site_fract_y
_atom_site_fract_z
_atom_type_partial_charge
O1    O     O_R   0.500000 0.313960 0.616610 -0.617258
O2    O     O_R   0.500000 0.686040 0.383390 -0.621067
O3    O     O_R   0.500020 0.313950 0.383350 -0.627223
O4    O     O_R   0.499980 0.686050 0.616650 -0.624988
C1    C     C_R   0.500249 0.257401 0.499459 0.863175
C2    C     C_R   0.500531 0.742495 0.500491 0.853577
O5    O     O_R   0.428750 0.500030 0.616610 -0.619819
O6    O     O_R   0.571250 0.499970 0.383390 -0.619380
O7    O     O_R   0.428770 0.500020 0.383360 -0.618341
O8    O     O_R   0.571230 0.499980 0.616640 -0.619500
C3    C     C_R   0.405874 0.502065 0.499923 0.859055
C4    C     C_R   0.594094 0.501495 0.499933 0.853774
Zn1   Zn    Zn3+2 0.499990 0.500010 0.655740 0.935020
Zn2   Zn    Zn3+2 0.500010 0.499990 0.344260 0.937870
C5    C     C_R   0.180474 0.442591 0.399740 0.504991
C6    C     C_R   0.821247 0.631884 0.427400 0.504951
O9    O     O_2   0.206876 0.335140 0.387581 -0.562726
O10   O     O_2   0.794435 0.739087 0.429488 -0.561721
N1    N     N_R   0.202823 0.555875 0.430722 -0.351868
N2    N     N_R   0.799272 0.515447 0.442029 -0.351419
C7    C     C_R   0.177713 0.667542 0.437254 0.506690
C8    C     C_R   0.825079 0.404766 0.436001 0.504869
C9    C     C_R   0.285913 0.606923 0.364810 -0.109485
C10   C     C_R   0.718907 0.450996 0.362710 -0.106849
C11   C     C_R   0.335261 0.590652 0.383088 -0.257350
C12   C     C_R   0.669134 0.447096 0.379777 -0.254481
C13   C     C_R   0.320304 0.474144 0.595770 0.068347
C14   C     C_R   0.676746 0.561677 0.598296 0.059751
C15   C     C_R   0.270570 0.492896 0.575719 -0.134501
C16   C     C_R   0.727167 0.562563 0.579825 -0.130706
C17   C     C_R   0.253539 0.555676 0.459368 0.292259
C18   C     C_R   0.747995 0.509071 0.462089 0.287058
C19   C     C_R   0.103173 0.550189 0.394064 -0.052599
C20   C     C_R   0.898967 0.527559 0.404873 -0.052858
C21   C     C_R   0.130250 0.437402 0.381938 -0.021637
C22   C     C_R   0.871547 0.640203 0.409906 -0.021252
C23   C     C_R   0.106710 0.321860 0.354339 -0.137555
C24   C     C_R   0.894777 0.758297 0.397460 -0.136072
C25   C     C_R   0.127361 0.666930 0.418186 -0.021667
C26   C     C_R   0.875267 0.408668 0.415652 -0.020471
C27   C     C_R   0.353188 0.521637 0.495616 -0.060314
C28   C     C_R   0.647284 0.502673 0.495856 -0.067358
H1    H     H_    0.244464 0.452929 0.647011 0.138868
H2    H     H_    0.750604 0.607332 0.655535 0.143331
H3    H     H_    0.126923 0.234549 0.339995 0.190542
H4    H     H_    0.874331 0.846149 0.397307 0.191116
C29   C     C_R   0.977026 0.419239 0.382657 0.047240
C30   C     C_R   0.025059 0.660329 0.395188 0.046446
C31   C     C_R   0.973714 0.654600 0.390224 0.046086
C32   C     C_R   0.028123 0.425851 0.370854 0.046355
C33   C     C_R   0.950072 0.533827 0.391521 0.070646
C34   C     C_R   0.051936 0.545643 0.385413 0.071032
C35   C     C_R   0.951974 0.301401 0.391992 -0.215498
C36   C     C_R   0.050601 0.776531 0.415196 -0.215062
C37   C     C_R   0.902087 0.296527 0.408566 -0.138283
C38   C     C_R   0.100760 0.779409 0.426900 -0.138660
O11   O     O_2   0.802238 0.291427 0.451304 -0.559008
O12   O     O_2   0.201278 0.778008 0.464704 -0.559568
C39   C     C_R   0.056550 0.316014 0.348309 -0.217611
C40   C     C_R   0.944913 0.765633 0.387606 -0.215933
H5    H     H_    0.647536 0.401094 0.300601 0.166759
H6    H     H_    0.359550 0.630461 0.306805 0.158963
H7    H     H_    0.734958 0.409750 0.271321 0.151120
H8    H     H_    0.272731 0.655506 0.274581 0.148509
H9    H     H_    0.884676 0.203964 0.417315 0.188242
H10   H     H_    0.118550 0.870377 0.445288 0.188952
H11   H     H_    0.970018 0.210659 0.392521 0.137196
H12   H     H_    0.032838 0.866929 0.428079 0.138332
H13   H     H_    0.041132 0.223721 0.325002 0.139743
H14   H     H_    0.959962 0.860114 0.376871 0.137668
C41   C     C_3   0.541661 0.043837 0.560531 -0.178556
C42   C     C_3   0.460443 0.955948 0.439004 -0.172147
C43   C     C_3   0.540221 0.957879 0.431242 -0.180787
C44   C     C_3   0.461950 0.041475 0.568293 -0.188574
H15   H     H_    0.572072 0.918618 0.375977 0.135096
H16   H     H_    0.430368 0.079216 0.624860 0.145945
H17   H     H_    0.574652 0.084914 0.609376 0.136106
H18   H     H_    0.427388 0.915379 0.389954 0.136225
C45   C     C_3   0.501150 0.877478 0.501385 0.031743
C46   C     C_3   0.500853 0.122222 0.498251 0.029774
C47   C     C_3   0.502674 0.960483 0.630802 -0.140090
C48   C     C_3   0.499448 0.039142 0.368705 -0.136723
H19   H     H_    0.503816 0.924434 0.737669 0.138599
H20   H     H_    0.498122 0.075183 0.261846 0.134818
C49   C     C_3   0.506257 0.386189 0.047813 -0.069640
C50   C     C_3   0.493757 0.613855 0.952201 -0.086471
C51   C     C_3   0.540622 0.457997 0.950928 -0.074445
C52   C     C_3   0.459385 0.542018 0.049096 -0.064009
H21   H     H_    0.574655 0.421615 0.904765 0.114890
H22   H     H_    0.425199 0.577370 0.095424 0.116989
H23   H     H_    0.511520 0.290333 0.092953 0.115935
H24   H     H_    0.488404 0.709664 0.907031 0.118104
N3    N     N_3   0.499960 0.500030 0.863290 -0.071439
N4    N     N_3   0.500040 0.499970 0.136710 -0.071807
C53   C     C_3   0.465621 0.428242 0.951048 -0.072868
C54   C     C_3   0.534430 0.571808 0.049037 -0.082340
H25   H     H_    0.436920 0.367564 0.904730 0.114860
H26   H     H_    0.563384 0.632170 0.095471 0.123996
C55   C     C_3   0.335269 0.393224 0.716534 -0.425434
C56   C     C_3   0.344717 0.255702 0.670118 -0.315387
C57   C     C_3   0.352362 0.167766 0.792490 -0.883651
H27   H     H_    0.385989 0.194566 0.848330 0.249978
H28   H     H_    0.321006 0.172812 0.863965 0.273140
H29   H     H_    0.355689 0.067742 0.755848 0.250287
H30   H     H_    0.313066 0.219487 0.610376 0.248986
H31   H     H_    0.377144 0.253106 0.602503 0.207418
H32   H     H_    0.367018 0.434657 0.770440 0.219455
H33   H     H_    0.305743 0.392241 0.794464 0.200632
C58   C     C_3   0.656567 0.628571 0.724205 -0.414351
C59   C     C_3   0.633314 0.756396 0.687222 -0.290589
C60   C     C_3   0.611416 0.820159 0.813815 -0.886713
H34   H     H_    0.581250 0.760959 0.854703 0.259874
H35   H     H_    0.639371 0.833604 0.894729 0.262776
H36   H     H_    0.597010 0.915013 0.785995 0.243943
H37   H     H_    0.661374 0.820783 0.642983 0.229558
H38   H     H_    0.604361 0.742755 0.609382 0.216251
H39   H     H_    0.630758 0.565588 0.779146 0.219473
H40   H     H_    0.686137 0.648201 0.799202 0.192720

loop_
_geom_bond_atom_site_label_1
_geom_bond_atom_site_label_2
_geom_bond_distance
_ccdc_geom_bond_type
C57   H27   1.109176 S    
C13   C15   1.401134 A    
C60   H34   1.109702 S    
N1    C17   1.426616 S    
C8    O11   1.350194 S    
C49   H23   1.110136 S    
C58   H39   1.107453 S    
C19   C34   1.416221 A    
C5    N1    1.366639 A    
C55   H33   1.112962 S    
C13   C55   1.514040 S    
C20   C33   1.416530 A    
C19   C25   1.408544 A    
C31   C40   1.414517 A    
C44   H16   1.104818 S    
O1    C1    1.282986 A    
C32   C39   1.413895 A    
N1    C7    1.365803 A    
C12   H5    1.083758 S    
C10   C12   1.383044 A    
C42   C45   1.525538 S    
C50   C52   1.534395 S    
C36   H12   1.076779 S    
C14   C28   1.423226 A    
O4    Zn1   1.989970 S    
C59   C60   1.525561 S    
C4    C28   1.467514 S    
C37   H9    1.083660 S    
C25   C38   1.395607 A    
C31   C33   1.420463 A    
C54   H26   1.110322 S    
C32   C34   1.419748 A    
O6    C4    1.298818 A    
C29   C35   1.414827 A    
C49   C51   1.534073 S    
C52   C53   1.534316 S    
N3    C53   1.480236 S    
C44   C46   1.525403 S    
C15   H1    1.083960 S    
C43   H15   1.110339 S    
C16   H2    1.083694 S    
O2    C2    1.282068 A    
C35   H11   1.077005 S    
C5    C21   1.396835 A    
C41   C46   1.526713 S    
C47   H19   1.110294 S    
C58   H40   1.112656 S    
O5    C3    1.300876 A    
C29   C32   1.415151 A    
C52   N4    1.480988 S    
C35   C37   1.385908 A    
C43   C45   1.527115 S    
C36   C38   1.388331 A    
C42   C44   1.542137 S    
C11   C27   1.409075 A    
C45   C47   1.528086 S    
C29   C33   1.419636 A    
Zn1   N3    2.021896 S    
C9    C17   1.390179 A    
C30   C36   1.415685 A    
O7    Zn2   2.001194 S    
C10   C18   1.392425 A    
C50   N3    1.481297 S    
C49   N4    1.480888 S    
C13   C27   1.421527 A    
C55   C56   1.532723 S    
C7    C25   1.401242 A    
C40   H14   1.077099 S    
C6    N2    1.367464 A    
C26   C37   1.395045 A    
C8    C26   1.398565 A    
C51   C54   1.534835 S    
C56   H30   1.112831 S    
C60   H35   1.110734 S    
C6    O10   1.350023 S    
C50   C54   1.535095 S    
C1    C46   1.417722 S    
N4    C54   1.480922 S    
O7    C3    1.299040 A    
C23   C39   1.385686 A    
O3    Zn2   1.989972 S    
O8    C4    1.299828 A    
C39   H13   1.077332 S    
C24   C40   1.387710 A    
C46   C48   1.529479 S    
C9    H8    1.083022 S    
C52   H22   1.110166 S    
C57   H29   1.110288 S    
C48   H20   1.110358 S    
C51   H21   1.109622 S    
C20   C26   1.408032 A    
O4    C2    1.280267 A    
O1    Zn1   1.985584 S    
C44   C47   1.540993 S    
C23   H3    1.083594 S    
C59   H38   1.109567 S    
C43   C48   1.543685 S    
C41   H17   1.110202 S    
C12   C28   1.406246 A    
C41   C43   1.544699 S    
N2    C18   1.428712 S    
C5    O9    1.350486 S    
C30   C31   1.417875 A    
O6    Zn2   2.001813 S    
C21   C23   1.395307 A    
N2    C8    1.366757 A    
O3    C1    1.280363 A    
O8    Zn1   2.001197 S    
C53   H25   1.106780 S    
C14   C58   1.516695 S    
C10   H7    1.083111 S    
C55   H32   1.106285 S    
C56   H31   1.110740 S    
C22   C24   1.396130 A    
C7    O12   1.349641 S    
C15   C17   1.397530 A    
C50   H24   1.110147 S    
C58   C59   1.535028 S    
C6    C22   1.399810 A    
C16   C18   1.398530 A    
C49   C53   1.533923 S    
C2    C45   1.415425 S    
C38   H10   1.083597 S    
C51   N3    1.481218 S    
C14   C16   1.402111 A    
C56   C57   1.527249 S    
C19   C21   1.407568 A    
C3    C27   1.469696 S    
C60   H36   1.108949 S    
C20   C22   1.407692 A    
C11   H6    1.083678 S    
C9    C11   1.384714 A    
O2    Zn2   1.985582 S    
C24   H4    1.083574 S    
O5    Zn1   2.001807 S    
C57   H28   1.111247 S    
C42   H18   1.110456 S    
C30   C34   1.419886 A    
C59   H37   1.111829 S    
Zn2   N4    2.021897 S    
C42   C48   1.542814 S    
C41   C47   1.543292 S    
