data_mof_unit_38439.cif
_audit_creation_date              2012-12-10T16:39:31-0500
_audit_creation_method            fapswitch 2.2
_symmetry_space_group_name_H-M    P1
_symmetry_Int_Tables_number       1
_space_group_crystal_system       triclinic
_cell_length_a                    16.890303
_cell_length_b                    16.866372
_cell_length_c                    16.955789
_cell_angle_alpha                 67.234553
_cell_angle_beta                  66.690027
_cell_angle_gamma                 66.849477
_cell_volume                      3922.73457299

loop_
_atom_site_label
_atom_site_type_symbol
_atom_type_description
_atom_site_fract_x
_atom_site_fract_y
_atom_site_fract_z
_atom_type_partial_charge
C1    C     C_R   0.325261 0.974937 0.438571 -0.012225
C2    C     C_R   0.668929 0.064467 0.540879 -0.007703
C3    C     C_R   0.956969 0.446902 0.327709 -0.012160
C4    C     C_R   0.038071 0.555937 0.673107 -0.014296
C5    C     C_R   0.462026 0.331440 0.928834 -0.010520
C6    C     C_R   0.561546 0.677709 0.016470 -0.009912
C7    C     C_R   0.542481 0.046072 0.674713 -0.004825
C8    C     C_R   0.430397 0.030374 0.298481 -0.002752
C9    C     C_R   0.703310 0.570209 0.965481 -0.001345
C10   C     C_R   0.328746 0.459964 0.940442 -0.008462
C11   C     C_R   0.979822 0.694334 0.569463 -0.007570
C12   C     C_R   0.013005 0.308864 0.432951 -0.004509
C13   C     C_R   0.447307 0.019215 0.438958 0.042330
C14   C     C_R   0.535549 0.045473 0.533582 0.041922
C15   C     C_R   0.990630 0.452429 0.453500 0.040925
C16   C     C_R   0.001393 0.551022 0.548942 0.041029
C17   C     C_R   0.470041 0.468394 0.940105 0.041494
C18   C     C_R   0.563305 0.556764 0.968685 0.041335
C19   C     C_R   0.991807 0.171122 0.428024 0.904066
C20   C     C_R   0.004079 0.831080 0.572993 0.922554
C21   C     C_R   0.178742 0.435715 0.968519 0.920771
C22   C     C_R   0.835495 0.574045 0.997447 0.907901
C23   C     C_R   0.425810 0.001917 0.165205 0.925400
C24   C     C_R   0.564952 0.029134 0.821784 0.912213
C25   C     C_R   0.567367 0.821879 0.026024 0.929264
C26   C     C_R   0.437006 0.178927 0.965650 0.872536
C27   C     C_R   0.029297 0.566079 0.821674 0.851753
C28   C     C_R   0.969811 0.434496 0.178370 0.932178
C29   C     C_R   0.821014 0.033517 0.563589 0.899885
C30   C     C_R   0.178262 0.972913 0.432757 0.890857
C31   C     C_R   0.401035 0.008274 0.392005 0.077620
C32   C     C_R   0.582266 0.052297 0.582867 0.074639
C33   C     C_R   0.986695 0.402904 0.404867 0.080235
C34   C     C_R   0.006272 0.600306 0.597186 0.075760
C35   C     C_R   0.420593 0.420143 0.935672 0.077207
C36   C     C_R   0.609443 0.601637 0.983275 0.080508
C37   C     C_R   0.270107 0.980053 0.389759 -0.203775
C38   C     C_R   0.723918 0.045060 0.596396 -0.186765
C39   C     C_R   0.970078 0.394921 0.271302 -0.206703
C40   C     C_R   0.026827 0.607030 0.729309 -0.192032
C41   C     C_R   0.405241 0.276247 0.951617 -0.179261
C42   C     C_R   0.610371 0.730719 0.016483 -0.206166
C43   C     C_R   0.596888 0.037970 0.725959 -0.184299
C44   C     C_R   0.383836 0.015907 0.253587 -0.187104
C45   C     C_R   0.747425 0.616132 0.982386 -0.195101
C46   C     C_R   0.275705 0.404097 0.955717 -0.190463
C47   C     C_R   0.992734 0.741568 0.614778 -0.194857
C48   C     C_R   0.001736 0.261153 0.387018 -0.198022
C49   C     C_R   0.453004 0.039918 0.712061 -0.138286
C50   C     C_R   0.503626 0.067791 0.252615 -0.127161
C51   C     C_R   0.938593 0.738404 0.500043 -0.131235
C52   C     C_R   0.053221 0.265155 0.502975 -0.130450
C53   C     C_R   0.750344 0.495817 0.929309 -0.135274
C54   C     C_R   0.292574 0.551661 0.938731 -0.145611
C55   C     C_R   0.304445 0.942624 0.532289 -0.136066
C56   C     C_R   0.697836 0.090370 0.446315 -0.130611
C57   C     C_R   0.557183 0.301122 0.904890 -0.139549
C58   C     C_R   0.466778 0.701260 0.042784 -0.140179
C59   C     C_R   0.918831 0.540698 0.308086 -0.139009
C60   C     C_R   0.076595 0.462412 0.692028 -0.135365
C61   C     C_R   0.297793 0.007472 0.296347 0.213439
C62   C     C_R   0.688570 0.019560 0.688205 0.196285
C63   C     C_R   0.997395 0.301307 0.300370 0.218416
C64   C     C_R   0.999343 0.700754 0.700857 0.215651
C65   C     C_R   0.312918 0.312379 0.977476 0.203033
C66   C     C_R   0.704396 0.702200 0.991147 0.220614
C67   C     C_R   0.648998 0.089436 0.395336 -0.019935
C68   C     C_R   0.343431 0.961174 0.580058 -0.027172
C69   C     C_R   0.072727 0.411777 0.645001 -0.020786
C70   C     C_R   0.920101 0.591533 0.356814 -0.028109
C71   C     C_R   0.421058 0.665814 0.017362 -0.036706
C72   C     C_R   0.608490 0.350770 0.904431 -0.023143
C73   C     C_R   0.552562 0.076173 0.298400 -0.024703
C74   C     C_R   0.416581 0.011695 0.670147 -0.045980
C75   C     C_R   0.333989 0.591878 0.963627 -0.042428
C76   C     C_R   0.705002 0.447427 0.918959 -0.027455
C77   C     C_R   0.059610 0.312861 0.551108 -0.029161
C78   C     C_R   0.930432 0.690708 0.452784 -0.028831
C79   C     C_R   0.678059 0.113783 0.300768 0.252866
C80   C     C_R   0.310086 0.944790 0.673917 0.249801
C81   C     C_R   0.105760 0.317190 0.668858 0.253457
C82   C     C_R   0.884801 0.686063 0.334605 0.236395
C83   C     C_R   0.328130 0.703831 0.025167 0.233156
C84   C     C_R   0.703503 0.320119 0.883166 0.251693
C85   C     C_R   0.629241 0.108571 0.252502 0.234822
C86   C     C_R   0.342977 0.975187 0.718079 0.255787
C87   C     C_R   0.285815 0.669862 0.993653 0.238553
C88   C     C_R   0.751640 0.369003 0.889021 0.232392
C89   C     C_R   0.097755 0.267971 0.623029 0.236736
C90   C     C_R   0.889690 0.735420 0.382558 0.229760
C91   C     C_R   0.523540 0.052143 0.392410 -0.009088
C92   C     C_R   0.456168 0.018401 0.578809 -0.010630
C93   C     C_R   0.027406 0.407284 0.526524 -0.011542
C94   C     C_R   0.963817 0.596253 0.476429 -0.013386
C95   C     C_R   0.424649 0.550714 0.961884 -0.012180
C96   C     C_R   0.610683 0.478700 0.938534 -0.011860
C97   C     C_R   0.569951 0.061602 0.440322 -0.010266
C98   C     C_R   0.415508 0.999708 0.532597 -0.011027
C99   C     C_R   0.469775 0.591529 0.982042 -0.013418
C100  C     C_R   0.563193 0.432226 0.928171 -0.014586
C101  C     C_R   0.033335 0.456598 0.573865 -0.012314
C102  C     C_R   0.958537 0.546862 0.428614 -0.013883
H1    H     H_    0.409748 0.055423 0.773323 0.224100
H2    H     H_    0.520335 0.093655 0.180970 0.195450
H3    H     H_    0.908925 0.809963 0.485874 0.199524
H4    H     H_    0.084895 0.193975 0.516186 0.197571
H5    H     H_    0.822698 0.477377 0.906274 0.195943
H6    H     H_    0.231604 0.592317 0.921277 0.216074
H7    H     H_    0.256806 0.904118 0.568400 0.205489
H8    H     H_    0.757692 0.112213 0.412301 0.206820
H9    H     H_    0.591406 0.239124 0.886638 0.205583
H10   H     H_    0.427920 0.747439 0.082878 0.206729
H11   H     H_    0.886496 0.573876 0.255712 0.202803
H12   H     H_    0.111092 0.429199 0.742696 0.200540
O1    O     O_R   0.982940 0.138950 0.510160 -0.635910
O2    O     O_R   0.017060 0.861050 0.489840 -0.636148
O3    O     O_R   0.138950 0.510160 0.982940 -0.646344
O4    O     O_R   0.861050 0.489840 0.017060 -0.631518
O5    O     O_R   0.510160 0.982940 0.138950 -0.629743
O6    O     O_R   0.489840 0.017060 0.861050 -0.653856
O7    O     O_R   0.489840 0.861050 0.017060 -0.629791
O8    O     O_R   0.510160 0.138950 0.982940 -0.657158
O9    O     O_R   0.017060 0.489840 0.861050 -0.650935
O10   O     O_R   0.982940 0.510160 0.138950 -0.625795
O11   O     O_R   0.861050 0.017060 0.489840 -0.647081
O12   O     O_R   0.138950 0.982940 0.510160 -0.638387
O13   O     O_R   0.867700 0.025880 0.612340 -0.559146
O14   O     O_R   0.132300 0.974120 0.387660 -0.562663
O15   O     O_R   0.025880 0.612340 0.867700 -0.576584
O16   O     O_R   0.974120 0.387660 0.132300 -0.551498
O17   O     O_R   0.612340 0.867700 0.025880 -0.550680
O18   O     O_R   0.387660 0.132300 0.974120 -0.570714
O19   O     O_R   0.387660 0.974120 0.132300 -0.561261
O20   O     O_R   0.612340 0.025880 0.867700 -0.564604
O21   O     O_R   0.132300 0.387660 0.974120 -0.558471
O22   O     O_R   0.867700 0.612340 0.025880 -0.562639
O23   O     O_R   0.974120 0.132300 0.387660 -0.568717
O24   O     O_R   0.025880 0.867700 0.612340 -0.560078
Zn1   Zn    Zn3+2 0.004880 0.004880 0.583590 1.152511
Zn2   Zn    Zn3+2 0.995120 0.995120 0.416410 1.136100
Zn3   Zn    Zn3+2 0.004880 0.583590 0.004880 1.143340
Zn4   Zn    Zn3+2 0.995120 0.416410 0.995120 1.150666
Zn5   Zn    Zn3+2 0.583590 0.004880 0.004880 1.146087
Zn6   Zn    Zn3+2 0.416410 0.995120 0.995120 1.143610
Br1   Br    Br    0.218249 0.043771 0.222039 -0.293384
Br2   Br    Br    0.763075 0.925266 0.759419 -0.368767
Br3   Br    Br    0.041933 0.223781 0.221165 -0.282308
Br4   Br    Br    0.959654 0.777592 0.779803 -0.290930
Br5   Br    Br    0.240847 0.240319 0.075262 -0.369706
Br6   Br    Br    0.779323 0.781307 0.957190 -0.278822
Br7   Br    Br    0.291088 0.959846 0.845291 -0.306751
Br8   Br    Br    0.670064 0.144069 0.123315 -0.375952
Br9   Br    Br    0.840594 0.864651 0.350262 -0.398357
Br10  Br    Br    0.135449 0.138648 0.662884 -0.383492
Br11  Br    Br    0.881460 0.325680 0.858285 -0.367011
Br12  Br    Br    0.159677 0.725388 0.000804 -0.310182
Br13  Br    Br    0.216361 0.885434 0.742597 -0.338684
Br14  Br    Br    0.784613 0.154543 0.235847 -0.339811
Br15  Br    Br    0.769167 0.211410 0.845656 -0.343210
Br16  Br    Br    0.258360 0.804111 0.075890 -0.330386
Br17  Br    Br    0.830612 0.749809 0.237573 -0.356733
Br18  Br    Br    0.160365 0.253129 0.765660 -0.373757

loop_
_geom_bond_atom_site_label_1
_geom_bond_atom_site_label_2
_ccdc_geom_bond_type
O18   Zn6   S    
C83   C87   A    
C30   O12   A    
C68   C80   A    
C29   O11   A    
C18   C96   A    
C81   Br18  S    
C6    C58   A    
C60   H12   S    
O6    Zn6   S    
C12   C48   A    
C79   Br14  S    
C55   C68   A    
C80   Br13  S    
C75   C95   A    
C5    C57   A    
C78   C90   A    
C9    C45   A    
C77   C89   A    
C58   H10   S    
C17   C35   A    
C26   C41   S    
C66   Br6   S    
C15   C33   A    
C23   O5    A    
C95   C99   A    
C58   C71   A    
O15   Zn3   S    
C3    C33   A    
C10   C54   A    
C74   C92   A    
C96   C100  A    
C1    C31   A    
O5    Zn5   S    
C2    C32   A    
C20   O24   A    
C13   C98   A    
C2    C38   A    
C80   C86   A    
C16   C34   A    
O20   Zn5   S    
C11   C47   A    
C30   O14   A    
C83   Br16  S    
C4    C40   A    
C29   C38   S    
C10   C46   A    
C9    C36   A    
C21   O3    A    
C10   C35   A    
C17   C95   A    
C7    C43   A    
C76   C88   A    
C1    C37   A    
C81   C89   A    
C52   H4    S    
C56   H8    S    
C64   Br4   S    
C65   Br5   S    
O7    Zn6   S    
O13   Zn1   S    
O8    Zn5   S    
C70   C82   A    
O17   Zn5   S    
C63   Br3   S    
C12   C52   A    
C84   Br15  S    
C14   C92   A    
C71   C83   A    
O21   Zn4   S    
O11   Zn2   S    
O23   Zn2   S    
C4    C34   A    
O12   Zn1   S    
C24   O6    A    
C23   O19   A    
C92   C98   A    
C88   Br11  S    
C84   C88   A    
C67   C79   A    
C73   C91   A    
C46   C65   A    
C50   C73   A    
C93   C101  A    
C47   C64   A    
C20   O2    A    
C27   O9    A    
C19   C48   S    
C48   C63   A    
C41   C65   A    
C28   C39   S    
C71   C99   A    
C91   C97   A    
C23   C44   S    
C30   C37   S    
C22   O22   A    
O3    Zn3   S    
C49   H1    S    
O22   Zn3   S    
C53   H5    S    
C61   Br1   S    
C19   O1    A    
C27   C40   S    
C19   O23   A    
C73   C85   A    
C4    C60   A    
C70   C102  A    
C74   C86   A    
C90   Br9   S    
C7    C49   A    
C72   C84   A    
C69   C81   A    
C75   C87   A    
O1    Zn1   S    
C29   O13   A    
C62   Br2   S    
C27   O15   A    
O10   Zn3   S    
C53   C76   A    
C9    C53   A    
C18   C99   A    
C52   C77   A    
C25   O17   A    
C8    C50   A    
C79   C85   A    
C26   O18   A    
C14   C97   A    
C21   C46   S    
C72   C100  A    
C24   O20   A    
C22   O4    A    
C5    C41   A    
O19   Zn6   S    
C7    C32   A    
C87   Br12  S    
C8    C31   A    
C13   C31   A    
C11   C34   A    
C15   C102  A    
C8    C44   A    
C14   C32   A    
C59   H11   S    
O4    Zn4   S    
C40   C64   A    
C25   C42   S    
C15   C93   A    
C37   C61   A    
C28   O10   A    
C82   Br17  S    
C69   C101  A    
C44   C61   A    
C56   C67   A    
C39   C63   A    
C16   C94   A    
C82   C90   A    
C54   H6    S    
O14   Zn2   S    
C51   C78   A    
C2    C56   A    
C86   Br7   S    
C76   C96   A    
C89   Br10  S    
C57   H9    S    
C25   O7    A    
C60   C69   A    
C78   C94   A    
C5    C35   A    
O9    Zn4   S    
C77   C93   A    
C6    C36   A    
C28   O16   A    
C57   C72   A    
C1    C55   A    
O16   Zn4   S    
C17   C100  A    
C68   C98   A    
C51   H3    S    
C85   Br8   S    
C20   C47   S    
C11   C51   A    
O24   Zn1   S    
C67   C97   A    
C59   C70   A    
C3    C39   A    
C54   C75   A    
C16   C101  A    
C22   C45   S    
C94   C102  A    
C6    C42   A    
C45   C66   A    
C42   C66   A    
C24   C43   S    
C49   C74   A    
C55   H7    S    
C26   O8    A    
O2    Zn2   S    
C12   C33   A    
C18   C36   A    
C21   O21   A    
C13   C91   A    
C50   H2    S    
C43   C62   A    
C38   C62   A    
C3    C59   A    
