data_mof_unit_49776.cif
_audit_creation_date              2012-12-10T20:58:03-0500
_audit_creation_method            fapswitch 2.2
_symmetry_space_group_name_H-M    P1
_symmetry_Int_Tables_number       1
_space_group_crystal_system       triclinic
_cell_length_a                    18.207187
_cell_length_b                    18.239386
_cell_length_c                    18.39476
_cell_angle_alpha                 119.96989
_cell_angle_beta                  90.099096
_cell_angle_gamma                 119.904078
_cell_volume                      4323.9726741

loop_
_atom_site_label
_atom_site_type_symbol
_atom_type_description
_atom_site_fract_x
_atom_site_fract_y
_atom_site_fract_z
_atom_type_partial_charge
C1    C     C_R   0.360201 0.220073 0.361110 0.508777
C2    C     C_3   0.800127 0.941599 0.720640 -0.229601
C3    C     C_3   0.698741 0.897527 0.700695 0.069668
C4    C     C_R   0.640972 0.780970 0.639892 0.482286
C5    C     C_3   0.799365 0.102481 0.803612 0.055396
C6    C     C_3   0.739462 0.059339 0.850994 -0.211838
C7    C     C_3   0.858670 0.060772 0.781694 -0.231852
C8    C     C_3   0.638955 0.421221 0.201548 -0.246846
C9    C     C_3   0.698026 0.422689 0.142127 -0.248125
C10   C     C_3   0.758541 0.607746 0.320158 -0.290735
C11   C     C_3   0.758154 0.466178 0.318525 0.450853
C12   C     C_3   0.272455 0.573648 0.359866 -0.230950
C13   C     C_3   0.698329 0.498945 0.301789 0.134993
C14   C     C_3   0.799121 0.498892 0.199734 0.019726
C15   C     C_3   0.821086 0.608861 0.263540 -0.261646
C16   C     C_R   0.359297 0.500656 0.640665 0.505657
C17   C     C_3   0.815859 0.463948 0.255630 -0.184899
C18   C     C_R   0.456026 0.171587 0.557390 -0.144068
C19   C     C_R   0.417004 0.126303 0.467853 -0.094832
C20   C     C_R   0.330663 0.098648 0.437275 0.011558
C21   C     C_R   0.283585 0.116471 0.496978 -0.008136
C22   C     C_R   0.322637 0.162765 0.587042 0.261832
C23   C     C_3   0.299551 0.500063 0.302257 0.069422
C24   C     C_R   0.409373 0.189957 0.616969 -0.103025
C25   C     C_R   0.233855 0.943708 0.286662 -0.156761
C26   C     C_R   0.193734 0.892298 0.195801 0.009966
C27   C     C_R   0.209098 0.949314 0.159571 -0.055403
C28   C     C_R   0.640703 0.499859 0.359378 0.564367
C29   C     C_R   0.264058 0.056307 0.215539 -0.162212
C30   C     C_R   0.304349 0.107697 0.306354 0.022782
C31   C     C_R   0.289251 0.050671 0.342490 -0.036197
C32   C     C_R   0.215916 0.881015 0.004101 0.044466
C33   C     C_R   0.175732 0.835113 0.913780 -0.075231
C34   C     C_3   0.197367 0.499743 0.200635 0.069625
C35   C     C_R   0.091121 0.810445 0.883678 -0.175551
C36   C     C_R   0.044630 0.830501 0.942431 -0.052759
C37   C     C_R   0.081525 0.875263 0.032288 0.274453
C38   C     C_R   0.168063 0.901053 0.064011 0.050709
C39   C     C_R   0.941854 0.693083 0.620671 -0.072676
C40   C     C_R   0.641935 0.500981 0.640857 0.507042
C41   C     C_R   0.887583 0.617532 0.635768 0.075587
C42   C     C_R   0.845570 0.640081 0.700899 0.068684
C43   C     C_R   0.860744 0.737922 0.750373 -0.085994
C44   C     C_R   0.915913 0.812311 0.735218 -0.119307
C45   C     C_3   0.152024 0.389423 0.177858 -0.234092
C46   C     C_R   0.955830 0.789692 0.670070 -0.123356
C47   C     C_R   0.842180 0.563371 0.778552 -0.156617
C48   C     C_R   0.799252 0.498082 0.805707 0.024524
C49   C     C_R   0.704475 0.434687 0.779253 -0.038754
C50   C     C_R   0.655456 0.439354 0.726664 -0.163011
C51   C     C_R   0.698448 0.503670 0.698381 0.016764
C52   C     C_R   0.357802 0.500014 0.359490 0.494033
C53   C     C_R   0.793321 0.567251 0.725118 -0.042078
C54   C     C_R   0.633471 0.262169 0.753501 -0.072001
C55   C     C_R   0.585294 0.193898 0.776977 -0.103763
C56   C     C_3   0.213388 0.574177 0.300633 -0.229935
C57   C     C_R   0.556791 0.225138 0.850603 -0.100027
C58   C     C_R   0.576004 0.324517 0.900610 -0.115551
C59   C     C_R   0.624080 0.393004 0.877315 -0.082671
C60   C     C_R   0.653485 0.362307 0.803912 0.060388
C61   C     C_R   0.404847 0.816708 0.742713 -0.113877
C62   C     C_R   0.375461 0.741446 0.759393 -0.071572
C63   C     C_R   0.298742 0.640532 0.697952 0.066915
C64   C     C_3   0.350218 0.536719 0.246827 -0.235513
C65   C     C_R   0.251562 0.615653 0.619627 -0.083692
C66   C     C_R   0.280926 0.691389 0.603461 -0.106123
C67   C     C_3   0.678974 0.940575 0.654434 -0.249108
C68   C     C_R   0.357685 0.791667 0.664740 -0.098239
C69   C     C_R   0.208074 0.554655 0.766191 0.201920
C70   C     C_R   0.190763 0.495493 0.800536 0.047290
C71   C     C_R   0.224932 0.434774 0.777351 -0.084038
C72   C     C_R   0.278126 0.437111 0.723955 -0.168809
C73   C     C_R   0.301064 0.500818 0.695002 -0.020951
C74   C     C_R   0.267270 0.561868 0.717294 -0.036634
C75   C     C_R   0.266167 0.404942 0.884848 -0.074746
C76   C     C_3   0.289968 0.536091 0.186785 -0.234215
C77   C     C_R   0.248993 0.340522 0.912200 -0.109254
C78   C     C_3   0.737886 0.060518 0.714738 -0.241764
C79   C     C_R   0.172893 0.238044 0.861510 -0.094950
C80   C     C_R   0.114079 0.199595 0.783091 -0.085274
C81   C     C_R   0.131014 0.263706 0.755447 -0.035786
C82   C     C_R   0.206910 0.366935 0.806556 0.073206
C83   C     C_R   0.856922 0.499881 0.142636 0.499937
C84   C     C_R   0.137313 0.498547 0.860189 0.526632
C85   C     C_R   0.856863 0.219002 0.862072 0.489773
C86   C     C_R   0.137638 0.779935 0.141100 0.503020
C87   C     C_R   0.855830 0.499430 0.861796 0.509828
C88   C     C_3   0.212270 0.389506 0.237376 -0.231354
C89   C     C_3   0.678875 0.938342 0.790747 -0.085470
C90   C     C_R   0.139526 0.499716 0.142886 0.495021
C91   C     C_3   0.688756 0.894154 0.840747 -0.283647
C92   C     C_3   0.647826 0.913764 0.915212 -0.458522
C93   C     C_3   0.308566 0.908900 0.038765 -0.262459
C94   C     C_3   0.353798 0.880996 0.969391 -0.454786
C95   C     C_3   0.876517 0.515002 0.581982 -0.274761
C96   C     C_3   0.962639 0.527247 0.611793 -0.462087
H1    H     H_    0.370334 0.485098 0.204538 0.123789
H2    H     H_    0.695900 0.087612 0.867440 0.114715
H3    H     H_    0.817513 0.911898 0.752683 0.122001
H4    H     H_    0.412809 0.616299 0.292084 0.103429
H5    H     H_    0.815492 0.915390 0.657375 0.125727
H6    H     H_    0.903092 0.091068 0.748095 0.125507
H7    H     H_    0.902747 0.088086 0.844187 0.124414
H8    H     H_    0.783697 0.090662 0.915338 0.113210
H9    H     H_    0.595015 0.441816 0.187713 0.110326
H10   H     H_    0.593941 0.341249 0.183905 0.172552
H11   H     H_    0.680237 0.342985 0.095058 0.138512
H12   H     H_    0.147991 0.550296 0.312868 0.123682
H13   H     H_    0.683897 0.446519 0.101771 0.134950
H14   H     H_    0.715464 0.627610 0.303181 0.104336
H15   H     H_    0.323770 0.615235 0.202759 0.105179
H16   H     H_    0.812980 0.636968 0.224620 0.126126
H17   H     H_    0.798744 0.384362 0.209821 0.105601
H18   H     H_    0.888587 0.514445 0.294828 0.108559
H19   H     H_    0.799163 0.668935 0.391882 0.129814
H20   H     H_    0.892240 0.664165 0.308425 0.133484
H21   H     H_    0.440839 0.225425 0.686186 0.098625
H22   H     H_    0.522690 0.192809 0.580690 0.107972
H23   H     H_    0.174642 0.361520 0.275681 0.108915
H24   H     H_    0.453918 0.112847 0.422374 0.109121
H25   H     H_    0.280867 0.483745 0.115901 0.125046
H26   H     H_    0.216876 0.095316 0.473618 0.123872
H27   H     H_    0.223147 0.900558 0.314718 0.142445
H28   H     H_    0.274631 0.099410 0.187471 0.143726
H29   H     H_    0.208963 0.817927 0.865451 0.134535
H30   H     H_    0.061291 0.775402 0.814192 0.117604
H31   H     H_    0.978909 0.810782 0.917877 0.132610
H32   H     H_    0.998443 0.847523 0.658396 0.105119
H33   H     H_    0.229136 0.334584 0.194435 0.133682
H34   H     H_    0.085528 0.361992 0.187853 0.105171
H35   H     H_    0.974146 0.677356 0.570928 0.111599
H36   H     H_    0.830960 0.757099 0.801877 0.098947
H37   H     H_    0.928789 0.888166 0.774848 0.093162
H38   H     H_    0.914789 0.612166 0.798770 0.147057
H39   H     H_    0.582867 0.391577 0.707538 0.146562
H40   H     H_    0.655487 0.237400 0.696497 0.087687
H41   H     H_    0.569970 0.116768 0.738104 0.086662
H42   H     H_    0.519646 0.172271 0.868774 0.097715
H43   H     H_    0.553599 0.348440 0.957393 0.091737
H44   H     H_    0.139932 0.334111 0.106655 0.130881
H45   H     H_    0.606804 0.911202 0.638863 0.123351
H46   H     H_    0.638757 0.469880 0.916511 0.099417
H47   H     H_    0.380323 0.850107 0.652046 0.095796
H48   H     H_    0.463811 0.894571 0.790470 0.084870
H49   H     H_    0.412040 0.761537 0.820139 0.087546
H50   H     H_    0.191954 0.538226 0.571881 0.090445
H51   H     H_    0.243898 0.672677 0.543786 0.088939
H52   H     H_    0.303334 0.389781 0.706483 0.180285
H53   H     H_    0.325206 0.484266 0.924607 0.091079
H54   H     H_    0.294741 0.369931 0.972574 0.088319
H55   H     H_    0.234627 0.547613 0.399079 0.121396
H56   H     H_    0.692259 0.913044 0.590116 0.106768
H57   H     H_    0.159663 0.188340 0.882828 0.097575
H58   H     H_    0.055491 0.120073 0.743679 0.089320
H59   H     H_    0.085039 0.233292 0.694651 0.097702
H60   H     H_    0.333450 0.653918 0.407788 0.128953
H61   H     H_    0.246913 0.654525 0.319506 0.129487
H62   H     H_    0.683243 0.997970 0.967053 0.146434
H63   H     H_    0.575582 0.878815 0.887887 0.141569
H64   H     H_    0.653790 0.877904 0.946961 0.142398
H65   H     H_    0.653837 0.809072 0.794158 0.153244
H66   H     H_    0.760722 0.928951 0.869756 0.143388
H67   H     H_    0.779608 0.090546 0.679506 0.109084
H68   H     H_    0.862297 0.601603 0.419905 0.296731
H69   H     H_    0.740257 0.350964 0.317574 0.331259
H70   H     H_    0.311717 0.214324 0.704777 0.318715
H71   H     H_    0.312186 0.796114 0.917903 0.196831
H72   H     H_    0.365168 0.922621 0.938020 0.141547
H73   H     H_    0.420124 0.904325 0.002266 0.130343
H74   H     H_    0.354051 0.993701 0.090711 0.144710
H75   H     H_    0.302598 0.868909 0.070615 0.159080
H76   H     H_    0.062598 0.923444 0.147696 0.327003
H77   H     H_    0.952155 0.450741 0.572274 0.142880
H78   H     H_    0.693807 0.088096 0.728006 0.124110
H79   H     H_    0.019064 0.580811 0.601379 0.140085
H80   H     H_    0.981014 0.557820 0.683297 0.172351
H81   H     H_    0.820422 0.455801 0.587575 0.149260
H82   H     H_    0.859370 0.484247 0.510340 0.186885
H83   H     H_    0.165403 0.620937 0.738501 0.313296
H84   H     H_    0.607570 0.912025 0.774020 0.144145
O1    O     O_3   0.500000 0.500000 0.500000 -0.442418
O2    O     O_R   0.113800 0.731630 0.056520 -0.533000
O3    O     O_R   0.819390 0.439310 0.886160 -0.534362
O4    O     O_R   0.383400 0.268380 0.323710 -0.549995
O5    O     O_R   0.115110 0.560720 0.179280 -0.554754
O6    O     O_R   0.941380 0.560750 0.885620 -0.542747
O7    O     O_R   0.115110 0.439270 0.057830 -0.546838
O8    O     O_R   0.942690 0.268390 0.886930 -0.550361
O9    O     O_R   0.114340 0.731630 0.178520 -0.554164
O10   O     O_R   0.820160 0.439310 0.057830 -0.544662
O11   O     O_R   0.113800 0.560730 0.885620 -0.471530
O12   O     O_R   0.383400 0.560740 0.616060 -0.532610
O13   O     O_R   0.555060 0.731630 0.615290 -0.549148
O14   O     O_R   0.383950 0.439280 0.616600 -0.545833
O15   O     O_R   0.677590 0.560710 0.444390 -0.502520
O16   O     O_R   0.556370 0.439260 0.616600 -0.551070
O17   O     O_R   0.382640 0.439290 0.322940 -0.554962
O18   O     O_R   0.678360 0.560700 0.616060 -0.527001
O19   O     O_R   0.382640 0.560750 0.444390 -0.549186
O20   O     O_3   0.813803 0.534736 0.408622 -0.695276
O21   O     O_3   0.701423 0.366295 0.298991 -0.696561
O22   O     O_3   0.274715 0.180443 0.643792 -0.720780
O23   O     O_R   0.555060 0.439270 0.322940 -0.560517
O24   O     O_3   0.030502 0.891949 0.085833 -0.718354
O25   O     O_3   0.168002 0.606662 0.783324 -0.696969
O26   O     O_R   0.383950 0.268380 0.445700 -0.533068
O27   O     O_R   0.677590 0.731610 0.615290 -0.554798
O28   O     O_3   0.997750 0.500010 0.002220 -0.441920
O29   O     O_R   0.942690 0.560750 0.179280 -0.550353
O30   O     O_R   0.114340 0.439270 0.886160 -0.555977
O31   O     O_R   0.820160 0.268410 0.886930 -0.546907
Zn1   Zn    Zn3+2 0.456040 0.586770 0.543190 0.919713
Zn2   Zn    Zn3+2 0.456820 0.413240 0.543960 0.941199
Zn3   Zn    Zn3+2 0.631110 0.586750 0.543190 0.951818
Zn4   Zn    Zn3+2 0.456040 0.413240 0.369660 0.922238
Zn5   Zn    Zn3+2 0.041710 0.413240 0.959030 0.916358
Zn6   Zn    Zn3+2 0.866640 0.413270 0.959030 0.928103
Zn7   Zn    Zn3+2 0.040930 0.586780 0.958260 0.966393
Zn8   Zn    Zn3+2 0.041710 0.586770 0.132560 0.910888

loop_
_geom_bond_atom_site_label_1
_geom_bond_atom_site_label_2
_ccdc_geom_bond_type
C58   H43   S    
C25   C31   A    
C66   C68   A    
C63   C65   A    
C34   C56   S    
C8    C13   S    
C96   H79   S    
C27   C29   A    
C41   C42   A    
C83   O10   A    
C95   C96   S    
C14   C17   S    
C43   C44   A    
C8    H9    S    
O14   Zn2   S    
H83   O25   S    
C81   C82   A    
O8    Zn5   S    
C17   H17   S    
C39   C41   A    
C54   C60   A    
C61   H48   S    
O6    Zn7   S    
C12   C23   S    
C26   C27   A    
C37   C38   A    
C49   C60   S    
C39   H35   S    
C84   O11   A    
C92   H63   S    
C18   C24   A    
C76   H25   S    
C88   H33   S    
C46   H32   S    
C36   C37   A    
C75   H53   S    
O19   Zn1   S    
C45   H34   S    
C10   C15   S    
C65   H50   S    
C42   C53   S    
C87   O3    A    
C30   C31   A    
C84   O30   A    
C90   O7    A    
C27   C38   S    
C29   H28   S    
O28   Zn6   S    
C28   O15   A    
C68   H47   S    
C92   H62   S    
C18   C19   A    
C11   O21   S    
C89   H84   S    
C21   H26   S    
H76   O24   S    
C6    C89   S    
H69   O21   S    
C11   O20   S    
O12   Zn1   S    
O15   Zn3   S    
C16   O12   A    
C33   C35   A    
C54   C55   A    
C95   H81   S    
C93   H75   S    
C2    C7    S    
C59   H46   S    
C8    C9    S    
C62   H49   S    
C48   C49   A    
C91   H66   S    
C10   H14   S    
C70   C71   A    
C6    H8    S    
C89   C91   S    
C29   C30   A    
C70   C84   S    
C18   H22   S    
C61   C62   A    
O17   Zn4   S    
C47   C53   A    
C71   C82   S    
C5    C85   S    
C64   C76   S    
O28   Zn8   S    
C32   C93   S    
C59   C60   A    
O28   Zn5   S    
C7    H7    S    
C21   C22   A    
C9    H13   S    
C12   H55   S    
C41   C95   S    
C67   C78   S    
C14   C83   S    
C12   H60   S    
C85   O31   A    
O11   Zn7   S    
C1    O4    A    
C44   C46   A    
C17   H18   S    
C87   O6    A    
C57   C58   A    
C77   C79   A    
C73   C74   A    
O28   Zn7   S    
C4    O13   A    
O31   Zn6   S    
C3    C89   S    
C93   H74   S    
C96   H77   S    
C22   O22   S    
C16   C73   S    
O29   Zn8   S    
C15   H16   S    
C45   C88   S    
O1    Zn4   S    
C94   H72   S    
C91   C92   S    
C5    C7    S    
C72   C73   A    
O4    Zn4   S    
C2    H5    S    
C25   C26   A    
C72   H52   S    
C7    H6    S    
C45   H44   S    
C51   C53   A    
C35   C36   A    
C77   H54   S    
C35   H30   S    
C9    C14   S    
C34   C90   S    
C62   C63   A    
C79   H57   S    
C56   H61   S    
C25   H27   S    
C95   H82   S    
C47   C48   A    
C64   H4    S    
C26   C86   S    
C54   H40   S    
C33   H29   S    
C50   C51   A    
C24   H21   S    
C48   C87   S    
C69   C74   A    
C13   C28   S    
C52   O19   A    
C83   O29   A    
C88   H23   S    
C1    O26   A    
C75   C77   A    
C66   H51   S    
O1    Zn3   S    
C34   C45   S    
C39   C46   A    
O26   Zn2   S    
C23   C64   S    
C90   O5    A    
C19   H24   S    
O2    Zn7   S    
C32   C38   A    
C23   C88   S    
C55   C57   A    
C47   H38   S    
C55   H41   S    
C49   C50   A    
C22   C24   A    
C36   H31   S    
C42   C43   A    
C3    C4    S    
C67   H45   S    
O10   Zn6   S    
C6    H2    S    
C4    O27   A    
C78   H78   S    
C40   O16   A    
O23   Zn4   S    
C44   H37   S    
O7    Zn5   S    
C11   C17   S    
C86   O9    A    
O5    Zn8   S    
C67   H56   S    
C14   C15   S    
C28   O23   A    
C64   H1    S    
C3    C67   S    
C80   C81   A    
O13   Zn1   S    
C10   C13   S    
C8    H10   S    
C94   H71   S    
C96   H80   S    
O1    Zn1   S    
C75   C82   A    
C80   H58   S    
C63   C74   S    
C9    H11   S    
C40   C51   S    
C93   C94   S    
C69   O25   S    
C81   H59   S    
C92   H64   S    
C50   H39   S    
C32   C33   A    
C19   C20   A    
C2    H3    S    
C58   C59   A    
C71   C72   A    
C94   H73   S    
H70   O22   S    
O16   Zn2   S    
C11   C13   S    
C61   C68   A    
C23   C52   S    
C5    C6    S    
C40   O18   A    
C85   O8    A    
C76   H15   S    
O30   Zn5   S    
C1    C30   S    
C12   C56   S    
C37   O24   S    
C43   H36   S    
C57   H42   S    
C2    C3    S    
O27   Zn3   S    
C69   C70   A    
C16   O14   A    
C79   C80   A    
O9    Zn8   S    
C78   H67   S    
C20   C21   A    
O3    Zn6   S    
C65   C66   A    
C86   O2    A    
C56   H12   S    
C15   H20   S    
C91   H65   S    
O1    Zn2   S    
C52   O17   A    
C5    C78   S    
C10   H19   S    
H68   O20   S    
C34   C76   S    
C20   C31   S    
O18   Zn3   S    
