data_mof_unit_22042.cif
_audit_creation_date              2012-10-26T20:22:07-0400
_audit_creation_method            fapswitch 2.2
_symmetry_space_group_name_H-M    P1
_symmetry_Int_Tables_number       1
_space_group_crystal_system       triclinic
_cell_length_a                    10.936889
_cell_length_b                    9.496612
_cell_length_c                    10.636979
_cell_angle_alpha                 90.161719
_cell_angle_beta                  89.979666
_cell_angle_gamma                 89.554626
_cell_volume                      1104.75485583

loop_
_atom_site_label
_atom_site_type_symbol
_atom_type_description
_atom_site_fract_x
_atom_site_fract_y
_atom_site_fract_z
_atom_type_partial_charge
C1    C     C_R   0.872229 0.497599 0.491129 -0.000738
C2    C     C_3   0.503278 0.366102 0.040347 -0.114148
C3    C     C_3   0.400921 0.431315 0.958472 -0.126300
C4    C     C_3   0.599078 0.568685 0.041528 -0.126300
C5    C     C_3   0.499405 0.500786 0.877712 0.049287
C6    C     C_3   0.500595 0.499214 0.122288 0.049287
C7    C     C_R   0.425622 0.074905 0.420311 0.006598
C8    C     C_R   0.574382 0.925095 0.579682 0.006585
C9    C     C_R   0.574219 0.074081 0.579832 0.006029
C10   C     C_R   0.425785 0.925918 0.420161 0.006042
C11   C     C_R   0.064666 0.375351 0.530703 0.096926
C12   C     C_R   0.127772 0.502402 0.508873 -0.000736
C13   C     C_R   0.935335 0.624650 0.469301 0.096925
C14   C     C_R   0.937630 0.371489 0.516396 0.095070
C15   C     C_R   0.062371 0.628512 0.483607 0.095072
C16   C     C_3   0.153764 0.243210 0.702132 -0.294680
C17   C     C_3   0.846234 0.756799 0.297879 -0.294675
C18   C     C_3   0.860157 0.163706 0.412386 -0.292924
C19   C     C_3   0.139850 0.836290 0.587619 -0.292929
C20   C     C_R   0.262019 0.500769 0.504368 0.575737
C21   C     C_R   0.737982 0.499231 0.495632 0.575739
C22   C     C_R   0.500482 0.499753 0.259104 0.541049
C23   C     C_R   0.499518 0.500247 0.740896 0.541046
C24   C     C_3   0.398253 0.564313 0.042660 -0.126592
C25   C     C_3   0.601747 0.435687 0.957340 -0.126591
C26   C     C_3   0.496722 0.633898 0.959653 -0.114149
Cu1   Cu    Cu3+1 0.500000 0.640660 0.500000 0.936637
Cu2   Cu    Cu3+1 0.500000 0.359340 0.500000 0.936640
H1    H     H_    0.365936 0.131530 0.356692 0.112663
H2    H     H_    0.506003 0.256306 0.075889 0.110667
H3    H     H_    0.099845 0.157996 0.530480 0.242567
H4    H     H_    0.067012 0.231461 0.755274 0.112609
H5    H     H_    0.201335 0.339479 0.734737 0.152592
H6    H     H_    0.213709 0.150907 0.721469 0.135509
H7    H     H_    0.900154 0.842006 0.469533 0.242564
H8    H     H_    0.932981 0.768582 0.244739 0.112602
H9    H     H_    0.786268 0.849087 0.278550 0.135520
H10   H     H_    0.798684 0.660519 0.265265 0.152583
H11   H     H_    0.903245 0.178216 0.602877 0.237831
H12   H     H_    0.634074 0.868470 0.643288 0.112675
H13   H     H_    0.949737 0.124623 0.376987 0.109936
H14   H     H_    0.817142 0.231738 0.339696 0.165334
H15   H     H_    0.799598 0.072369 0.428488 0.140211
H16   H     H_    0.096753 0.821788 0.397130 0.237832
H17   H     H_    0.050270 0.875345 0.623038 0.109942
H18   H     H_    0.200388 0.927640 0.571513 0.140209
H19   H     H_    0.182887 0.768263 0.660300 0.165343
H20   H     H_    0.633802 0.130056 0.643535 0.120860
H21   H     H_    0.366210 0.869943 0.356444 0.120850
H22   H     H_    0.319761 0.374697 0.922594 0.090768
H23   H     H_    0.680239 0.625302 0.077406 0.090770
H24   H     H_    0.315039 0.616902 0.080670 0.100245
H25   H     H_    0.684961 0.383098 0.919330 0.100245
H26   H     H_    0.493996 0.743694 0.924110 0.110669
N1    N     N_R   0.500000 0.852070 0.500000 -0.222691
N2    N     N_R   0.500000 0.147930 0.500000 -0.222690
N3    N     N_2   0.129369 0.251418 0.568722 -0.488526
N4    N     N_2   0.870631 0.748585 0.431288 -0.488529
N5    N     N_2   0.875387 0.240710 0.529025 -0.494675
N6    N     N_2   0.124613 0.759292 0.470980 -0.494674
O1    O     O_R   0.319640 0.618740 0.499990 -0.476973
O2    O     O_R   0.680360 0.381260 0.500010 -0.476973
O3    O     O_R   0.680360 0.618740 0.500010 -0.472674
O4    O     O_R   0.319640 0.381260 0.499990 -0.472673
O5    O     O_R   0.499970 0.618770 0.316850 -0.509720
O6    O     O_R   0.500030 0.381230 0.683150 -0.509718
O7    O     O_R   0.500030 0.618770 0.683150 -0.518493
O8    O     O_R   0.499970 0.381230 0.316850 -0.518493

loop_
_geom_bond_atom_site_label_1
_geom_bond_atom_site_label_2
_ccdc_geom_bond_type
C20   O4    A    
C7    C10   A    
C4    C26   S    
C11   C12   A    
C19   H17   S    
C22   O5    A    
C1    C21   S    
C7    H1    S    
C17   H8    S    
C16   H5    S    
C16   H4    S    
Cu1   O1    S    
C15   N6    S    
Cu2   O6    S    
C5    C23   S    
C12   C15   A    
C17   N4    S    
C2    H2    S    
H11   N5    S    
C12   C20   S    
C13   C15   A    
C2    C3    S    
Cu2   N2    S    
C19   H18   S    
C6    C24   S    
C9    N2    A    
C17   H9    S    
C18   H15   S    
C25   H25   S    
C16   N3    S    
C22   O8    A    
C21   O2    A    
C2    C6    S    
Cu1   O3    S    
C7    N2    A    
H16   N6    S    
H7    N4    S    
C5    C25   S    
Cu2   O4    S    
C8    N1    A    
Cu1   O5    S    
Cu2   O8    S    
C3    H22   S    
C24   C26   S    
C4    C25   S    
C2    C25   S    
C19   H19   S    
C24   H24   S    
C18   H14   S    
C10   N1    A    
C19   N6    S    
C11   C14   A    
Cu1   N1    S    
C21   O3    A    
C1    C13   A    
C4    H23   S    
C5    C26   S    
C6    C22   S    
C26   H26   S    
C18   N5    S    
C20   O1    A    
Cu1   O7    S    
C17   H10   S    
C23   O6    A    
C9    H20   S    
C4    C6    S    
C18   H13   S    
C23   O7    A    
Cu1   Cu2   S    
C13   N4    S    
C8    H12   S    
C1    C14   A    
C16   H6    S    
C11   N3    S    
C10   H21   S    
C14   N5    S    
H3    N3    S    
C3    C24   S    
C8    C9    A    
C3    C5    S    
Cu2   O2    S    
