data_mof_unit_60555.cif
_audit_creation_date              2012-12-10T19:53:38-0500
_audit_creation_method            fapswitch 2.2
_symmetry_space_group_name_H-M    P1
_symmetry_Int_Tables_number       1
_space_group_crystal_system       triclinic
_cell_length_a                    18.393083
_cell_length_b                    18.393076
_cell_length_c                    43.008875
_cell_angle_alpha                 89.999986
_cell_angle_beta                  89.999986
_cell_angle_gamma                 89.998544
_cell_volume                      14550.1335157

loop_
_atom_site_label
_atom_site_type_symbol
_atom_type_description
_atom_site_fract_x
_atom_site_fract_y
_atom_site_fract_z
_atom_type_partial_charge
C1    C     C_R   0.000000 0.500000 0.915825 0.781659
C2    C     C_R   0.500000 1.000000 0.118673 -0.109582
C3    C     C_R   0.757472 0.811508 0.019760 -0.213558
C4    C     C_R   0.811508 0.757472 0.019760 -0.213561
C5    C     C_R   0.757807 0.188158 0.019542 -0.218718
C6    C     C_R   0.188492 0.242528 0.019760 -0.213561
C7    C     C_R   0.242193 0.811842 0.019542 -0.218718
C8    C     C_R   0.688158 0.257807 0.519542 -0.218717
C9    C     C_R   0.742528 0.688492 0.519760 -0.213561
C10   C     C_R   0.311842 0.742193 0.519542 -0.218717
C11   C     C_R   0.257472 0.311508 0.519760 -0.213561
C12   C     C_R   0.311508 0.257472 0.519760 -0.213560
C13   C     C_R   0.500000 1.000000 0.618673 -0.109602
C14   C     C_R   0.257807 0.688158 0.519542 -0.218716
C15   C     C_R   0.688492 0.742528 0.519760 -0.213560
C16   C     C_R   0.742193 0.311842 0.519542 -0.218717
C17   C     C_3   0.353994 0.705238 0.958188 -0.475600
C18   C     C_3   0.294241 0.353476 0.957855 -0.475550
C19   C     C_3   0.646006 0.294762 0.958188 -0.475601
C20   C     C_3   0.705759 0.646524 0.957855 -0.475550
C21   C     C_3   0.646524 0.705758 0.957855 -0.475550
C22   C     C_3   0.705239 0.353994 0.958188 -0.475601
C23   C     C_3   0.353476 0.294241 0.957855 -0.475551
C24   C     C_R   1.000000 0.500000 0.618673 -0.109593
C25   C     C_3   0.294761 0.646006 0.958188 -0.475602
C26   C     C_3   0.853994 0.205238 0.458188 -0.475601
C27   C     C_3   0.794241 0.853476 0.457855 -0.475551
C28   C     C_3   0.146006 0.794762 0.458188 -0.475602
C29   C     C_3   0.205759 0.146524 0.457855 -0.475550
C30   C     C_3   0.146524 0.205759 0.457855 -0.475550
C31   C     C_3   0.205238 0.853994 0.458188 -0.475600
C32   C     C_3   0.853476 0.794241 0.457855 -0.475550
C33   C     C_3   0.794762 0.146006 0.458188 -0.475600
C34   C     C_R   0.971749 0.560173 0.135197 0.381388
C35   C     C_R   0.500000 1.000000 0.781795 0.283408
C36   C     C_R   0.439835 0.028267 0.135197 0.381378
C37   C     C_R   0.028251 0.439827 0.135197 0.381389
C38   C     C_R   0.560165 0.971733 0.135197 0.381379
C39   C     C_R   0.471755 0.060175 0.635197 0.381389
C40   C     C_R   0.939827 0.528250 0.635197 0.381384
C41   C     C_R   0.528245 0.939825 0.635197 0.381389
C42   C     C_R   0.060173 0.471750 0.635197 0.381384
C43   C     C_R   0.972378 0.559610 0.167863 -0.284288
C44   C     C_R   0.440398 0.027638 0.167863 -0.284286
C45   C     C_R   0.027622 0.440390 0.167863 -0.284288
C46   C     C_R   1.000000 0.500000 0.781795 0.283407
C47   C     C_R   0.559602 0.972362 0.167863 -0.284286
C48   C     C_R   0.472384 0.059612 0.667864 -0.284289
C49   C     C_R   0.940390 0.527621 0.667863 -0.284289
C50   C     C_R   0.527616 0.940388 0.667864 -0.284289
C51   C     C_R   0.059610 0.472379 0.667863 -0.284289
C52   C     C_R   1.000000 0.500000 0.281795 0.283408
C53   C     C_R   0.500000 1.000000 0.281795 0.283408
C54   C     C_R   0.000000 0.500000 0.218669 0.346481
C55   C     C_R   0.500000 0.000000 0.218669 0.346483
C56   C     C_R   0.500000 0.000000 0.718669 0.346482
C57   C     C_R   0.500000 0.000000 0.915825 0.781659
C58   C     C_R   1.000000 0.500000 0.718669 0.346482
C59   C     C_R   0.492215 0.065402 0.832650 -0.165910
C60   C     C_R   0.934599 0.507789 0.832650 -0.165910
C61   C     C_R   0.507785 0.934598 0.832650 -0.165911
C62   C     C_R   0.065401 0.492211 0.832650 -0.165910
C63   C     C_R   0.992223 0.565403 0.332650 -0.165910
C64   C     C_R   0.434600 0.007801 0.332650 -0.165908
C65   C     C_R   0.007777 0.434597 0.332650 -0.165910
C66   C     C_R   0.565400 0.992200 0.332650 -0.165909
C67   C     C_R   0.492430 0.065421 0.865072 -0.193309
C68   C     C_R   0.500000 0.000000 0.415825 0.781657
C69   C     C_R   0.934580 0.507574 0.865072 -0.193308
C70   C     C_R   0.507570 0.934579 0.865072 -0.193308
C71   C     C_R   0.065420 0.492426 0.865072 -0.193307
C72   C     C_R   0.992437 0.565421 0.365071 -0.193307
C73   C     C_R   0.434581 0.007585 0.365072 -0.193307
C74   C     C_R   0.007562 0.434579 0.365072 -0.193308
C75   C     C_R   0.565419 0.992415 0.365071 -0.193306
C76   C     C_R   0.500000 0.000000 0.881578 -0.000865
C77   C     C_R   1.000000 0.500000 0.881578 -0.000865
C78   C     C_R   1.000000 0.500000 0.381578 -0.000868
C79   C     C_R   0.000000 0.500000 0.415825 0.781659
C80   C     C_R   0.500000 0.000000 0.381578 -0.000865
C81   C     C_R   0.500000 0.000000 0.816104 0.087540
C82   C     C_R   1.000000 0.500000 0.816104 0.087539
C83   C     C_R   1.000000 0.500000 0.316103 0.087539
C84   C     C_R   0.500000 0.000000 0.316103 0.087538
C85   C     C_R   1.000000 0.500000 0.084219 0.878852
C86   C     C_R   0.500000 0.000000 0.084219 0.878875
C87   C     C_R   0.500000 1.000000 0.584219 0.878844
C88   C     C_R   0.000000 0.500000 0.584219 0.878851
C89   C     C_R   0.860093 0.639957 0.000015 0.808950
C90   C     C_R   1.000000 0.500000 0.184328 -0.002138
C91   C     C_R   0.360032 0.860104 0.000007 0.804507
C92   C     C_R   0.139907 0.360043 0.000015 0.808950
C93   C     C_R   0.639968 0.139896 0.000007 0.804507
C94   C     C_R   0.139896 0.639968 0.000007 0.804507
C95   C     C_R   0.639957 0.860093 0.000015 0.808952
C96   C     C_R   0.860104 0.360032 0.000007 0.804507
C97   C     C_R   0.360043 0.139907 0.000015 0.808953
C98   C     C_R   0.360093 0.139957 0.500015 0.808948
C99   C     C_R   0.860031 0.360104 0.500008 0.804507
C100  C     C_R   0.639907 0.860043 0.500015 0.808948
C101  C     C_R   0.500000 1.000000 0.184328 -0.002140
C102  C     C_R   0.139968 0.639896 0.500008 0.804507
C103  C     C_R   0.639896 0.139968 0.500008 0.804506
C104  C     C_R   0.139957 0.360093 0.500015 0.808949
C105  C     C_R   0.360104 0.860031 0.500008 0.804507
C106  C     C_R   0.860043 0.639907 0.500015 0.808950
C107  C     C_R   0.256387 0.691760 0.981578 0.133676
C108  C     C_R   0.308110 0.256257 0.981498 0.133173
C109  C     C_R   0.743613 0.308240 0.981578 0.133676
C110  C     C_R   0.691890 0.743743 0.981498 0.133173
C111  C     C_R   0.743743 0.691890 0.981498 0.133173
C112  C     C_R   0.500000 1.000000 0.684329 -0.002138
C113  C     C_R   0.691760 0.256387 0.981578 0.133676
C114  C     C_R   0.256257 0.308110 0.981498 0.133174
C115  C     C_R   0.308240 0.743613 0.981578 0.133676
C116  C     C_R   0.756387 0.191760 0.481578 0.133675
C117  C     C_R   0.808110 0.756257 0.481498 0.133173
C118  C     C_R   0.243613 0.808240 0.481578 0.133675
C119  C     C_R   0.191890 0.243743 0.481498 0.133173
C120  C     C_R   0.243743 0.191890 0.481498 0.133173
C121  C     C_R   0.191760 0.756387 0.481578 0.133675
C122  C     C_R   0.756257 0.808110 0.481498 0.133173
C123  C     C_R   1.000000 0.500000 0.684328 -0.002138
C124  C     C_R   0.808240 0.243613 0.481578 0.133675
C125  C     C_R   0.194953 0.696079 0.000207 -0.082892
C126  C     C_R   0.303992 0.195024 0.000255 -0.084654
C127  C     C_R   0.805047 0.303921 0.000207 -0.082892
C128  C     C_R   0.696008 0.804976 0.000255 -0.084654
C129  C     C_R   0.804976 0.696008 0.000255 -0.084653
C130  C     C_R   0.696079 0.194953 0.000207 -0.082892
C131  C     C_R   0.195024 0.303992 0.000255 -0.084654
C132  C     C_R   0.303921 0.805047 0.000207 -0.082892
C133  C     C_R   0.694953 0.196079 0.500207 -0.082893
C134  C     C_R   1.000000 0.500000 0.118673 -0.109601
C135  C     C_R   0.803992 0.695024 0.500255 -0.084654
C136  C     C_R   0.305047 0.803921 0.500207 -0.082892
C137  C     C_R   0.196008 0.304976 0.500255 -0.084654
C138  C     C_R   0.304976 0.196008 0.500255 -0.084654
C139  C     C_R   0.196079 0.694953 0.500207 -0.082892
C140  C     C_R   0.695024 0.803992 0.500255 -0.084654
C141  C     C_R   0.803921 0.305047 0.500207 -0.082892
C142  C     C_R   0.188158 0.757807 0.019542 -0.218717
C143  C     C_R   0.242528 0.188492 0.019760 -0.213559
C144  C     C_R   0.811841 0.242193 0.019542 -0.218717
H1    H     H_    0.141489 0.764542 0.034621 0.183467
H2    H     H_    0.735987 0.642016 0.534963 0.186381
H3    H     H_    0.358511 0.735458 0.534621 0.183468
H4    H     H_    0.264013 0.357984 0.534963 0.186381
H5    H     H_    0.357984 0.264013 0.534963 0.186381
H6    H     H_    0.264542 0.641489 0.534621 0.183467
H7    H     H_    0.642016 0.735987 0.534963 0.186381
H8    H     H_    0.735458 0.358511 0.534621 0.183468
H9    H     H_    0.357761 0.735668 0.935917 0.209465
H10   H     H_    0.263447 0.356872 0.935665 0.207894
H11   H     H_    0.642239 0.264332 0.935917 0.209465
H12   H     H_    0.235987 0.142016 0.034963 0.186380
H13   H     H_    0.736553 0.643128 0.935665 0.207895
H14   H     H_    0.643128 0.736553 0.935665 0.207894
H15   H     H_    0.735668 0.357761 0.935917 0.209466
H16   H     H_    0.356872 0.263447 0.935665 0.207895
H17   H     H_    0.264332 0.642239 0.935917 0.209466
H18   H     H_    0.857761 0.235668 0.435917 0.209466
H19   H     H_    0.763447 0.856872 0.435665 0.207894
H20   H     H_    0.142239 0.764332 0.435917 0.209466
H21   H     H_    0.236553 0.143128 0.435665 0.207894
H22   H     H_    0.143128 0.236553 0.435665 0.207895
H23   H     H_    0.858511 0.235458 0.034621 0.183467
H24   H     H_    0.235668 0.857761 0.435917 0.209467
H25   H     H_    0.856871 0.763447 0.435665 0.207895
H26   H     H_    0.764332 0.142239 0.435917 0.209467
H27   H     H_    0.406666 0.686735 0.968092 0.204503
H28   H     H_    0.312899 0.406311 0.967543 0.205021
H29   H     H_    0.593334 0.313265 0.968092 0.204503
H30   H     H_    0.687101 0.593688 0.967543 0.205021
H31   H     H_    0.593689 0.687101 0.967543 0.205021
H32   H     H_    0.686735 0.406666 0.968092 0.204503
H33   H     H_    0.406311 0.312899 0.967543 0.205021
H34   H     H_    0.764013 0.857984 0.034963 0.186380
H35   H     H_    0.313265 0.593334 0.968092 0.204503
H36   H     H_    0.906666 0.186735 0.468092 0.204503
H37   H     H_    0.812899 0.906311 0.467543 0.205021
H38   H     H_    0.093334 0.813265 0.468092 0.204503
H39   H     H_    0.187101 0.093689 0.467543 0.205020
H40   H     H_    0.093689 0.187101 0.467543 0.205020
H41   H     H_    0.186735 0.906666 0.468092 0.204503
H42   H     H_    0.906311 0.812899 0.467543 0.205020
H43   H     H_    0.813265 0.093334 0.468092 0.204503
H44   H     H_    0.950421 0.605715 0.180402 0.160317
H45   H     H_    0.857984 0.764013 0.034963 0.186381
H46   H     H_    0.394299 0.049607 0.180401 0.160320
H47   H     H_    0.049578 0.394285 0.180402 0.160317
H48   H     H_    0.605701 0.950393 0.180401 0.160320
H49   H     H_    0.450431 0.105720 0.680402 0.160319
H50   H     H_    0.894285 0.549577 0.680402 0.160320
H51   H     H_    0.549568 0.894280 0.680402 0.160319
H52   H     H_    0.105715 0.450423 0.680402 0.160320
H53   H     H_    0.486280 0.116734 0.820589 0.151153
H54   H     H_    0.883267 0.513728 0.820589 0.151152
H55   H     H_    0.513720 0.883266 0.820589 0.151153
H56   H     H_    0.764542 0.141489 0.034621 0.183466
H57   H     H_    0.116733 0.486272 0.820589 0.151152
H58   H     H_    0.986294 0.616735 0.320589 0.151153
H59   H     H_    0.383269 0.013748 0.320589 0.151151
H60   H     H_    0.013706 0.383264 0.320589 0.151153
H61   H     H_    0.616730 0.986252 0.320589 0.151151
H62   H     H_    0.486398 0.116687 0.877188 0.158815
H63   H     H_    0.883314 0.513610 0.877188 0.158814
H64   H     H_    0.513602 0.883313 0.877188 0.158815
H65   H     H_    0.116686 0.486390 0.877188 0.158814
H66   H     H_    0.986411 0.616688 0.377187 0.158815
H67   H     H_    0.142016 0.235987 0.034963 0.186381
H68   H     H_    0.383317 0.013630 0.377187 0.158813
H69   H     H_    0.013589 0.383312 0.377187 0.158816
H70   H     H_    0.616683 0.986370 0.377187 0.158812
H71   H     H_    0.925042 0.655365 0.134065 0.333576
H72   H     H_    0.344656 0.074998 0.134064 0.333579
H73   H     H_    0.074957 0.344635 0.134065 0.333575
H74   H     H_    0.655344 0.925002 0.134064 0.333579
H75   H     H_    0.425058 0.155373 0.634065 0.333575
H76   H     H_    0.844634 0.574953 0.634065 0.333576
H77   H     H_    0.574942 0.844627 0.634065 0.333575
H78   H     H_    0.235458 0.858511 0.034621 0.183466
H79   H     H_    0.155366 0.425046 0.634065 0.333577
H80   H     H_    0.641489 0.264542 0.534621 0.183468
N1    N     N_R   0.016576 0.438720 0.234771 -0.175659
N2    N     N_R   0.061299 0.483489 0.765702 -0.179615
N3    N     N_R   0.483497 0.061302 0.765702 -0.179615
N4    N     N_R   0.938701 0.516511 0.765702 -0.179615
N5    N     N_R   0.016490 0.438695 0.265702 -0.179616
N6    N     N_R   0.561293 0.983468 0.265702 -0.179614
N7    N     N_R   0.983510 0.561305 0.265702 -0.179616
N8    N     N_R   0.438707 0.016532 0.265702 -0.179614
N9    N     N_R   0.561268 0.983382 0.234771 -0.175661
N10   N     N_R   0.983424 0.561280 0.234771 -0.175659
N11   N     N_R   0.438732 0.016618 0.234771 -0.175661
N12   N     N_R   0.516589 0.938724 0.734771 -0.175661
N13   N     N_R   0.061274 0.483402 0.734771 -0.175661
N14   N     N_R   0.483411 0.061276 0.734771 -0.175661
N15   N     N_R   0.938726 0.516598 0.734771 -0.175661
N16   N     N_R   0.516502 0.938698 0.765703 -0.179615
O1    O     O_3   1.000000 0.500000 0.999980 -0.491592
O2    O     O_R   1.000000 0.560770 0.430670 -0.647592
O3    O     O_R   0.439230 0.000000 0.430670 -0.647590
O4    O     O_R   1.000000 0.439230 0.430670 -0.647592
O5    O     O_R   1.000000 0.560690 0.069300 -0.594006
O6    O     O_R   0.439310 1.000000 0.069300 -0.594015
O7    O     O_R   1.000000 0.439310 0.069300 -0.594006
O8    O     O_R   0.560690 1.000000 0.069300 -0.594016
O9    O     O_R   0.500000 0.060690 0.569300 -0.594003
O10   O     O_R   0.939310 0.500000 0.569300 -0.594005
O11   O     O_R   0.500000 0.939310 0.569300 -0.594002
O12   O     O_3   0.500000 0.000000 0.999980 -0.491592
O13   O     O_R   0.060690 0.500000 0.569300 -0.594005
O14   O     O_R   0.853850 0.585430 0.981810 -0.646585
O15   O     O_R   0.414570 0.853850 0.981810 -0.644533
O16   O     O_R   0.146150 0.414570 0.981810 -0.646585
O17   O     O_R   0.585430 0.146150 0.981810 -0.644533
O18   O     O_R   0.146150 0.585430 0.981810 -0.644533
O19   O     O_R   0.585430 0.853850 0.981810 -0.646585
O20   O     O_R   0.853850 0.414570 0.981810 -0.644533
O21   O     O_R   0.414570 0.146150 0.981810 -0.646585
O22   O     O_R   0.353850 0.085430 0.481810 -0.646585
O23   O     O_3   0.500000 0.000000 0.499980 -0.491593
O24   O     O_R   0.914570 0.353850 0.481810 -0.644534
O25   O     O_R   0.646150 0.914570 0.481810 -0.646585
O26   O     O_R   0.085430 0.646150 0.481810 -0.644534
O27   O     O_R   0.646150 0.085430 0.481810 -0.644533
O28   O     O_R   0.085430 0.353850 0.481810 -0.646584
O29   O     O_R   0.353850 0.914570 0.481810 -0.644533
O30   O     O_R   0.914570 0.646150 0.481810 -0.646584
O31   O     O_R   0.085450 0.353830 0.018160 -0.636931
O32   O     O_R   0.646170 0.085450 0.018160 -0.646746
O33   O     O_R   0.914550 0.646170 0.018160 -0.636931
O34   O     O_3   1.000000 0.500000 0.499980 -0.491592
O35   O     O_R   0.353830 0.914550 0.018160 -0.646746
O36   O     O_R   0.914550 0.353830 0.018160 -0.646744
O37   O     O_R   0.353830 0.085450 0.018160 -0.636930
O38   O     O_R   0.085450 0.646170 0.018160 -0.646744
O39   O     O_R   0.646170 0.914550 0.018160 -0.636930
O40   O     O_R   0.585450 0.853830 0.518160 -0.636931
O41   O     O_R   0.146170 0.585450 0.518160 -0.646743
O42   O     O_R   0.414550 0.146170 0.518160 -0.636931
O43   O     O_R   0.853830 0.414550 0.518160 -0.646743
O44   O     O_R   0.414550 0.853830 0.518160 -0.646743
O45   O     O_R   0.060770 0.500000 0.930670 -0.647592
O46   O     O_R   0.853830 0.585450 0.518160 -0.636931
O47   O     O_R   0.585450 0.146170 0.518160 -0.646742
O48   O     O_R   0.146170 0.414550 0.518160 -0.636931
O49   O     O_3   0.942429 0.618237 0.119089 -0.740835
O50   O     O_3   0.381780 0.057601 0.119088 -0.740846
O51   O     O_3   0.057570 0.381763 0.119089 -0.740834
O52   O     O_3   0.618220 0.942399 0.119088 -0.740846
O53   O     O_3   0.442441 0.118243 0.619089 -0.740832
O54   O     O_3   0.881763 0.557567 0.619089 -0.740835
O55   O     O_3   0.557558 0.881757 0.619089 -0.740832
O56   O     O_R   0.500000 0.060770 0.930670 -0.647593
O57   O     O_3   0.118237 0.442433 0.619089 -0.740836
O58   O     O_R   0.939230 0.500000 0.930670 -0.647592
O59   O     O_R   0.500000 0.939230 0.930670 -0.647592
O60   O     O_R   0.560770 0.000000 0.430670 -0.647590
Zn1   Zn    Zn3+2 0.000000 0.586730 0.025950 1.001070
Zn2   Zn    Zn3+2 0.500000 0.913260 0.974020 0.956754
Zn3   Zn    Zn3+2 0.086740 0.500000 0.974020 0.956753
Zn4   Zn    Zn3+2 0.500000 0.086740 0.974020 0.956754
Zn5   Zn    Zn3+2 0.413260 0.000000 0.474020 0.956753
Zn6   Zn    Zn3+2 1.000000 0.413260 0.474020 0.956753
Zn7   Zn    Zn3+2 0.586740 0.000000 0.474020 0.956753
Zn8   Zn    Zn3+2 0.000000 0.586740 0.474020 0.956753
Zn9   Zn    Zn3+2 0.413270 1.000000 0.025950 1.001070
Zn10  Zn    Zn3+2 1.000000 0.413270 0.025950 1.001070
Zn11  Zn    Zn3+2 0.586730 1.000000 0.025950 1.001069
Zn12  Zn    Zn3+2 0.500000 0.086730 0.525950 1.001070
Zn13  Zn    Zn3+2 0.913270 0.500000 0.525950 1.001070
Zn14  Zn    Zn3+2 0.500000 0.913270 0.525950 1.001070
Zn15  Zn    Zn3+2 0.086730 0.500000 0.525950 1.001070
Zn16  Zn    Zn3+2 0.913260 0.500000 0.974020 0.956753

loop_
_geom_bond_atom_site_label_1
_geom_bond_atom_site_label_2
_ccdc_geom_bond_type
C51   C123  A    
C63   H58   S    
C19   H11   S    
C73   H68   S    
O25   Zn7   S    
C17   H9    S    
C15   H7    S    
C21   C110  S    
O34   Zn8   S    
O34   Zn6   S    
O3    Zn5   S    
C98   C138  S    
C35   N3    A    
C57   C76   S    
C56   N14   A    
C22   H15   S    
C19   C113  S    
C126  C143  A    
C1    C77   S    
C21   H14   S    
C110  C111  A    
C64   C84   A    
C44   H46   S    
C45   H47   S    
C103  O27   A    
O23   Zn14  S    
C60   H54   S    
O1    Zn3   S    
O26   Zn8   S    
C8    C16   A    
C89   O33   A    
C33   H26   S    
C1    O45   A    
C5    H56   S    
C1    O58   A    
O23   Zn5   S    
C92   O31   A    
C116  C133  A    
O1    Zn16  S    
C96   C127  S    
C62   H57   S    
C20   C111  S    
C50   H51   S    
O34   Zn13  S    
C22   H32   S    
C34   C134  A    
C22   C109  S    
C92   C131  S    
C98   O42   A    
C45   C90   A    
C103  O47   A    
C7    C132  A    
O29   Zn5   S    
C5    C130  A    
O2    Zn8   S    
C36   C44   A    
O12   Zn2   S    
C37   C45   A    
C93   C130  S    
C117  C135  A    
C118  C136  A    
C25   C107  S    
C33   C116  S    
C28   C121  S    
C99   C141  S    
C97   C126  S    
C44   C101  A    
C88   O13   A    
C42   O57   S    
C17   C25   S    
C9    C15   A    
O37   Zn9   S    
C91   O15   A    
H72   O50   S    
O14   Zn16  S    
N7    N10   A    
C102  C139  S    
O22   Zn5   S    
C23   H33   S    
H76   O54   S    
C20   C21   S    
H77   O55   S    
O40   Zn14  S    
C108  C126  A    
C110  C128  A    
C48   H49   S    
C69   C77   A    
C32   C117  S    
C61   H55   S    
C89   C129  S    
C31   C118  S    
C87   O11   A    
C68   O60   A    
C53   C84   S    
C54   C90   S    
C52   N5    A    
C23   C108  S    
C29   H21   S    
C40   C49   A    
C9    H2    S    
C47   H48   S    
C97   O37   A    
C72   C78   A    
C27   H19   S    
C46   C82   S    
C95   C128  S    
H75   O53   S    
O30   Zn8   S    
C25   H17   S    
C21   H31   S    
C64   C73   A    
O12   Zn4   S    
C18   H10   S    
C85   C134  S    
O35   Zn9   S    
N2    N13   A    
C85   O5    A    
C102  O41   A    
C31   H41   S    
C109  C127  A    
C115  C132  A    
C113  C130  A    
C144  H23   S    
O31   Zn10  S    
C107  C125  A    
O36   Zn10  S    
C10   C14   A    
O58   Zn16  S    
C66   H61   S    
C3    C128  A    
C6    H67   S    
N3    N14   A    
C65   C74   A    
C117  C122  A    
C27   H37   S    
C54   N1    A    
C29   C30   S    
C94   O38   A    
C2    C38   A    
C26   C33   S    
C13   C87   S    
C63   C72   A    
C104  O48   A    
O9    Zn12  S    
C9    C135  A    
O60   Zn7   S    
C48   C112  A    
C89   O14   A    
C74   C78   A    
C96   O36   A    
C12   C138  A    
C124  C141  A    
C54   N10   A    
C3    C4    A    
C41   O55   S    
C71   C77   A    
C17   C115  S    
C94   C125  S    
O5    Zn1   S    
O56   Zn4   S    
C34   C43   A    
C57   O59   A    
C52   N7    A    
O39   Zn11  S    
C97   O21   A    
C121  C139  A    
C16   C141  A    
O32   Zn11  S    
C122  C140  A    
C61   C81   A    
C94   O18   A    
C60   C69   A    
C62   C71   A    
O59   Zn2   S    
O27   Zn7   S    
C53   N8    A    
O38   Zn1   S    
C98   O22   A    
C85   O7    A    
C37   C134  A    
C56   N12   A    
O48   Zn15  S    
C58   N15   A    
C61   C70   A    
C32   H25   S    
C24   C42   A    
C114  C131  A    
C13   C41   A    
H79   O57   S    
C58   C123  S    
O45   Zn3   S    
C88   O10   A    
C3    H34   S    
C49   H50   S    
C68   O3    A    
C49   C123  A    
C104  C137  S    
C87   O9    A    
C108  C114  A    
C40   O54   S    
C111  C129  A    
C39   O53   S    
O47   Zn12  S    
C58   N13   A    
C8    H80   S    
C34   O49   S    
O11   Zn14  S    
C62   C82   A    
O12   Zn9   S    
C142  H1    S    
C26   C124  S    
O8    Zn11  S    
C27   C122  S    
C105  O29   A    
O21   Zn4   S    
C69   H63   S    
C43   C90   A    
O43   Zn13  S    
C5    C144  A    
C91   C132  S    
C26   H18   S    
N1    N5    A    
C63   C83   A    
C52   C83   S    
C95   O19   A    
C19   H29   S    
C37   O51   S    
C96   O20   A    
O20   Zn16  S    
C38   O52   S    
C16   H8    S    
C79   O4    A    
C24   C88   S    
C67   H62   S    
C92   O16   A    
C64   H59   S    
C99   O24   A    
C20   H13   S    
C74   H69   S    
O24   Zn6   S    
C41   C50   A    
C15   C140  A    
C55   C101  S    
C86   O8    A    
C116  C124  A    
C27   C32   S    
C106  O46   A    
C12   H5    S    
C28   C31   S    
C35   N16   A    
C59   C81   A    
C55   N11   A    
C6    C131  A    
O42   Zn12  S    
O28   Zn6   S    
C119  C120  A    
C25   H35   S    
O17   Zn4   S    
C4    C129  A    
C26   H36   S    
O18   Zn3   S    
O19   Zn2   S    
C32   H42   S    
O13   Zn15  S    
C91   O35   A    
C11   C137  A    
C57   O56   A    
C65   H60   S    
C43   H44   S    
C66   C75   A    
C127  C144  A    
C11   H4    S    
C31   H24   S    
O12   Zn11  S    
C100  O25   A    
C46   N4    A    
H73   O51   S    
C39   C48   A    
O7    Zn10  S    
C68   C80   S    
C47   C101  A    
C18   C114  S    
C35   C81   S    
C36   O50   S    
C10   C136  A    
C51   H52   S    
C65   C83   A    
C30   C119  S    
C70   H64   S    
O46   Zn13  S    
C105  O44   A    
N6    N9    A    
C79   O2    A    
O16   Zn3   S    
C28   H38   S    
C100  C140  S    
C60   C82   A    
C72   H66   S    
C75   C80   A    
C109  C113  A    
C10   H3    S    
O33   Zn1   S    
C59   C67   A    
C86   O6    A    
C100  O40   A    
C14   H6    S    
O23   Zn12  S    
C55   N9    A    
C20   H30   S    
C95   O39   A    
C18   C23   S    
C119  C137  A    
C19   C22   S    
C30   H22   S    
N4    N15   A    
C7    H78   S    
C78   C79   S    
O10   Zn13  S    
C71   H65   S    
N8    N11   A    
N12   N16   A    
C118  C121  A    
O4    Zn6   S    
O1    Zn10  S    
C125  C142  A    
C23   H16   S    
C50   C112  A    
C46   N2    A    
C33   H43   S    
C107  C115  A    
C38   C47   A    
C105  C136  S    
C106  C135  S    
H71   O49   S    
C106  O30   A    
C70   C76   A    
C93   O17   A    
C29   C120  S    
C28   H20   S    
O1    Zn1   S    
O6    Zn9   S    
C2    C36   A    
C29   H39   S    
C8    C133  A    
C30   H40   S    
C4    H45   S    
C104  O28   A    
C11   C12   A    
C17   H27   S    
C42   C51   A    
C18   H28   S    
C53   N6    A    
C75   H70   S    
O15   Zn2   S    
C103  C133  S    
O23   Zn7   S    
C143  H12   S    
C93   O32   A    
C59   H53   S    
O44   Zn14  S    
C24   C40   A    
C73   C80   A    
C2    C86   S    
C13   C39   A    
C66   C84   A    
O34   Zn15  S    
C120  C138  A    
C14   C139  A    
C102  O26   A    
C67   C76   A    
O41   Zn15  S    
C6    C143  A    
C56   C112  S    
C7    C142  A    
H74   O52   S    
C99   O43   A    
