data_mof_unit_6489.cif
_audit_creation_date              2012-12-10T17:18:54-0500
_audit_creation_method            fapswitch 2.2
_symmetry_space_group_name_H-M    P1
_symmetry_Int_Tables_number       1
_space_group_crystal_system       triclinic
_cell_length_a                    10.267153
_cell_length_b                    10.742099
_cell_length_c                    13.581133
_cell_angle_alpha                 93.067616
_cell_angle_beta                  101.687888
_cell_angle_gamma                 96.198286
_cell_volume                      1453.86291669

loop_
_atom_site_label
_atom_site_type_symbol
_atom_type_description
_atom_site_fract_x
_atom_site_fract_y
_atom_site_fract_z
_atom_type_partial_charge
C1    C     C_R   0.055543 0.733611 0.500206 0.958878
C2    C     C_2   0.952053 0.047454 0.502530 -0.106265
C3    C     C_2   0.431220 0.499935 0.525631 0.020827
C4    C     C_2   0.574592 0.467353 0.534776 -0.226699
C5    C     C_R   0.094290 0.513008 0.685980 0.870586
C6    C     C_R   0.905506 0.486643 0.313803 0.885594
C7    C     C_R   0.140116 0.508858 0.794298 -0.012884
C8    C     C_R   0.848381 0.458903 0.206389 -0.077221
C9    C     C_R   0.113735 0.548357 0.965550 -0.178979
C10   C     C_R   0.824331 0.322450 0.054929 -0.169952
C11   C     C_R   0.065234 0.550602 0.862393 -0.148821
C12   C     C_R   0.950160 0.269492 0.512445 0.842229
C13   C     C_R   0.902125 0.375967 0.146838 -0.195875
C14   C     C_R   0.257832 0.457101 0.829446 -0.265332
C15   C     C_R   0.722624 0.494551 0.169948 -0.240903
C16   C     C_R   0.302922 0.445533 0.932170 0.086840
C17   C     C_R   0.634780 0.424793 0.088995 0.077401
C18   C     C_R   0.235645 0.501695 0.000624 0.122713
C19   C     C_R   0.689594 0.343919 0.026710 0.126094
C20   C     C_R   0.422990 0.393844 0.968156 -0.033324
C21   C     C_R   0.495620 0.436512 0.066464 -0.023888
C22   C     C_2   0.476225 0.502243 0.247095 0.379066
C23   C     C_R   0.424640 0.488003 0.136717 -0.013300
C24   C     C_2   0.387354 0.221239 0.825352 0.397813
C25   C     C_2   0.903977 0.039092 0.390141 0.493873
C26   C     C_2   0.938095 0.886238 0.633098 0.451180
C27   C     C_2   0.985018 0.165833 0.671311 0.482367
C28   C     C_2   0.182868 0.933140 0.453855 0.547401
C29   C     C_2   0.601140 0.344673 0.574239 0.459539
C30   C     C_2   0.420465 0.589852 0.608927 0.443405
C31   C     C_2   0.648687 0.673887 0.506899 0.709713
C32   C     C_2   0.331118 0.346073 0.390572 0.645555
C33   C     C_R   0.474996 0.304702 0.909340 -0.042075
C34   C     C_R   0.293644 0.515421 0.102639 -0.183844
C35   C     C_R   0.608451 0.282121 0.939402 -0.187294
C36   C     C_2   0.085593 0.870793 0.508791 -0.265152
C37   C     C_2   0.945652 0.152602 0.559050 -0.186840
C38   C     C_2   0.001456 0.936694 0.550720 -0.094795
H1    H     H_    0.238671 0.553154 0.155386 0.194144
H2    H     H_    0.279327 0.212054 0.816763 0.062828
H3    H     H_    0.877219 0.121229 0.351162 0.039047
H4    H     H_    0.986938 0.820711 0.682021 0.035684
H5    H     H_    0.051379 0.105410 0.712143 0.049203
H6    H     H_    0.202145 0.034904 0.458440 0.090356
H7    H     H_    0.698483 0.333852 0.619031 0.162222
H8    H     H_    0.464514 0.572768 0.685899 0.030888
H9    H     H_    0.604475 0.736660 0.551965 0.075194
H10   H     H_    0.426719 0.318391 0.381586 0.027029
H11   H     H_    0.649136 0.214795 0.895304 0.203899
H12   H     H_    0.692632 0.572776 0.209575 0.193078
H13   H     H_    0.317191 0.430440 0.776320 0.149323
H14   H     H_    0.000927 0.348438 0.173067 0.193756
H15   H     H_    0.972136 0.588971 0.836191 0.156887
H16   H     H_    0.058774 0.587204 0.017689 0.156522
H17   H     H_    0.866757 0.258848 0.008990 0.164794
H18   H     H_    0.547914 0.442701 0.282717 0.067155
N1    N     N_2   0.322180 0.446120 0.460900 -0.118607
N2    N     N_2   0.677820 0.553880 0.539100 -0.227447
O1    O     O_R   0.935190 0.693030 0.507870 -0.601940
O2    O     O_2   0.434691 0.160442 0.765644 -0.517310
O3    O     O_2   0.889849 0.938825 0.340071 -0.525911
O4    O     O_2   0.830617 0.915830 0.645441 -0.552364
O5    O     O_2   0.944342 0.246889 0.719564 -0.587228
O6    O     O_2   0.242907 0.871704 0.403645 -0.488375
O7    O     O_2   0.512248 0.256861 0.563657 -0.555005
O8    O     O_2   0.374137 0.688240 0.592757 -0.531433
O9    O     O_2   0.677160 0.709061 0.429139 -0.477203
O10   O     O_2   0.229060 0.289697 0.338112 -0.595421
O11   O     O_R   0.064810 0.306970 0.492130 -0.595753
O12   O     O_R   0.142080 0.658430 0.482770 -0.509944
O13   O     O_R   0.857920 0.341570 0.517230 -0.610331
O14   O     O_R   0.969700 0.527180 0.651960 -0.625646
O15   O     O_R   0.030300 0.472820 0.348040 -0.578921
O16   O     O_R   0.176600 0.492580 0.626860 -0.627556
O17   O     O_R   0.823400 0.507420 0.373140 -0.585249
O18   O     O_2   0.438785 0.581153 0.299589 -0.531851
Zn1   Zn    Zn3+2 0.861850 0.523100 0.516760 0.984360
Zn2   Zn    Zn3+2 0.138150 0.476900 0.483240 1.059495

loop_
_geom_bond_atom_site_label_1
_geom_bond_atom_site_label_2
_ccdc_geom_bond_type
C12   O11   A    
C8    C13   A    
O12   Zn2   S    
C22   O18   D    
O1    Zn1   S    
C6    O17   A    
C31   O9    D    
C31   N2    S    
C5    O14   A    
C1    O1    A    
C33   C35   A    
C5    O16   A    
C15   H12   S    
C12   C37   S    
N2    Zn1   S    
C17   C19   A    
C7    C14   A    
C35   H11   S    
O15   Zn2   S    
C4    C29   S    
C11   H15   S    
C24   O2    D    
C32   O10   D    
C31   H9    S    
C32   H10   S    
O11   Zn2   S    
C32   N1    S    
C18   C34   A    
C34   H1    S    
C25   H3    S    
C5    C7    S    
C26   C38   S    
C22   H18   S    
C28   H6    S    
C17   C21   A    
C29   H7    S    
C3    C30   S    
C7    C11   A    
O14   Zn1   S    
C13   H14   S    
C9    C11   A    
C2    C38   S    
C14   H13   S    
C10   C19   A    
C16   C20   A    
C23   C34   A    
C25   O3    D    
C10   H17   S    
O17   Zn1   S    
C30   O8    D    
C27   O5    D    
C29   O7    D    
C20   C33   A    
C28   O6    D    
C12   O13   A    
C8    C15   A    
C21   C23   A    
C14   C16   A    
C3    C4    S    
C3    N1    D    
O13   Zn1   S    
C26   H4    S    
C6    O15   A    
C15   C17   A    
N1    Zn2   S    
C30   H8    S    
C1    O12   A    
C10   C13   A    
C6    C8    S    
C24   C33   S    
C36   C38   D    
C26   O4    D    
C19   C35   A    
C2    C37   D    
C27   C37   S    
C24   H2    S    
C2    C25   S    
C27   H5    S    
C9    C18   A    
C20   C21   A    
C28   C36   S    
C16   C18   A    
O16   Zn2   S    
C4    N2    D    
C22   C23   S    
C9    H16   S    
C1    C36   S    
