data_mof_unit_48603.cif
_audit_creation_date              2012-12-10T18:49:57-0500
_audit_creation_method            fapswitch 2.2
_symmetry_space_group_name_H-M    P1
_symmetry_Int_Tables_number       1
_space_group_crystal_system       triclinic
_cell_length_a                    10.803488
_cell_length_b                    9.834869
_cell_length_c                    10.716557
_cell_angle_alpha                 90.496403
_cell_angle_beta                  91.417175
_cell_angle_gamma                 89.816795
_cell_volume                      1138.2476335

loop_
_atom_site_label
_atom_site_type_symbol
_atom_type_description
_atom_site_fract_x
_atom_site_fract_y
_atom_site_fract_z
_atom_type_partial_charge
C1    C     C_R   0.259714 0.500338 0.499409 0.998084
C2    C     C_3   0.622342 0.550307 0.932624 -0.471702
C3    C     C_R   0.062743 0.379703 0.477679 0.356536
C4    C     C_R   0.064668 0.618873 0.544851 0.387673
C5    C     C_R   0.936679 0.375092 0.493755 0.363440
C6    C     C_R   0.937326 0.616060 0.554107 0.411418
C7    C     C_R   0.872750 0.496729 0.519335 -0.447153
C8    C     C_R   0.127242 0.500579 0.505370 -0.436379
C9    C     C_R   0.572656 0.072493 0.583252 -0.072464
C10   C     C_R   0.572853 0.928605 0.583072 -0.070767
C11   C     C_R   0.424663 0.927611 0.418960 -0.049926
C12   C     C_R   0.424142 0.071561 0.419726 -0.026784
C13   C     C_R   0.497053 0.498925 0.257170 0.933755
C14   C     C_R   0.740103 0.499396 0.506322 0.968989
C15   C     C_R   0.499890 0.500078 0.742237 0.868270
C16   C     C_3   0.386061 0.592182 0.068738 0.978674
C17   C     C_3   0.478608 0.343382 0.068337 0.985850
C18   C     C_3   0.386762 0.585126 0.922696 -0.540893
C19   C     C_3   0.478419 0.351145 0.923049 -0.533591
C20   C     C_3   0.620853 0.549124 0.075662 -0.546788
C21   C     C_3   0.494093 0.495673 0.119578 -0.082888
C22   C     C_3   0.497329 0.498440 0.878132 0.026907
H1    H     H_    0.642633 0.653846 0.898907 0.176613
H2    H     H_    0.698746 0.483447 0.900265 0.173382
N1    N     N_R   0.499970 0.857200 0.499970 -0.084733
N2    N     N_R   0.499970 0.142800 0.499970 -0.073458
O1    O     O_R   0.316750 0.614620 0.499990 -0.582756
O2    O     O_R   0.316750 0.385380 0.499990 -0.581252
O3    O     O_R   0.499970 0.614670 0.314790 -0.594456
O4    O     O_R   0.499970 0.385330 0.314790 -0.563015
O5    O     O_R   0.683220 0.614710 0.500010 -0.584996
O6    O     O_R   0.683220 0.385290 0.500010 -0.571780
O7    O     O_R   0.500010 0.614660 0.685200 -0.651691
O8    O     O_R   0.500010 0.385340 0.685200 -0.651795
Zn1   Zn    Zn3+2 0.499980 0.653120 0.500000 0.979849
Zn2   Zn    Zn3+2 0.499980 0.346880 0.500000 1.002733
O9    O     O_3   0.399937 0.724803 0.125372 -0.606953
C23   C     C_3   0.450037 0.829470 0.053510 -0.457799
H3    H     H_    0.524600 0.797035 0.992057 0.176042
H4    H     H_    0.493583 0.903695 0.118828 0.205206
H5    H     H_    0.375025 0.880348 0.998800 0.169527
O10   O     O_3   0.576389 0.263931 0.126768 -0.593167
C24   C     C_3   0.636501 0.164091 0.054484 -0.402430
H6    H     H_    0.707998 0.211990 0.996646 0.165370
H7    H     H_    0.571804 0.101286 0.996857 0.140873
H8    H     H_    0.685804 0.093681 0.119073 0.212751
H9    H     H_    0.364148 0.872785 0.354414 0.171740
H10   H     H_    0.362181 0.126276 0.357680 0.155739
O11   O     O_3   0.272029 0.536651 0.108792 -0.627081
C25   C     C_3   0.172312 0.629785 0.097606 -0.286100
H11   H     H_    0.172003 0.686623 0.008298 0.136998
H12   H     H_    0.174045 0.702051 0.177910 0.209391
H13   H     H_    0.084331 0.572197 0.100552 0.162679
O12   O     O_3   0.361092 0.296380 0.107427 -0.607296
C26   C     C_3   0.341287 0.156995 0.082719 -0.332707
H14   H     H_    0.393249 0.095507 0.151868 0.194444
H15   H     H_    0.364023 0.125687 0.986403 0.135265
H16   H     H_    0.241628 0.134920 0.092189 0.164051
H17   H     H_    0.300360 0.534860 0.887614 0.161184
H18   H     H_    0.388064 0.315169 0.883259 0.184065
H19   H     H_    0.383565 0.685299 0.876627 0.163972
H20   H     H_    0.548912 0.285717 0.879883 0.171328
H21   H     H_    0.640744 0.652382 0.113738 0.219495
H22   H     H_    0.697506 0.483267 0.111623 0.216495
O13   O     O_3   0.122583 0.262545 0.439291 -0.571353
C27   C     C_3   0.111962 0.252615 0.308232 -0.205953
H23   H     H_    0.145698 0.150773 0.280042 0.163237
H24   H     H_    0.169864 0.331027 0.263952 0.213635
H25   H     H_    0.014395 0.260903 0.273100 0.169609
O14   O     O_3   0.125974 0.741091 0.564802 -0.541216
C28   C     C_3   0.161705 0.754713 0.692034 -0.224243
H26   H     H_    0.252886 0.806293 0.697980 0.179753
H27   H     H_    0.171743 0.656282 0.742133 0.093691
H28   H     H_    0.094488 0.820815 0.740538 0.163761
O15   O     O_3   0.875808 0.253136 0.471561 -0.550554
C29   C     C_3   0.888282 0.172349 0.579435 -0.181916
H29   H     H_    0.844401 0.222478 0.660797 0.102260
H30   H     H_    0.986816 0.148224 0.602532 0.185464
H31   H     H_    0.840652 0.074174 0.561390 0.195318
O16   O     O_3   0.877786 0.732463 0.594902 -0.541523
C30   C     C_3   0.846449 0.714701 0.720887 -0.346120
H32   H     H_    0.924489 0.673707 0.779251 0.129354
H33   H     H_    0.765729 0.646303 0.727286 0.164580
H34   H     H_    0.820776 0.814876 0.761051 0.162981
H35   H     H_    0.629676 0.127495 0.650713 0.107762
H36   H     H_    0.630381 0.874565 0.649949 0.135487

loop_
_geom_bond_atom_site_label_1
_geom_bond_atom_site_label_2
_ccdc_geom_bond_type
C27   H24   S    
C26   H14   S    
C5    O15   S    
C16   C21   S    
C1    C8    S    
C11   H9    S    
C29   H31   S    
C14   O5    A    
C12   H10   S    
C4    O14   S    
C30   H32   S    
O6    Zn2   S    
C13   O3    A    
C29   H30   S    
C23   H3    S    
C27   H25   S    
C11   N1    A    
C19   H20   S    
C17   O10   S    
C17   C19   S    
C15   C22   S    
C2    C22   S    
C1    O2    A    
C25   H12   S    
O14   C28   S    
C9    C10   A    
C15   O8    A    
C4    C8    A    
C16   O9    S    
C9    H35   S    
C27   H23   S    
C3    O13   S    
C30   H33   S    
C9    N2    A    
C7    C14   S    
C25   H13   S    
C2    C20   S    
C13   O4    A    
C19   C22   S    
C16   O11   S    
C23   H5    S    
C4    C6    A    
C3    C8    A    
C28   H27   S    
O1    Zn1   S    
C17   C21   S    
C12   N2    A    
C20   H22   S    
O15   C29   S    
O9    C23   S    
C6    O16   S    
C25   H11   S    
C13   C21   S    
C29   H29   S    
C24   H7    S    
N1    Zn1   S    
C10   N1    A    
N2    Zn2   S    
O13   C27   S    
C26   H15   S    
C24   H6    S    
C2    H2    S    
O5    Zn1   S    
O10   C24   S    
C30   H34   S    
C5    C7    A    
O12   C26   S    
C10   H36   S    
C18   C22   S    
C14   O6    A    
O16   C30   S    
C3    C5    A    
C28   H28   S    
C11   C12   A    
C18   H19   S    
C6    C7    A    
C19   H18   S    
O3    Zn1   S    
O4    Zn2   S    
C20   H21   S    
C28   H26   S    
C23   H4    S    
O7    Zn1   S    
O8    Zn2   S    
C24   H8    S    
C18   H17   S    
C20   C21   S    
O2    Zn2   S    
C16   C18   S    
O11   C25   S    
C26   H16   S    
C2    H1    S    
C1    O1    A    
C17   O12   S    
C15   O7    A    
