data_mof_unit_57609.cif
_audit_creation_date              2012-12-11T15:20:11-0500
_audit_creation_method            fapswitch 2.2
_symmetry_space_group_name_H-M    P1
_symmetry_Int_Tables_number       1
_space_group_crystal_system       triclinic
_cell_length_a                    16.674153
_cell_length_b                    16.675021
_cell_length_c                    43.281867
_cell_angle_alpha                 90.00088
_cell_angle_beta                  90.000093
_cell_angle_gamma                 120.002287
_cell_volume                      10421.6571232

loop_
_atom_site_label
_atom_site_type_symbol
_atom_type_description
_atom_site_fract_x
_atom_site_fract_y
_atom_site_fract_z
_atom_type_partial_charge
C1    C     C_R   0.584337 0.426072 0.794486 0.534721
C2    C     C_R   0.841711 0.415646 0.705510 0.534748
C3    C     C_R   0.573933 0.158282 0.794489 0.534774
C4    C     C_R   0.584334 0.426072 0.705515 0.534718
C5    C     C_R   0.841731 0.415660 0.794485 0.534741
C6    C     C_R   0.573938 0.158295 0.705506 0.534764
C7    C     C_R   0.426071 0.584342 0.294487 0.534734
C8    C     C_R   0.415669 0.841744 0.205517 0.534689
C9    C     C_R   0.158256 0.573922 0.294482 0.534719
C10   C     C_R   0.426072 0.584339 0.205514 0.534729
C11   C     C_R   0.415682 0.841764 0.294478 0.534680
C12   C     C_R   0.158272 0.573928 0.205514 0.534713
C13   C     C_R   0.151417 0.542400 0.119898 0.317539
C14   C     C_R   0.391388 0.848768 0.380107 0.317554
C15   C     C_R   0.457598 0.608946 0.119895 0.317553
C16   C     C_R   0.151388 0.542540 0.380103 0.317516
C17   C     C_R   0.391149 0.848585 0.119893 0.317568
C18   C     C_R   0.457729 0.608972 0.380102 0.317509
C19   C     C_R   0.542211 0.151472 0.619897 0.317581
C20   C     C_R   0.848474 0.391004 0.880105 0.317577
C21   C     C_R   0.608932 0.457378 0.619890 0.317635
C22   C     C_R   0.542325 0.151450 0.880103 0.317566
C23   C     C_R   0.848323 0.390764 0.619896 0.317583
C24   C     C_R   0.608944 0.457523 0.880107 0.317583
C25   C     C_R   0.177418 0.550884 0.150777 -0.102654
C26   C     C_R   0.373821 0.822590 0.349243 -0.102507
C27   C     C_R   0.449114 0.626485 0.150773 -0.102622
C28   C     C_R   0.177484 0.551127 0.349231 -0.102594
C29   C     C_R   0.373627 0.822519 0.150767 -0.102589
C30   C     C_R   0.449259 0.626530 0.349226 -0.102633
C31   C     C_R   0.550555 0.177334 0.650788 -0.102734
C32   C     C_R   0.822479 0.373507 0.849224 -0.102655
C33   C     C_R   0.626433 0.448875 0.650770 -0.102613
C34   C     C_R   0.550751 0.177390 0.849218 -0.102691
C35   C     C_R   0.822437 0.373305 0.650786 -0.102736
C36   C     C_R   0.626469 0.449030 0.849229 -0.102616
C37   C     C_R   0.046734 0.568320 0.165521 -0.155047
C38   C     C_R   0.521491 0.953749 0.334396 -0.155071
C39   C     C_R   0.431687 0.478386 0.165531 -0.155062
C40   C     C_R   0.046454 0.567918 0.334437 -0.155028
C41   C     C_R   0.521503 0.953491 0.165554 -0.155068
C42   C     C_R   0.431537 0.478309 0.334469 -0.155034
C43   C     C_R   0.568880 0.047136 0.665459 -0.155075
C44   C     C_R   0.953331 0.521512 0.834479 -0.155061
C45   C     C_R   0.478517 0.431917 0.665528 -0.155102
C46   C     C_R   0.568554 0.046909 0.834505 -0.155056
C47   C     C_R   0.953062 0.521543 0.665470 -0.155055
C48   C     C_R   0.478430 0.431772 0.834470 -0.155079
C49   C     C_R   0.018588 0.557180 0.134568 -0.090721
C50   C     C_R   0.538546 0.982048 0.365334 -0.090709
C51   C     C_R   0.442824 0.461357 0.134579 -0.090708
C52   C     C_R   0.018231 0.556696 0.365382 -0.090734
C53   C     C_R   0.538514 0.981689 0.134605 -0.090715
C54   C     C_R   0.442666 0.461261 0.365419 -0.090718
C55   C     C_R   0.557855 0.019103 0.634494 -0.090692
C56   C     C_R   0.981463 0.538499 0.865434 -0.090718
C57   C     C_R   0.461527 0.443064 0.634573 -0.090698
C58   C     C_R   0.557463 0.018813 0.865463 -0.090711
C59   C     C_R   0.981095 0.538493 0.634506 -0.090722
C60   C     C_R   0.461415 0.442914 0.865422 -0.090703
C61   C     C_R   0.070314 0.543643 0.111547 0.245968
C62   C     C_R   0.473533 0.930170 0.388401 0.245782
C63   C     C_R   0.456358 0.526600 0.111552 0.245991
C64   C     C_R   0.070084 0.543432 0.388425 0.245795
C65   C     C_R   0.473375 0.929850 0.111565 0.245893
C66   C     C_R   0.456342 0.526556 0.388445 0.245974
C67   C     C_R   0.543940 0.070654 0.611503 0.246221
C68   C     C_R   0.929649 0.473282 0.888457 0.245972
C69   C     C_R   0.526697 0.456371 0.611544 0.246017
C70   C     C_R   0.543769 0.070467 0.888472 0.246071
C71   C     C_R   0.929341 0.473140 0.611510 0.246095
C72   C     C_R   0.526635 0.456367 0.888451 0.246001
C73   C     C_R   0.874628 0.438038 0.826323 -0.022180
C74   C     C_R   0.563438 0.125440 0.673661 -0.022415
C75   C     C_R   0.561935 0.436597 0.826321 -0.022230
C76   C     C_R   0.874531 0.437972 0.673663 -0.022240
C77   C     C_R   0.563418 0.125395 0.826329 -0.022294
C78   C     C_R   0.561948 0.436585 0.673678 -0.022209
C79   C     C_R   0.438151 0.874794 0.326300 -0.022091
C80   C     C_R   0.125355 0.563400 0.173678 -0.022201
C81   C     C_R   0.436610 0.561923 0.326319 -0.022251
C82   C     C_R   0.438081 0.874689 0.173686 -0.022138
C83   C     C_R   0.125300 0.563377 0.326311 -0.022065
C84   C     C_R   0.436603 0.561929 0.173680 -0.022239
C85   C     C_R   0.016657 0.592636 0.032207 0.039717
C86   C     C_R   0.576611 0.984541 0.467681 0.039740
C87   C     C_R   0.407340 0.423938 0.032211 0.039717
C88   C     C_R   0.015965 0.592207 0.467728 0.039734
C89   C     C_R   0.576247 0.983876 0.032256 0.039721
C90   C     C_R   0.407281 0.423972 0.467796 0.039717
C91   C     C_R   0.593260 0.017673 0.532108 0.039689
C92   C     C_R   0.983425 0.576006 0.967787 0.039714
C93   C     C_R   0.423905 0.407434 0.532221 0.039708
C94   C     C_R   0.592893 0.017082 0.967834 0.039703
C95   C     C_R   0.982693 0.575609 0.532144 0.039700
C96   C     C_R   0.423922 0.407377 0.967785 0.039714
C97   C     C_R   0.035928 0.600785 0.064095 0.459382
C98   C     C_R   0.565441 0.965244 0.435793 0.459203
C99   C     C_R   0.399211 0.435046 0.064102 0.459423
C100  C     C_R   0.035292 0.600368 0.435844 0.459188
C101  C     C_R   0.565097 0.964590 0.064143 0.459300
C102  C     C_R   0.399135 0.435074 0.435905 0.459408
C103  C     C_R   0.601378 0.036843 0.564004 0.459665
C104  C     C_R   0.964156 0.564874 0.935899 0.459378
C105  C     C_R   0.435031 0.399324 0.564112 0.459435
C106  C     C_R   0.601031 0.036317 0.935943 0.459492
C107  C     C_R   0.963453 0.564512 0.564034 0.459502
C108  C     C_R   0.435036 0.399258 0.935893 0.459431
C109  C     C_R   0.022897 0.450479 0.064543 0.470656
C110  C     C_R   0.427573 0.977236 0.435437 0.470702
C111  C     C_R   0.549514 0.572343 0.064545 0.470649
C112  C     C_R   0.022877 0.450329 0.435443 0.470696
C113  C     C_R   0.427478 0.977023 0.064539 0.470688
C114  C     C_R   0.549573 0.572192 0.435434 0.470626
C115  C     C_R   0.450707 0.022978 0.564515 0.470608
C116  C     C_R   0.976899 0.427436 0.935475 0.470678
C117  C     C_R   0.572620 0.549401 0.564509 0.470686
C118  C     C_R   0.450573 0.022947 0.935469 0.470637
C119  C     C_R   0.976749 0.427389 0.564506 0.470652
C120  C     C_R   0.572446 0.549473 0.935469 0.470664
C121  C     C_R   0.010747 0.443326 0.032386 0.045158
C122  C     C_R   0.432624 0.989349 0.467597 0.045183
C123  C     C_R   0.556640 0.567366 0.032386 0.045172
C124  C     C_R   0.010678 0.443190 0.467598 0.045149
C125  C     C_R   0.432507 0.989155 0.032381 0.045162
C126  C     C_R   0.556736 0.567225 0.467592 0.045171
C127  C     C_R   0.443551 0.010925 0.532355 0.045173
C128  C     C_R   0.989032 0.432446 0.967633 0.045156
C129  C     C_R   0.567617 0.556479 0.532349 0.045164
C130  C     C_R   0.443415 0.010830 0.967627 0.045160
C131  C     C_R   0.988894 0.432363 0.532349 0.045138
C132  C     C_R   0.567460 0.556578 0.967629 0.045170
C133  C     C_R   0.006896 0.514622 0.016184 -0.028826
C134  C     C_R   0.508086 0.993728 0.483752 -0.028807
C135  C     C_R   0.485336 0.492216 0.016185 -0.028821
C136  C     C_R   0.006496 0.514347 0.483774 -0.028814
C137  C     C_R   0.507839 0.993315 0.016206 -0.028823
C138  C     C_R   0.485369 0.492169 0.483807 -0.028814
C139  C     C_R   0.515042 0.007531 0.516117 -0.028841
C140  C     C_R   0.993033 0.507681 0.983822 -0.028831
C141  C     C_R   0.492308 0.485285 0.516171 -0.028833
C142  C     C_R   0.514791 0.007161 0.983843 -0.028833
C143  C     C_R   0.992607 0.507428 0.516135 -0.028842
C144  C     C_R   0.492249 0.485316 0.983820 -0.028826
C145  C     C_R   0.008950 0.661371 0.015845 -0.110731
C146  C     C_R   0.653364 0.992806 0.483996 -0.110686
C147  C     C_R   0.338599 0.347491 0.015848 -0.110683
C148  C     C_R   0.007923 0.660790 0.484062 -0.110768
C149  C     C_R   0.652870 0.991904 0.015921 -0.110718
C150  C     C_R   0.338473 0.347612 0.484171 -0.110691
C151  C     C_R   0.662209 0.010429 0.515708 -0.110669
C152  C     C_R   0.991281 0.652531 0.984137 -0.110733
C153  C     C_R   0.347308 0.338813 0.515882 -0.110688
C154  C     C_R   0.661716 0.009561 0.984212 -0.110711
C155  C     C_R   0.990238 0.651963 0.515769 -0.110753
C156  C     C_R   0.347417 0.338682 0.984137 -0.110681
C157  C     C_R   0.004246 0.367467 0.016033 -0.106326
C158  C     C_R   0.363010 0.995271 0.483997 -0.106196
C159  C     C_R   0.632478 0.636751 0.016031 -0.106241
C160  C     C_R   0.004455 0.367490 0.483975 -0.106375
C161  C     C_R   0.363004 0.995330 0.016001 -0.106275
C162  C     C_R   0.632672 0.636532 0.483933 -0.106258
C163  C     C_R   0.367485 0.004066 0.516034 -0.106228
C164  C     C_R   0.995375 0.363019 0.983999 -0.106319
C165  C     C_R   0.637122 0.632158 0.515969 -0.106241
C166  C     C_R   0.367467 0.004178 0.983966 -0.106292
C167  C     C_R   0.995546 0.363072 0.516009 -0.106394
C168  C     C_R   0.636893 0.632354 0.983994 -0.106237
Cr1   Cr    Cr6+3 0.530290 0.262330 0.750000 1.046258
Cr2   Cr    Cr6+3 0.732040 0.469710 0.750000 1.046279
Cr3   Cr    Cr6+3 0.737670 0.267960 0.750000 1.046204
Cr4   Cr    Cr6+3 0.262330 0.530290 0.250000 1.046270
Cr5   Cr    Cr6+3 0.469710 0.732040 0.250000 1.046328
Cr6   Cr    Cr6+3 0.267960 0.737670 0.250000 1.046332
H1    H     H_    0.991682 0.304046 0.972140 0.174754
H2    H     H_    0.311999 0.007287 0.527931 0.174795
H3    H     H_    0.695849 0.687655 0.972134 0.174795
H4    H     H_    0.992081 0.304230 0.527887 0.174708
H5    H     H_    0.312071 0.007610 0.972086 0.174768
H6    H     H_    0.696155 0.687402 0.527819 0.174788
H7    H     H_    0.303865 0.991282 0.472164 0.174829
H8    H     H_    0.007816 0.312135 0.027902 0.174754
H9    H     H_    0.688064 0.695365 0.472054 0.174796
H10   H     H_    0.303957 0.991515 0.027849 0.174781
H11   H     H_    0.008280 0.312267 0.472127 0.174734
H12   H     H_    0.687815 0.695659 0.027899 0.174798
H13   H     H_    0.993518 0.572255 0.816964 0.131140
H14   H     H_    0.579871 0.007175 0.682947 0.131259
H15   H     H_    0.427682 0.421173 0.816950 0.131138
H16   H     H_    0.993193 0.572396 0.682965 0.131194
H17   H     H_    0.579356 0.006856 0.817002 0.131201
H18   H     H_    0.427809 0.421437 0.683047 0.131115
H19   H     H_    0.572073 0.993998 0.316846 0.131045
H20   H     H_    0.006620 0.578990 0.183036 0.131157
H21   H     H_    0.420756 0.427499 0.316951 0.131173
H22   H     H_    0.572184 0.993703 0.183083 0.131094
H23   H     H_    0.006227 0.578353 0.316905 0.131087
H24   H     H_    0.421022 0.427619 0.183050 0.131148
H25   H     H_    0.984491 0.706230 0.972414 0.172388
H26   H     H_    0.722930 0.017654 0.527394 0.172391
H27   H     H_    0.293715 0.278188 0.972414 0.172411
H28   H     H_    0.983198 0.705544 0.527471 0.172369
H29   H     H_    0.722340 0.016600 0.972510 0.172384
H30   H     H_    0.293548 0.278387 0.527616 0.172414
H31   H     H_    0.707229 0.986363 0.472244 0.172425
H32   H     H_    0.015858 0.721924 0.027558 0.172384
H33   H     H_    0.277863 0.294012 0.472467 0.172398
H34   H     H_    0.706638 0.985254 0.027656 0.172402
H35   H     H_    0.014592 0.721215 0.472329 0.172383
H36   H     H_    0.278060 0.293828 0.027563 0.172406
H37   H     H_    0.043757 0.602129 0.871529 0.152904
H38   H     H_    0.559695 0.957096 0.628367 0.152889
H39   H     H_    0.397761 0.441534 0.871510 0.152901
H40   H     H_    0.043263 0.602204 0.628383 0.152878
H41   H     H_    0.559075 0.956675 0.871572 0.152897
H42   H     H_    0.397930 0.441803 0.628484 0.152908
H43   H     H_    0.602067 0.044521 0.371381 0.152930
H44   H     H_    0.956353 0.558630 0.128474 0.152900
H45   H     H_    0.441100 0.397520 0.371506 0.152885
H46   H     H_    0.602102 0.044053 0.128530 0.152917
H47   H     H_    0.955837 0.557864 0.371454 0.152910
H48   H     H_    0.441376 0.397672 0.128492 0.152892
H49   H     H_    0.239771 0.549539 0.156925 0.145076
H50   H     H_    0.310274 0.760019 0.343138 0.144801
H51   H     H_    0.450458 0.690183 0.156914 0.145068
H52   H     H_    0.239985 0.550043 0.343103 0.144889
H53   H     H_    0.310019 0.760047 0.156899 0.144927
H54   H     H_    0.450715 0.690283 0.343085 0.145137
H55   H     H_    0.548847 0.239477 0.656966 0.145335
H56   H     H_    0.760071 0.309860 0.843075 0.145002
H57   H     H_    0.690047 0.450042 0.656915 0.144950
H58   H     H_    0.549256 0.239653 0.843058 0.145183
H59   H     H_    0.760143 0.309586 0.656961 0.145145
H60   H     H_    0.690139 0.450310 0.843086 0.145024
N1    N     N_R   0.040562 0.530763 0.079705 -0.372417
N2    N     N_R   0.490460 0.960055 0.420231 -0.372441
N3    N     N_R   0.469238 0.509711 0.079711 -0.372416
N4    N     N_R   0.040266 0.530494 0.420260 -0.372439
N5    N     N_R   0.490257 0.959643 0.079727 -0.372420
N6    N     N_R   0.469223 0.509651 0.420283 -0.372423
N7    N     N_R   0.531147 0.041005 0.579651 -0.372382
N8    N     N_R   0.959383 0.490138 0.920300 -0.372410
N9    N     N_R   0.509841 0.469246 0.579699 -0.372399
N10   N     N_R   0.530924 0.040760 0.920318 -0.372399
N11   N     N_R   0.958986 0.489954 0.579658 -0.372393
N12   N     N_R   0.509757 0.469244 0.920293 -0.372410
O1    O     O_R   0.509640 0.171340 0.784000 -0.494320
O2    O     O_R   0.661700 0.490360 0.716000 -0.494275
O3    O     O_R   0.828660 0.338300 0.784000 -0.494294
O4    O     O_R   0.509640 0.171340 0.716000 -0.494356
O5    O     O_R   0.661700 0.490360 0.784000 -0.494297
O6    O     O_R   0.828660 0.338300 0.716000 -0.494350
O7    O     O_R   0.171340 0.509640 0.284000 -0.494279
O8    O     O_R   0.490360 0.661700 0.216000 -0.494292
O9    O     O_R   0.338300 0.828660 0.284000 -0.494236
O10   O     O_R   0.171340 0.509640 0.216000 -0.494327
O11   O     O_R   0.490360 0.661700 0.284000 -0.494317
O12   O     O_R   0.338300 0.828660 0.216000 -0.494289
O13   O     O_R   0.539230 0.345420 0.781810 -0.493401
O14   O     O_R   0.806190 0.460770 0.718190 -0.493370
O15   O     O_R   0.654580 0.193810 0.781810 -0.493377
O16   O     O_R   0.539230 0.345420 0.718190 -0.493426
O17   O     O_R   0.806190 0.460770 0.781810 -0.493367
O18   O     O_R   0.654580 0.193810 0.718190 -0.493426
O19   O     O_R   0.345420 0.539230 0.281810 -0.493360
O20   O     O_R   0.460770 0.806190 0.218190 -0.493379
O21   O     O_R   0.193810 0.654580 0.281810 -0.493314
O22   O     O_R   0.345420 0.539230 0.218190 -0.493390
O23   O     O_R   0.460770 0.806190 0.281810 -0.493378
O24   O     O_R   0.193810 0.654580 0.218190 -0.493365
O25   O     O_3   0.666667 0.333333 0.750000 -0.258392
O26   O     O_3   0.333333 0.666667 0.250000 -0.258413
O27   O     O_2   0.050087 0.670656 0.077880 -0.472774
O28   O     O_2   0.621403 0.951544 0.421969 -0.473184
O29   O     O_2   0.329351 0.379314 0.077890 -0.472734
O30   O     O_2   0.049203 0.670127 0.422040 -0.473127
O31   O     O_2   0.620953 0.950692 0.077950 -0.472966
O32   O     O_2   0.329208 0.379419 0.422130 -0.472719
O33   O     O_2   0.671397 0.051325 0.577763 -0.472267
O34   O     O_2   0.950124 0.620655 0.922103 -0.472809
O35   O     O_2   0.379177 0.329571 0.577919 -0.472756
O36   O     O_2   0.670966 0.050608 0.922170 -0.472579
O37   O     O_2   0.949185 0.620166 0.577809 -0.472548
O38   O     O_2   0.379257 0.329440 0.922097 -0.472738
O39   O     O_2   0.019201 0.385891 0.079124 -0.471818
O40   O     O_2   0.366389 0.980513 0.420895 -0.471755
O41   O     O_2   0.614116 0.633235 0.079125 -0.471860
O42   O     O_2   0.019471 0.385840 0.420883 -0.471717
O43   O     O_2   0.366415 0.980475 0.079098 -0.471756
O44   O     O_2   0.614210 0.632998 0.420843 -0.471910
O45   O     O_2   0.385973 0.018874 0.579125 -0.471951
O46   O     O_2   0.980478 0.366463 0.920905 -0.471764
O47   O     O_2   0.633658 0.613938 0.579069 -0.471762
O48   O     O_2   0.385925 0.019088 0.920876 -0.471868
O49   O     O_2   0.980552 0.366570 0.579097 -0.471793
O50   O     O_2   0.633392 0.614049 0.920898 -0.471825
Cl1   Cl    Cl    0.223701 0.532886 0.092213 -0.448406
Cl2   Cl    Cl    0.309895 0.776352 0.407844 -0.448125
Cl3   Cl    Cl    0.467112 0.690718 0.092203 -0.448476
Cl4   Cl    Cl    0.223784 0.533314 0.407812 -0.448096
Cl5   Cl    Cl    0.309506 0.776192 0.092189 -0.448267
Cl6   Cl    Cl    0.467411 0.690814 0.407795 -0.448476
Cl7   Cl    Cl    0.532298 0.223599 0.592249 -0.448873
Cl8   Cl    Cl    0.776097 0.309267 0.907788 -0.448379
Cl9   Cl    Cl    0.690605 0.466620 0.592200 -0.448450
Cl10  Cl    Cl    0.532646 0.223670 0.907772 -0.448582
Cl11  Cl    Cl    0.775997 0.308863 0.592243 -0.448555
Cl12  Cl    Cl    0.690684 0.466941 0.907798 -0.448479

loop_
_geom_bond_atom_site_label_1
_geom_bond_atom_site_label_2
_ccdc_geom_bond_type
C132  C144  A    
C12   O10   A    
C104  O34   D    
C154  H29   S    
C93   C141  A    
C45   C57   A    
C111  N3    Am   
C159  H12   S    
C47   C76   A    
C112  C124  A    
C33   C78   A    
C21   C33   A    
C40   H23   S    
C60   C72   A    
C113  O43   D    
C97   N1    Am   
C108  N12   Am   
C72   N12   S    
C115  N7    Am   
C86   C134  A    
C3    O15   A    
C105  O35   D    
C45   C78   A    
C155  H28   S    
C64   N4    S    
C108  O38   D    
C66   N6    S    
C53   H46   S    
C96   C108  A    
C15   Cl3   S    
C28   C83   A    
C40   C83   A    
Cr2   O2    S    
Cr5   O20   S    
C116  N8    Am   
C6    O4    A    
C30   H54   S    
C58   C70   A    
C117  O47   D    
C4    C78   S    
C96   C144  A    
C162  C165  A    
C15   C27   A    
C110  O40   D    
C57   H42   S    
C13   Cl1   S    
C88   C148  A    
C14   C26   A    
C48   H15   S    
C11   C79   S    
C9    C83   S    
C117  N9    Am   
C39   H24   S    
C112  N4    Am   
C26   H50   S    
C7    O11   A    
C157  H8    S    
C71   N11   S    
C3    C77   S    
C131  C143  A    
C114  N6    Am   
Cr4   O10   S    
C89   C101  A    
C20   C68   A    
C9    O7    A    
C91   C103  A    
C138  C141  A    
C63   N3    S    
C46   C77   A    
Cr3   O3    S    
C38   H19   S    
C22   Cl10  S    
C161  H10   S    
C93   C153  A    
C162  H9    S    
Cr4   O22   S    
Cr5   O23   S    
C109  C121  A    
C96   C156  A    
C123  C159  A    
C41   C82   A    
C124  C160  A    
C8    O12   A    
C42   H21   S    
C85   C97   A    
C92   C104  A    
C47   C59   A    
C29   C82   A    
C167  H4    S    
C98   N2    Am   
C4    O16   A    
C123  C135  A    
C5    O17   A    
C6    O18   A    
C105  N9    Am   
C110  C122  A    
Cr6   O21   S    
C39   C51   A    
C137  C142  A    
C46   H17   S    
C90   C150  A    
C9    O21   A    
C20   Cl8   S    
C10   O22   A    
C27   C84   A    
C85   C145  A    
C39   C84   A    
C136  C143  A    
C114  C126  A    
C89   C137  A    
C36   H60   S    
C14   C62   A    
C31   H55   S    
C128  C164  A    
C164  H1    S    
Cr3   O15   S    
C122  C134  A    
C98   O28   D    
C119  C131  A    
C100  N4    Am   
C148  C155  A    
C147  H36   S    
C117  C129  A    
C34   H58   S    
C46   C58   A    
C44   C73   A    
C42   C81   A    
C120  N12   Am   
C160  H11   S    
C146  H31   S    
C156  H27   S    
C149  H34   S    
C90   C138  A    
C118  N10   Am   
C22   C34   A    
C37   C80   A    
C35   C76   A    
C114  O44   D    
C94   C142  A    
C119  O49   D    
C120  O50   D    
C56   H37   S    
C134  C139  A    
C27   H51   S    
C31   C74   A    
Cr6   O26   S    
C56   C68   A    
C116  O46   D    
C21   C69   A    
C106  O36   D    
C36   C75   A    
C157  C164  A    
C41   C53   A    
C158  C163  A    
C109  N1    Am   
C43   C55   A    
C7    C81   S    
C61   N1    S    
C24   C72   A    
C20   C32   A    
C151  H26   S    
C118  O48   D    
C106  N10   Am   
Cr6   O12   S    
C1    O5    A    
C54   C66   A    
C18   C66   A    
C16   Cl4   S    
C50   H43   S    
C14   Cl2   S    
C47   H16   S    
C119  N11   Am   
C107  O37   D    
C148  H35   S    
C5    C73   S    
C130  C142  A    
C158  H7    S    
C145  C152  A    
C44   H13   S    
C146  C151  A    
C23   C71   A    
Cr2   O25   S    
C33   H57   S    
C22   C70   A    
C95   C143  A    
C101  N5    Am   
C25   C80   A    
C17   C29   A    
C23   Cl11  S    
Cr4   O26   S    
C19   C31   A    
C54   H45   S    
Cr6   O24   S    
C87   C147  A    
C100  O30   D    
C8    C82   S    
C101  O31   D    
C12   O24   A    
C34   C77   A    
C129  C141  A    
C38   C79   A    
C168  H3    S    
C7    O19   A    
C55   H38   S    
C126  C138  A    
C150  C153  A    
C11   O9    A    
C19   C67   A    
C35   H59   S    
C58   H41   S    
C89   C149  A    
C52   H47   S    
C11   O23   A    
C3    O1    A    
C86   C146  A    
C110  N2    Am   
C6    C74   S    
C32   H56   S    
Cr4   O7    S    
C49   C61   A    
C124  C136  A    
C111  C123  A    
C87   C135  A    
C51   C63   A    
C88   C136  A    
C5    O3    A    
C8    O20   A    
C52   C64   A    
C99   O29   D    
C69   N9    S    
C125  C137  A    
Cr3   O6    S    
C152  H25   S    
Cr1   O4    S    
C149  C154  A    
Cr4   O19   S    
C118  C130  A    
C2    O6    A    
C37   C49   A    
C44   C56   A    
C45   H18   S    
Cr5   O8    S    
C24   C36   A    
C147  C156  A    
C88   C100  A    
C95   C107  A    
C91   C139  A    
C17   Cl5   S    
C23   C35   A    
C115  O45   D    
C19   Cl7   S    
C92   C140  A    
C2    C76   S    
C127  C163  A    
C10   O8    A    
C125  C161  A    
C102  N6    Am   
C26   C79   A    
C129  C165  A    
C49   H44   S    
C37   H20   S    
C30   C81   A    
C42   C54   A    
C43   H14   S    
C104  N8    Am   
Cr1   O16   S    
C128  C140  A    
Cr3   O18   S    
C86   C98   A    
C99   N3    Am   
C133  C140  A    
C111  O41   D    
C85   C133  A    
C1    O13   A    
C16   C28   A    
C2    O14   A    
Cr3   O25   S    
C103  O33   D    
C67   N7    S    
C59   H40   S    
Cr5   O11   S    
C150  H33   S    
C41   H22   S    
C113  C125  A    
C51   H48   S    
C18   Cl6   S    
C115  C127  A    
C159  C168  A    
C160  C167  A    
C130  C166  A    
C4    O2    A    
C70   N10   S    
C90   C102  A    
C68   N8    S    
C92   C152  A    
C18   C30   A    
C161  C166  A    
C153  H30   S    
C93   C105  A    
C43   C74   A    
C121  C157  A    
C48   C75   A    
C13   C25   A    
C127  C139  A    
C102  O32   D    
C163  H2    S    
C145  H32   S    
C48   C60   A    
C87   C99   A    
C122  C158  A    
C62   N2    S    
C1    C75   S    
C28   H52   S    
C32   C73   A    
C40   C52   A    
Cr2   O17   S    
C24   Cl12  S    
C60   H39   S    
C94   C154  A    
C21   Cl9   S    
Cr1   O1    S    
C135  C144  A    
Cr1   O25   S    
C50   C62   A    
C29   H53   S    
C53   C65   A    
C94   C106  A    
C120  C132  A    
C107  N11   Am   
C132  C168  A    
Cr5   O26   S    
C55   C67   A    
C38   C50   A    
C112  O42   D    
C17   C65   A    
C57   C69   A    
C109  O39   D    
C91   C151  A    
C12   C80   S    
C10   C84   S    
C103  N7    Am   
Cr2   O5    S    
C25   H49   S    
C95   C155  A    
C131  C167  A    
Cr6   O9    S    
C113  N5    Am   
C13   C61   A    
C116  C128  A    
Cr1   O13   S    
C165  H6    S    
C15   C63   A    
C65   N5    S    
Cr2   O14   S    
C166  H5    S    
C16   C64   A    
C121  C133  A    
C126  C162  A    
C97   O27   D    
C59   C71   A    
