data_mof_unit_59550.cif
_audit_creation_date              2012-10-26T21:10:27-0400
_audit_creation_method            fapswitch 2.2
_symmetry_space_group_name_H-M    P1
_symmetry_Int_Tables_number       1
_space_group_crystal_system       triclinic
_cell_length_a                    10.893074
_cell_length_b                    10.912145
_cell_length_c                    9.764972
_cell_angle_alpha                 88.899066
_cell_angle_beta                  91.041524
_cell_angle_gamma                 90.979406
_cell_volume                      1160.16221901

loop_
_atom_site_label
_atom_site_type_symbol
_atom_type_description
_atom_site_fract_x
_atom_site_fract_y
_atom_site_fract_z
_atom_type_partial_charge
C1    C     C_R   0.497787 0.265449 0.501023 0.553918
C2    C     C_R   0.832270 0.502096 0.991507 -0.107649
C3    C     C_R   0.790937 0.381484 0.016504 0.243571
C4    C     C_R   0.262338 0.498468 0.498632 0.527567
C5    C     C_R   0.795026 0.296845 0.908899 -0.092124
C6    C     C_R   0.845950 0.331059 0.782813 0.288714
C7    C     C_R   0.887672 0.452599 0.760405 0.051474
C8    C     C_2   0.473679 0.934489 0.390445 -0.177626
C9    C     C_2   0.508120 0.866683 0.499561 -0.119228
C10   C     C_2   0.481818 0.068547 0.389338 -0.186979
C11   C     C_2   0.489719 0.133047 0.504780 -0.115178
C12   C     C_R   0.150174 0.378724 0.974810 -0.135680
C13   C     C_2   0.454713 0.408800 0.921457 0.401279
C14   C     C_2   0.470386 0.404884 0.078142 0.135901
C15   C     C_R   0.500966 0.734466 0.499131 0.535329
C16   C     C_R   0.737478 0.497656 0.501568 0.559050
C17   C     C_R   0.162215 0.502095 0.009693 -0.107866
C18   C     C_R   0.138606 0.537910 0.142913 -0.111335
C19   C     C_R   0.106921 0.449599 0.242715 0.070617
C20   C     C_R   0.102625 0.324403 0.209619 0.306201
C21   C     C_R   0.121839 0.290061 0.074343 -0.115726
C22   C     C_3   0.753716 0.231161 0.185165 -0.098207
C23   C     C_R   0.931423 0.495598 0.379584 -0.131074
C24   C     C_3   0.953369 0.176365 0.694285 -0.123708
C25   C     C_3   0.415355 0.199615 0.906398 -0.153380
C26   C     C_3   0.582693 0.685152 0.115218 -0.040278
C27   C     C_3   0.170506 0.175135 0.354822 -0.125801
C28   C     C_R   0.871475 0.495094 0.504431 0.029846
C29   C     C_R   0.941101 0.489145 0.627538 0.004611
C30   C     C_R   0.068002 0.500332 0.621832 -0.164868
C31   C     C_R   0.128144 0.497005 0.496553 -0.002440
C32   C     C_R   0.057870 0.487660 0.374376 -0.003378
C33   C     C_R   0.881028 0.537358 0.865385 -0.195480
Cu1   Cu    Cu3+1 0.500020 0.500020 0.638630 1.005467
Cu2   Cu    Cu3+1 0.499980 0.499980 0.361370 1.001783
H1    H     H_    0.162462 0.350946 0.870555 0.156590
H2    H     H_    0.913316 0.630877 0.849400 0.107008
H3    H     H_    0.741521 0.224165 0.297610 0.184827
H4    H     H_    0.846688 0.196229 0.163610 0.143810
H5    H     H_    0.680864 0.173275 0.136684 0.076193
H6    H     H_    0.953926 0.124325 0.793491 0.089055
H7    H     H_    0.038255 0.233967 0.685328 0.126615
H8    H     H_    0.953990 0.108692 0.611006 0.152153
H9    H     H_    0.543917 0.907130 0.592788 0.103573
H10   H     H_    0.485733 0.089779 0.605274 0.101798
H11   H     H_    0.361043 0.178560 0.999305 0.087518
H12   H     H_    0.758703 0.204516 0.920913 0.092977
H13   H     H_    0.515411 0.187763 0.927028 0.100482
H14   H     H_    0.386892 0.131451 0.828780 0.134274
H15   H     H_    0.650575 0.648347 0.190903 0.158536
H16   H     H_    0.552384 0.775582 0.149635 0.118192
H17   H     H_    0.631015 0.702902 0.017805 0.059187
H18   H     H_    0.238081 0.239289 0.403164 0.134358
H19   H     H_    0.214343 0.123753 0.271918 0.104108
H20   H     H_    0.141822 0.107502 0.434685 0.128973
H21   H     H_    0.112408 0.194902 0.045961 0.098988
H22   H     H_    0.120097 0.503286 0.716503 0.127732
H23   H     H_    0.439736 0.891126 0.297838 0.139947
H24   H     H_    0.827352 0.569585 0.070616 0.101303
H25   H     H_    0.477972 0.114802 0.289878 0.127930
H26   H     H_    0.566741 0.551429 0.890268 0.211625
H27   H     H_    0.458029 0.317829 0.131026 0.076210
H28   H     H_    0.186107 0.570632 0.932822 0.131605
H29   H     H_    0.141119 0.634336 0.167283 0.112586
H30   H     H_    0.879447 0.493617 0.284716 0.169274
N1    N     N_2   0.498640 0.498660 0.846910 -0.299111
N2    N     N_2   0.498610 0.498630 0.153040 -0.045593
O1    O     O_R   0.500020 0.321960 0.617040 -0.440166
O2    O     O_3   0.847183 0.247622 0.678173 -0.560422
O3    O     O_3   0.388428 0.317593 0.853697 -0.547243
O4    O     O_3   0.478269 0.608892 0.092383 -0.508195
O5    O     O_3   0.065849 0.237542 0.305958 -0.580980
O6    O     O_R   0.499980 0.321920 0.382900 -0.524128
O7    O     O_R   0.319660 0.500030 0.617070 -0.482500
O8    O     O_R   0.319620 0.499990 0.382930 -0.497572
O9    O     O_R   0.500020 0.678080 0.617100 -0.509357
O10   O     O_R   0.499980 0.678040 0.382960 -0.497296
O11   O     O_R   0.680380 0.500010 0.617070 -0.502634
O12   O     O_R   0.680340 0.499970 0.382930 -0.499692
O13   O     O_3   0.740515 0.354917 0.143864 -0.569862

loop_
_geom_bond_atom_site_label_1
_geom_bond_atom_site_label_2
_ccdc_geom_bond_type
C16   C28   S    
C6    O2    S    
C7    C29   S    
C24   H7    S    
C19   C20   A    
C1    C11   S    
Cu1   N1    S    
C27   H19   S    
C5    H12   S    
Cu2   O8    S    
C5    C6    A    
C28   C29   A    
Cu1   Cu2   S    
C26   H15   S    
C30   C31   A    
C27   H20   S    
C13   O3    S    
C3    O13   S    
C14   H27   S    
C30   H22   S    
C1    O1    A    
C18   C19   A    
C4    O8    A    
C8    H23   S    
H26   N1    S    
C8    C9    D    
C12   C17   A    
C14   N2    D    
C12   H1    S    
C4    O7    A    
C15   O9    A    
C13   C14   S    
C24   H6    S    
C7    C33   A    
C19   C32   S    
C24   O2    S    
C13   N1    D    
Cu1   O1    S    
C2    H24   S    
C12   C21   A    
Cu2   O10   S    
C33   H2    S    
C10   H25   S    
C29   C30   A    
C26   H17   S    
C31   C32   A    
Cu2   N2    S    
C22   H5    S    
C17   C18   A    
C23   C28   A    
C25   H13   S    
Cu1   O7    S    
C2    C33   A    
C11   H10   S    
C16   O11   A    
Cu2   O6    S    
C9    H9    S    
C3    C5    A    
C21   H21   S    
C27   H18   S    
C6    C7    A    
C16   O12   A    
C1    O6    A    
C23   C32   A    
C23   H30   S    
C2    C3    A    
C9    C15   S    
C22   O13   S    
C26   H16   S    
Cu1   O11   S    
C18   H29   S    
C15   O10   A    
C26   O4    S    
C22   H4    S    
Cu2   O12   S    
N2    O4    S    
C25   H14   S    
C4    C31   S    
C10   C11   D    
C20   C21   A    
C8    C10   S    
C24   H8    S    
C20   O5    S    
C25   O3    S    
C25   H11   S    
C17   H28   S    
C27   O5    S    
Cu1   O9    S    
C22   H3    S    
