data_mof_unit_51842.cif
_audit_creation_date              2012-12-11T15:43:09-0500
_audit_creation_method            fapswitch 2.2
_symmetry_space_group_name_H-M    P1
_symmetry_Int_Tables_number       1
_space_group_crystal_system       triclinic
_cell_length_a                    19.026527
_cell_length_b                    10.924208
_cell_length_c                    18.811316
_cell_angle_alpha                 90.012122
_cell_angle_beta                  89.754737
_cell_angle_gamma                 89.53305
_cell_volume                      3909.76132371

loop_
_atom_site_label
_atom_site_type_symbol
_atom_type_description
_atom_site_fract_x
_atom_site_fract_y
_atom_site_fract_z
_atom_type_partial_charge
C1    C     C_R   0.711754 0.329740 0.138557 0.564393
C2    C     C_R   0.960855 0.989685 0.046750 -0.128207
C3    C     C_R   0.761417 0.466654 0.566695 0.018167
C4    C     C_R   0.729561 0.380323 0.351597 0.549755
C5    C     C_R   0.270934 0.376435 0.646710 0.526870
C6    C     C_R   0.229561 0.880323 0.351597 0.549755
C7    C     C_R   0.770934 0.876435 0.646710 0.526871
C8    C     C_R   0.531421 0.156808 0.352905 0.540434
C9    C     C_R   0.437236 0.153264 0.639108 0.543858
C10   C     C_R   0.031421 0.656808 0.352905 0.540434
C11   C     C_R   0.937236 0.653264 0.639108 0.543860
C12   C     C_R   0.742141 0.970529 0.353832 0.540848
C13   C     C_R   0.471614 0.500965 0.973984 -0.137831
C14   C     C_R   0.269591 0.010946 0.637976 0.534309
C15   C     C_R   0.242141 0.470529 0.353832 0.540848
C16   C     C_R   0.769591 0.510947 0.637976 0.534308
C17   C     C_R   0.500074 0.169971 0.923728 -0.008152
C18   C     C_R   0.508359 0.160475 0.072394 -0.004033
C19   C     C_R   0.000074 0.669971 0.923728 -0.008153
C20   C     C_R   0.008359 0.660475 0.072394 -0.004033
C21   C     C_R   0.491435 0.279809 0.964317 0.027087
C22   C     C_R   0.488622 0.271690 0.039470 0.006247
C23   C     C_R   0.991435 0.779809 0.964317 0.027087
C24   C     C_R   0.460855 0.489685 0.046750 -0.128207
C25   C     C_R   0.988622 0.771690 0.039470 0.006247
C26   C     C_R   0.523750 0.057073 0.030436 -0.150062
C27   C     C_R   0.520010 0.061970 0.957641 -0.167277
C28   C     C_R   0.023750 0.557073 0.030436 -0.150062
C29   C     C_R   0.020010 0.561970 0.957641 -0.167277
C30   C     C_3   0.919193 0.083907 0.429749 -0.245824
C31   C     C_3   0.947030 0.205869 0.402619 -0.311612
C32   C     C_3   0.018684 0.188938 0.366729 -0.450381
C33   C     C_3   0.139540 0.780216 0.589619 -0.259969
C34   C     C_3   0.145090 0.787508 0.670947 -0.277033
C35   C     C_R   0.745995 0.924187 0.921899 0.015064
C36   C     C_3   0.136726 0.662157 0.705585 -0.449931
C37   C     C_3   0.419193 0.583908 0.429749 -0.245823
C38   C     C_3   0.447030 0.705870 0.402620 -0.311611
C39   C     C_3   0.518684 0.688940 0.366729 -0.450380
C40   C     C_3   0.639540 0.280217 0.589617 -0.259971
C41   C     C_3   0.645103 0.287506 0.670945 -0.277025
C42   C     C_3   0.636727 0.162158 0.705584 -0.449937
C43   C     C_R   0.222268 0.845467 0.062191 0.013643
C44   C     C_R   0.245995 0.424187 0.921899 0.015064
C45   C     C_R   0.722268 0.345467 0.062191 0.013643
C46   C     C_R   0.697147 0.860215 0.963588 0.003114
C47   C     C_R   0.287633 0.826048 0.029851 0.006184
C48   C     C_R   0.197147 0.360215 0.963588 0.003114
C49   C     C_R   0.269588 0.376881 0.853904 0.548538
C50   C     C_R   0.787633 0.326048 0.029851 0.006184
C51   C     C_R   0.695065 0.875450 0.036628 0.009951
C52   C     C_R   0.298026 0.852599 0.958695 0.004361
C53   C     C_R   0.195065 0.375450 0.036628 0.009951
C54   C     C_R   0.798026 0.352599 0.958695 0.004360
C55   C     C_R   0.785727 0.027072 0.027330 -0.139602
C56   C     C_R   0.175153 0.901794 0.946590 -0.158336
C57   C     C_R   0.285727 0.527072 0.027330 -0.139602
C58   C     C_R   0.675153 0.401794 0.946590 -0.158336
C59   C     C_R   0.785126 0.016926 0.953902 -0.141974
C60   C     C_R   0.211753 0.829740 0.138557 0.564393
C61   C     C_R   0.164925 0.875608 0.018679 -0.152742
C62   C     C_R   0.285126 0.516926 0.953902 -0.141974
C63   C     C_R   0.664925 0.375608 0.018679 -0.152742
C64   C     C_3   0.683752 0.725853 0.969731 -0.245405
C65   C     C_3   0.358335 0.872319 0.050205 -0.267717
C66   C     C_3   0.183752 0.225853 0.969731 -0.245405
C67   C     C_3   0.858335 0.372319 0.050205 -0.267717
C68   C     C_3   0.680564 0.743322 0.049605 -0.276048
C69   C     C_3   0.369695 0.901997 0.972239 -0.257016
C70   C     C_3   0.180564 0.243322 0.049605 -0.276048
C71   C     C_R   0.769588 0.876881 0.853904 0.548538
C72   C     C_3   0.869695 0.401997 0.972239 -0.257016
C73   C     C_R   0.744171 0.950025 0.069891 0.021771
C74   C     C_R   0.243311 0.900049 0.917321 0.006430
C75   C     C_R   0.244171 0.450025 0.069891 0.021771
C76   C     C_R   0.743311 0.400049 0.917321 0.006430
C77   C     C_R   0.532297 0.154932 0.146186 0.529801
C78   C     C_R   0.469108 0.156431 0.852841 0.538152
C79   C     C_R   0.032297 0.654932 0.146186 0.529801
C80   C     C_R   0.969108 0.656431 0.852841 0.538152
C81   C     C_R   0.456313 0.159520 0.564634 0.004933
C82   C     C_R   0.486474 0.397549 0.932956 -0.085934
C83   C     C_R   0.496151 0.159891 0.421160 0.012822
C84   C     C_R   0.956314 0.659520 0.564634 0.004935
C85   C     C_R   0.996151 0.659891 0.421159 0.012822
C86   C     C_R   0.480320 0.053340 0.531625 0.003172
C87   C     C_R   0.499820 0.053812 0.461950 0.020918
C88   C     C_R   0.980320 0.553340 0.531625 0.003171
C89   C     C_R   0.999820 0.553812 0.461949 0.020917
C90   C     C_R   0.466078 0.265225 0.451043 -0.169441
C91   C     C_R   0.446586 0.265657 0.523262 -0.161724
C92   C     C_R   0.966079 0.765225 0.451043 -0.169441
C93   C     C_R   0.468534 0.376043 0.079385 -0.097466
C94   C     C_R   0.946587 0.765657 0.523262 -0.161723
C95   C     C_3   0.538694 0.968648 0.552604 -0.271012
C96   C     C_3   0.562026 0.973376 0.476048 -0.262148
C97   C     C_3   0.038694 0.468647 0.552604 -0.271012
C98   C     C_3   0.062025 0.473375 0.476047 -0.262147
C99   C     C_R   0.757583 0.902842 0.572630 0.003711
C100  C     C_R   0.245001 0.927070 0.421374 0.013131
C101  C     C_R   0.257583 0.402842 0.572630 0.003711
C102  C     C_R   0.745002 0.427071 0.421374 0.013130
C103  C     C_R   0.808443 0.967514 0.535713 0.002264
C104  C     C_R   0.986475 0.897549 0.932956 -0.085934
C105  C     C_R   0.187673 0.959509 0.464553 0.004989
C106  C     C_R   0.308443 0.467514 0.535713 0.002264
C107  C     C_R   0.687674 0.459511 0.464552 0.004990
C108  C     C_R   0.809403 0.973327 0.463913 0.018278
C109  C     C_R   0.195544 0.975200 0.536102 0.033219
C110  C     C_R   0.309403 0.473327 0.463913 0.018278
C111  C     C_R   0.695545 0.475201 0.536101 0.033221
C112  C     C_R   0.710248 0.839256 0.457724 -0.167702
C113  C     C_R   0.320220 0.940941 0.523803 -0.173731
C114  C     C_R   0.210249 0.339256 0.457724 -0.167702
C115  C     C_R   0.968534 0.876043 0.079385 -0.097466
C116  C     C_R   0.820221 0.440941 0.523803 -0.173731
C117  C     C_R   0.710913 0.830338 0.532355 -0.162004
C118  C     C_R   0.312334 0.924070 0.450641 -0.174330
C119  C     C_R   0.210913 0.330338 0.532355 -0.162004
C120  C     C_R   0.812334 0.424071 0.450641 -0.174330
C121  C     C_3   0.843605 0.087961 0.545458 -0.261732
C122  C     C_3   0.119488 0.894330 0.473965 -0.242976
C123  C     C_3   0.343605 0.587960 0.545458 -0.261732
C124  C     C_3   0.619488 0.394334 0.473964 -0.242977
C125  C     C_R   0.740159 0.974828 0.145442 0.538262
C126  C     C_R   0.971614 0.000965 0.973984 -0.137831
C127  C     C_R   0.258063 0.967216 0.851915 0.536730
C128  C     C_R   0.240159 0.474828 0.145442 0.538262
C129  C     C_R   0.758063 0.467216 0.851915 0.536732
C130  C     C_3   0.845535 0.095206 0.464078 -0.115984
C131  C     C_3   0.129389 0.906662 0.553697 -0.125278
C132  C     C_3   0.345536 0.595206 0.464078 -0.115984
C133  C     C_3   0.629390 0.406664 0.553697 -0.125278
C134  C     C_R   0.756195 0.920580 0.423569 0.007829
C135  C     C_R   0.261417 0.966652 0.566695 0.018168
C136  C     C_R   0.256195 0.420580 0.423569 0.007829
Cr1   Cr    Cr6+3 0.772010 0.169670 0.250090 0.988989
Cr2   Cr    Cr6+3 0.383290 0.010760 0.749160 0.993097
Cr3   Cr    Cr6+3 0.116710 0.510760 0.250840 0.995962
Cr4   Cr    Cr6+3 0.883290 0.510760 0.749160 0.993096
Cr5   Cr    Cr6+3 0.227990 0.169670 0.749910 0.986144
Cr6   Cr    Cr6+3 0.272010 0.669670 0.250090 0.988989
Cr7   Cr    Cr6+3 0.727990 0.669670 0.749910 0.986144
Cr8   Cr    Cr6+3 0.615000 0.323260 0.249260 0.991322
Cr9   Cr    Cr6+3 0.385000 0.323260 0.750740 0.988493
Cr10  Cr    Cr6+3 0.115000 0.823260 0.249260 0.991322
Cr11  Cr    Cr6+3 0.885000 0.823260 0.750740 0.988492
Cr12  Cr    Cr6+3 0.616710 0.010760 0.250840 0.995962
H1    H     H_    0.540493 0.970921 0.053615 0.150659
H2    H     H_    0.112287 0.523080 0.468421 0.146511
H3    H     H_    0.519043 0.877136 0.568729 0.136735
H4    H     H_    0.612287 0.023082 0.468422 0.146511
H5    H     H_    0.577133 0.009830 0.589562 0.142046
H6    H     H_    0.558644 0.883968 0.448992 0.143635
H7    H     H_    0.077133 0.509826 0.589561 0.142043
H8    H     H_    0.058643 0.383967 0.448991 0.143635
H9    H     H_    0.671085 0.790145 0.427751 0.123729
H10   H     H_    0.371266 0.930772 0.547440 0.141494
H11   H     H_    0.171085 0.290145 0.427751 0.123729
H12   H     H_    0.529194 0.978243 0.927961 0.136030
H13   H     H_    0.871266 0.430772 0.547440 0.141494
H14   H     H_    0.674663 0.768422 0.558112 0.141177
H15   H     H_    0.357571 0.904696 0.417825 0.120442
H16   H     H_    0.174663 0.268422 0.558112 0.141178
H17   H     H_    0.857571 0.404696 0.417825 0.120442
H18   H     H_    0.895784 0.078589 0.571307 0.138275
H19   H     H_    0.121951 0.798780 0.453590 0.147160
H20   H     H_    0.395784 0.578589 0.571307 0.138276
H21   H     H_    0.621950 0.298784 0.453589 0.147162
H22   H     H_    0.808146 0.157465 0.570056 0.126030
H23   H     H_    0.040493 0.470921 0.053615 0.150659
H24   H     H_    0.074783 0.949570 0.453477 0.124546
H25   H     H_    0.308147 0.657465 0.570056 0.126029
H26   H     H_    0.574783 0.449575 0.453477 0.124544
H27   H     H_    0.811603 0.169345 0.442388 0.173545
H28   H     H_    0.088260 0.965502 0.578840 0.139038
H29   H     H_    0.311603 0.669345 0.442388 0.173545
H30   H     H_    0.588261 0.465504 0.578841 0.139038
H31   H     H_    0.497812 0.412915 0.877415 0.131869
H32   H     H_    0.458864 0.371011 0.135983 0.132907
H33   H     H_    0.997812 0.912915 0.877415 0.131868
H34   H     H_    0.029194 0.478243 0.927961 0.136030
H35   H     H_    0.958864 0.871011 0.135983 0.132907
H36   H     H_    0.968045 0.090159 0.949116 0.098430
H37   H     H_    0.947761 0.069636 0.078267 0.105784
H38   H     H_    0.468045 0.590159 0.949116 0.098430
H39   H     H_    0.447761 0.569636 0.078267 0.105784
H40   H     H_    0.820566 0.093196 0.050749 0.144050
H41   H     H_    0.131087 0.935173 0.915840 0.132074
H42   H     H_    0.320566 0.593196 0.050749 0.144050
H43   H     H_    0.631087 0.435173 0.915840 0.132074
H44   H     H_    0.821344 0.072200 0.923307 0.139483
H45   H     H_    0.462380 0.347153 0.419801 0.112833
H46   H     H_    0.113285 0.887774 0.041575 0.153516
H47   H     H_    0.321344 0.572200 0.923307 0.139483
H48   H     H_    0.613285 0.387774 0.041575 0.153516
H49   H     H_    0.229615 0.169307 0.952692 0.162626
H50   H     H_    0.893481 0.297963 0.069736 0.127330
H51   H     H_    0.729614 0.669307 0.952692 0.162626
H52   H     H_    0.393481 0.797962 0.069736 0.127330
H53   H     H_    0.632492 0.699451 0.946356 0.138085
H54   H     H_    0.355461 0.954979 0.084667 0.151129
H55   H     H_    0.132492 0.199451 0.946356 0.138085
H56   H     H_    0.427986 0.349250 0.547571 0.142943
H57   H     H_    0.855460 0.454979 0.084667 0.151129
H58   H     H_    0.627188 0.728856 0.072200 0.140372
H59   H     H_    0.372918 0.001945 0.961680 0.159080
H60   H     H_    0.127188 0.228856 0.072200 0.140372
H61   H     H_    0.872918 0.501945 0.961680 0.159080
H62   H     H_    0.723881 0.695768 0.078315 0.144805
H63   H     H_    0.411569 0.845121 0.946951 0.133993
H64   H     H_    0.223881 0.195768 0.078315 0.144805
H65   H     H_    0.911569 0.345121 0.946951 0.133993
H66   H     H_    0.058608 0.160166 0.406370 0.142726
H67   H     H_    0.962380 0.847153 0.419801 0.112833
H68   H     H_    0.015904 0.118850 0.324046 0.152149
H69   H     H_    0.035349 0.276530 0.342231 0.160766
H70   H     H_    0.910016 0.243471 0.362530 0.179608
H71   H     H_    0.951657 0.270828 0.447724 0.158328
H72   H     H_    0.957461 0.043620 0.467747 0.130019
H73   H     H_    0.915624 0.022475 0.382829 0.170325
H74   H     H_    0.082632 0.628095 0.697784 0.190987
H75   H     H_    0.175062 0.595680 0.682645 0.148238
H76   H     H_    0.146283 0.669689 0.763628 0.145199
H77   H     H_    0.197584 0.821189 0.685929 0.204990
H78   H     H_    0.927986 0.849251 0.547571 0.142943
H79   H     H_    0.104213 0.850616 0.692692 0.179580
H80   H     H_    0.093155 0.724492 0.576234 0.162407
H81   H     H_    0.186508 0.732080 0.567537 0.140452
H82   H     H_    0.558608 0.660168 0.406371 0.142725
H83   H     H_    0.515904 0.618851 0.324047 0.152150
H84   H     H_    0.535349 0.776532 0.342231 0.160767
H85   H     H_    0.410016 0.743472 0.362530 0.179608
H86   H     H_    0.451657 0.770829 0.447725 0.158328
H87   H     H_    0.457461 0.543621 0.467747 0.130019
H88   H     H_    0.415624 0.522476 0.382829 0.170325
H89   H     H_    0.019042 0.377135 0.568728 0.136734
H90   H     H_    0.582628 0.128120 0.697790 0.190992
H91   H     H_    0.675050 0.095666 0.682637 0.148237
H92   H     H_    0.646294 0.169686 0.763625 0.145200
H93   H     H_    0.697604 0.321166 0.685918 0.204980
H94   H     H_    0.604237 0.350631 0.692696 0.179586
H95   H     H_    0.593152 0.224499 0.576238 0.162410
H96   H     H_    0.686504 0.232075 0.567528 0.140448
O1    O     O_R   0.787520 0.042810 0.170440 -0.537958
O2    O     O_R   0.454050 0.051210 0.669140 -0.533436
O3    O     O_R   0.045950 0.551210 0.330860 -0.519509
O4    O     O_R   0.954050 0.551210 0.669140 -0.533436
O5    O     O_R   0.681390 0.959480 0.325510 -0.505942
O6    O     O_R   0.318610 0.959480 0.674490 -0.524585
O7    O     O_R   0.181390 0.459480 0.325510 -0.505942
O8    O     O_R   0.818610 0.459480 0.674490 -0.524589
O9    O     O_3   0.667900 0.167900 0.250060 -0.260841
O10   O     O_3   0.332100 0.167900 0.749940 -0.265840
O11   O     O_3   0.167900 0.667900 0.250060 -0.260841
O12   O     O_R   0.212480 0.042810 0.829560 -0.532444
O13   O     O_3   0.832100 0.667900 0.749940 -0.265840
O14   O     O_R   0.765640 0.292100 0.175020 -0.501390
O15   O     O_R   0.234360 0.292100 0.824980 -0.499663
O16   O     O_R   0.265640 0.792100 0.175020 -0.501390
O17   O     O_R   0.734360 0.792100 0.824980 -0.499663
O18   O     O_R   0.670190 0.408840 0.168540 -0.519875
O19   O     O_R   0.329810 0.408840 0.831460 -0.519668
O20   O     O_R   0.170190 0.908840 0.168540 -0.519875
O21   O     O_R   0.829810 0.908840 0.831460 -0.519668
O22   O     O_R   0.556620 0.251410 0.175160 -0.525526
O23   O     O_R   0.287520 0.542810 0.170440 -0.537958
O24   O     O_R   0.443380 0.251410 0.824840 -0.505539
O25   O     O_R   0.056620 0.751410 0.175160 -0.525526
O26   O     O_R   0.943380 0.751410 0.824840 -0.505539
O27   O     O_R   0.545960 0.049620 0.170320 -0.522835
O28   O     O_R   0.454040 0.049620 0.829680 -0.522203
O29   O     O_R   0.045960 0.549620 0.170320 -0.522834
O30   O     O_R   0.954040 0.549620 0.829680 -0.522203
O31   O     O_R   0.681390 0.958010 0.176690 -0.496694
O32   O     O_R   0.318610 0.958010 0.823310 -0.492247
O33   O     O_R   0.181390 0.458010 0.176690 -0.496694
O34   O     O_R   0.712480 0.542810 0.829560 -0.532444
O35   O     O_R   0.818610 0.458010 0.823310 -0.492248
O36   O     O_R   0.787510 0.044390 0.330970 -0.528458
O37   O     O_R   0.212490 0.044390 0.669030 -0.530318
O38   O     O_R   0.287510 0.544390 0.330970 -0.528457
O39   O     O_R   0.712490 0.544390 0.669030 -0.530315
O40   O     O_R   0.765630 0.293570 0.323840 -0.514251
O41   O     O_R   0.234370 0.293570 0.676160 -0.518359
O42   O     O_R   0.265630 0.793570 0.323840 -0.514251
O43   O     O_R   0.734370 0.793570 0.676160 -0.518361
O44   O     O_R   0.670190 0.410420 0.329080 -0.514372
O45   O     O_R   0.556610 0.252880 0.323980 -0.512765
O46   O     O_R   0.329810 0.410420 0.670920 -0.524808
O47   O     O_R   0.170190 0.910420 0.329080 -0.514372
O48   O     O_R   0.829810 0.910420 0.670920 -0.524808
O49   O     O_R   0.443390 0.252880 0.676020 -0.511236
O50   O     O_R   0.056610 0.752880 0.323980 -0.512765
O51   O     O_R   0.943390 0.752880 0.676020 -0.511237
O52   O     O_R   0.545950 0.051210 0.330860 -0.519509

loop_
_geom_bond_atom_site_label_1
_geom_bond_atom_site_label_2
_ccdc_geom_bond_type
C99   C103  A    
Cr1   O36   S    
C55   C59   A    
Cr11  O21   S    
Cr3   O3    S    
C16   O8    A    
C10   C85   S    
Cr2   O28   S    
C121  H18   S    
C7    C99   S    
C124  C133  S    
C98   H2    S    
C75   C128  S    
C96   H6    S    
Cr4   O8    S    
C36   H76   S    
C69   H63   S    
C12   O36   A    
C88   C97   S    
C67   H57   S    
C104  H33   S    
C35   C71   S    
C21   C22   A    
C53   C75   A    
C107  C124  S    
C93   H32   S    
C98   H8    S    
C34   H77   S    
C42   H92   S    
C20   C28   A    
C13   C82   A    
C17   C21   A    
C12   O5    A    
C95   H5    S    
C19   C23   A    
C37   C38   S    
Cr2   O2    S    
C7    O48   A    
C92   C94   A    
Cr12  O5    S    
C9    O2    A    
C40   H96   S    
Cr9   O10   S    
C103  C121  S    
C43   C61   A    
C30   H72   S    
C1    O14   A    
C125  O31   A    
C122  H19   S    
Cr3   O33   S    
C26   H1    S    
C84   C88   A    
C112  C134  A    
C47   C52   A    
C11   C84   S    
C97   H89   S    
Cr7   O39   S    
C5    C101  S    
C60   O16   A    
Cr6   O38   S    
C30   C31   S    
C90   H45   S    
C45   C50   A    
C72   H61   S    
C17   C78   S    
C128  O23   A    
Cr9   O24   S    
C19   C80   S    
Cr9   O46   S    
C88   C89   A    
C113  C135  A    
C41   H93   S    
C114  C136  A    
C63   H48   S    
C43   C47   A    
C44   C48   A    
C78   O24   A    
C123  C132  S    
C109  C135  A    
C8    C83   S    
C70   H64   S    
C110  C136  A    
C121  C130  S    
C67   H50   S    
C68   H62   S    
C38   H85   S    
C9    O49   A    
C97   C98   S    
C42   H90   S    
C58   C76   A    
C66   C70   S    
C11   O51   A    
C79   O25   A    
C24   H39   S    
Cr5   O10   S    
C64   C68   S    
Cr11  O26   S    
C52   C74   A    
C3    C116  A    
C38   C39   S    
C133  H30   S    
C124  H26   S    
C14   C135  S    
C96   H4    S    
C131  H28   S    
C77   O22   A    
C92   H67   S    
C67   C72   S    
C74   C127  S    
Cr1   O40   S    
C50   C67   S    
C108  C130  S    
C114  C119  A    
C31   H70   S    
C32   H66   S    
C121  H22   S    
C12   C134  S    
C33   H81   S    
Cr5   O41   S    
C85   C92   A    
C37   H87   S    
C8    O45   A    
C14   O37   A    
C48   C53   A    
C29   H34   S    
C124  H21   S    
C17   C27   A    
C116  H13   S    
C102  C107  A    
C86   C95   S    
C15   C136  S    
C46   C51   A    
C116  C120  A    
C4    C102  S    
C6    C100  S    
Cr9   O19   S    
C99   C117  A    
Cr1   O1    S    
Cr10  O47   S    
C31   C32   S    
Cr7   O13   S    
C129  O34   A    
C46   C64   S    
C55   H40   S    
C110  C132  S    
C123  H20   S    
C68   H58   S    
C122  C131  S    
C101  C106  A    
C105  C109  A    
C18   C22   A    
Cr5   O12   S    
C107  C111  A    
Cr8   O22   S    
C81   C86   A    
Cr2   O6    S    
C119  H16   S    
C117  H14   S    
C89   C98   S    
C57   C75   A    
C2    H37   S    
C39   H84   S    
C24   C93   A    
C49   O15   A    
C1    C45   S    
C73   C125  S    
C4    O40   A    
C105  C122  S    
C72   H65   S    
C34   C36   S    
C7    O43   A    
C1    O18   A    
C55   C73   A    
C21   C82   A    
Cr3   O29   S    
C15   O38   A    
C10   O3    A    
C48   C66   S    
C3    C16   S    
C83   C87   A    
C64   H53   S    
Cr7   O43   S    
Cr10  O11   S    
Cr8   O44   S    
C41   C42   S    
C60   O20   A    
C125  O1    A    
C18   C26   A    
Cr8   O18   S    
C5    O46   A    
C26   C27   A    
C50   C54   A    
C11   O4    A    
C28   C29   A    
C112  C117  A    
C20   C25   A    
C35   C59   A    
C52   C69   S    
C95   H3    S    
C65   H54   S    
C3    C111  A    
C82   H31   S    
C109  C131  S    
C77   O27   A    
Cr10  O20   S    
C78   O28   A    
C10   O50   A    
C79   O29   A    
Cr4   O4    S    
Cr12  O27   S    
C59   H44   S    
C62   H47   S    
C53   C70   S    
C123  H25   S    
C120  H17   S    
C30   H73   S    
C31   H71   S    
Cr11  O48   S    
Cr10  O50   S    
C118  H15   S    
C69   H59   S    
C56   C74   A    
C112  H9    S    
C51   C73   A    
C39   H82   S    
Cr4   O13   S    
C85   C89   A    
C86   C87   A    
C8    O52   A    
C30   C130  S    
Cr7   O34   S    
Cr11  O13   S    
Cr3   O11   S    
C108  C134  A    
C65   H52   S    
C2    C115  A    
C23   C104  A    
Cr5   O15   S    
C84   C94   A    
C36   H75   S    
Cr5   O37   S    
C130  H27   S    
C100  C118  A    
C19   C29   A    
C102  C120  A    
C6    O47   A    
C40   C133  S    
C13   H38   S    
C20   C79   S    
Cr10  O25   S    
C38   H86   S    
C115  H35   S    
C42   H91   S    
C14   O6    A    
C16   O39   A    
C90   C91   A    
Cr11  O51   S    
C18   C77   S    
C65   C69   S    
C97   H7    S    
C40   H95   S    
C94   H78   S    
C81   C91   A    
C64   H51   S    
C58   H43   S    
C56   C61   A    
Cr2   O10   S    
C35   C46   A    
C44   C49   S    
C71   O17   A    
C126  H36   S    
C95   C96   S    
C127  O32   A    
C33   H80   S    
C49   O19   A    
C57   C62   A    
Cr1   O14   S    
C100  C105  A    
C4    O44   A    
C6    O42   A    
C25   C115  A    
C70   H60   S    
Cr4   O30   S    
C106  C123  S    
C103  C108  A    
Cr7   O17   S    
C113  H10   S    
C5    O41   A    
C32   H69   S    
C132  H29   S    
C33   C131  S    
Cr12  O9    S    
C71   O21   A    
Cr4   O35   S    
Cr12  O52   S    
C127  O12   A    
C101  C119  A    
Cr6   O23   S    
C111  C133  S    
C44   C62   A    
C27   H12   S    
C45   C63   A    
Cr6   O11   S    
C13   C24   A    
Cr2   O32   S    
C32   H68   S    
C39   H83   S    
C76   C129  S    
C28   H23   S    
C87   C96   S    
C80   O30   A    
C33   C34   S    
Cr12  O31   S    
C104  C126  A    
Cr6   O16   S    
C43   C60   S    
Cr6   O42   S    
C54   C76   A    
C66   H55   S    
C2    C126  A    
C40   C41   S    
C122  H24   S    
C22   C93   A    
C36   H74   S    
C128  O33   A    
C37   H88   S    
C106  C110  A    
C58   C63   A    
C83   C90   A    
C56   H41   S    
Cr3   O7    S    
C91   H56   S    
Cr8   O45   S    
Cr8   O9    S    
C37   C132  S    
C41   H94   S    
C34   H79   S    
C57   H42   S    
Cr9   O49   S    
C15   O7    A    
C129  O35   A    
C80   O26   A    
C51   C68   S    
C23   C25   A    
C114  H11   S    
C66   H49   S    
C113  C118  A    
C54   C72   S    
C61   H46   S    
C47   C65   S    
Cr1   O9    S    
C9    C81   S    
