data_mof_unit_30614.cif
_audit_creation_date              2012-12-11T15:14:55-0500
_audit_creation_method            fapswitch 2.2
_symmetry_space_group_name_H-M    P1
_symmetry_Int_Tables_number       1
_space_group_crystal_system       triclinic
_cell_length_a                    11.19062
_cell_length_b                    11.081046
_cell_length_c                    18.494822
_cell_angle_alpha                 89.800198
_cell_angle_beta                  90.42122
_cell_angle_gamma                 120.710727
_cell_volume                      1971.73642614

loop_
_atom_site_label
_atom_site_type_symbol
_atom_type_description
_atom_site_fract_x
_atom_site_fract_y
_atom_site_fract_z
_atom_type_partial_charge
C1    C     C_R   0.520448 0.457165 0.644989 0.595540
C2    C     C_R   0.428714 0.538118 0.362500 0.535707
C3    C     C_R   0.477396 0.931700 0.143990 0.565631
C4    C     C_R   0.063172 0.544111 0.354834 0.542270
C5    C     C_3   0.492049 0.102391 0.462863 -0.169197
C6    C     C_3   0.605778 0.592231 0.031577 -0.097416
C7    C     C_3   0.871383 0.403368 0.454489 -0.177258
C8    C     C_3   0.373011 0.959797 0.017729 -0.102921
C9    C     C_3   0.597785 0.539747 0.463923 -0.182043
C10   C     C_3   0.969493 0.379033 0.024715 -0.129798
C11   C     C_3   0.082656 0.463621 0.967922 -0.184660
C12   C     C_R   0.940364 0.482856 0.854282 0.564867
C13   C     C_3   0.585301 0.623888 0.526828 -0.122629
C14   C     C_3   0.413211 0.882783 0.961404 -0.169892
C15   C     C_3   0.944681 0.364874 0.514291 -0.131850
C16   C     C_3   0.547295 0.607423 0.958179 -0.171064
C17   C     C_3   0.386979 0.004378 0.520488 -0.123075
C18   C     C_3   0.614588 0.129275 0.513696 -0.132626
C19   C     C_3   0.577446 0.445515 0.007941 -0.101603
C20   C     C_3   0.869329 0.512953 0.506051 -0.144378
C21   C     C_3   0.482313 0.103277 0.985931 -0.094194
C22   C     C_3   0.519984 0.402586 0.509365 -0.133570
C23   C     C_R   0.543141 0.066256 0.644549 0.575571
C24   C     C_3   0.869303 0.415731 0.985180 -0.084926
C25   C     C_3   0.136943 0.599225 0.014472 -0.137907
C26   C     C_3   0.443014 0.593560 0.496312 -0.071480
C27   C     C_3   0.525862 0.891108 0.014206 -0.133136
C28   C     C_3   0.088094 0.480409 0.486858 -0.076993
C29   C     C_3   0.399908 0.539628 0.991084 -0.163095
C30   C     C_3   0.390070 0.878202 0.487451 -0.101153
C31   C     C_3   0.509728 0.028945 0.569258 0.043200
C32   C     C_3   0.517832 0.461654 0.935704 -0.000666
C33   C     C_3   0.942169 0.474927 0.564335 0.029886
C34   C     C_R   0.541295 0.426297 0.863290 0.535740
C35   C     C_3   0.521629 0.024600 0.930956 0.005745
C36   C     C_3   0.505566 0.487848 0.570781 0.049337
C37   C     C_3   0.984397 0.500884 0.929650 0.008338
C38   C     C_3   0.021867 0.513389 0.069631 0.056181
C39   C     C_3   0.457950 0.510865 0.434790 -0.003885
C40   C     C_3   0.486803 0.969460 0.068866 0.032311
C41   C     C_3   0.013273 0.517185 0.428370 0.001025
C42   C     C_3   0.459134 0.522753 0.063424 0.017316
C43   C     C_3   0.496971 0.977976 0.431260 0.003856
C44   C     C_3   0.512795 0.906900 0.537479 0.243433
C45   C     C_R   0.890130 0.459585 0.637450 0.553721
C46   C     C_3   0.373019 0.394875 0.968452 0.240424
C47   C     C_3   0.082740 0.587848 0.537755 0.273211
C48   C     C_3   0.632879 0.033363 0.983434 0.237002
C49   C     C_3   0.367527 0.457583 0.540342 0.251848
C50   C     C_3   0.036921 0.633275 0.975483 0.232440
C51   C     C_3   0.925849 0.550451 0.030769 0.253439
C52   C     C_3   0.380707 0.375205 0.479028 0.227147
C53   C     C_3   0.593321 0.108875 0.038094 0.232755
C54   C     C_3   0.011638 0.625838 0.479443 0.226411
C55   C     C_3   0.431414 0.379047 0.039559 0.256648
C56   C     C_R   0.545861 0.065834 0.855684 0.546056
C57   C     C_3   0.616987 0.003590 0.481994 0.232142
C58   C     C_R   0.424363 0.543385 0.136761 0.555293
C59   C     C_R   0.480166 0.934172 0.355943 0.546361
C60   C     C_R   0.060653 0.541140 0.145490 0.574524
Cr1   Cr    Cr6+3 0.769930 0.543130 0.750000 1.045992
Cr2   Cr    Cr6+3 0.773200 0.230070 0.750000 1.053571
Cr3   Cr    Cr6+3 0.456870 0.226800 0.750000 1.054814
Cr4   Cr    Cr6+3 0.543130 0.769930 0.250000 1.050501
Cr5   Cr    Cr6+3 0.230070 0.773200 0.250000 1.052078
Cr6   Cr    Cr6+3 0.226800 0.456870 0.250000 1.050438
H1    H     H_    0.692229 0.229160 0.537504 0.098863
H2    H     H_    0.172308 0.464158 0.469378 0.128255
H3    H     H_    0.347034 0.594812 0.975269 0.106245
H4    H     H_    0.301113 0.778618 0.468388 0.117420
H5    H     H_    0.484462 0.178955 0.427251 0.180427
H6    H     H_    0.696937 0.682953 0.057283 0.189762
H7    H     H_    0.786820 0.331547 0.417124 0.155163
H8    H     H_    0.267653 0.932013 0.035708 0.194031
H9    H     H_    0.688295 0.573177 0.427873 0.173169
H10   H     H_    0.945794 0.276914 0.048064 0.176853
H11   H     H_    0.138389 0.425877 0.934850 0.211201
H12   H     H_    0.638646 0.397521 0.021285 0.214689
H13   H     H_    0.675466 0.722832 0.547027 0.159192
H14   H     H_    0.343080 0.793937 0.925666 0.164078
H15   H     H_    0.920639 0.258601 0.531184 0.189266
H16   H     H_    0.596663 0.702369 0.923355 0.171091
H17   H     H_    0.293089 0.004664 0.539144 0.179071
H18   H     H_    0.616883 0.864844 0.605537 0.336896
H19   H     H_    0.254672 0.201853 0.939776 0.341101
H20   H     H_    0.162493 0.745420 0.602461 0.341996
H21   H     H_    0.810552 0.152221 0.939060 0.348208
H22   H     H_    0.206330 0.314097 0.589749 0.339828
H23   H     H_    0.789791 0.534434 0.524922 0.126779
H24   H     H_    0.983723 0.762041 0.939400 0.349059
H25   H     H_    0.920187 0.698510 0.080932 0.340136
H26   H     H_    0.193407 0.254578 0.445537 0.339792
H27   H     H_    0.731710 0.187389 0.113362 0.338759
H28   H     H_    0.127225 0.811064 0.438840 0.346649
H29   H     H_    0.270519 0.216664 0.079032 0.341202
H30   H     H_    0.709127 0.906912 0.451057 0.341860
H31   H     H_    0.460429 0.184452 0.967537 0.120740
H32   H     H_    0.557111 0.331315 0.523601 0.099778
H33   H     H_    0.764893 0.340925 0.963425 0.103180
H34   H     H_    0.240448 0.672985 0.037323 0.098238
H35   H     H_    0.400331 0.659278 0.482766 0.135164
H36   H     H_    0.549346 0.810363 0.031646 0.130127
O1    O     O_R   0.913270 0.574260 0.668550 -0.500107
O2    O     O_R   0.574260 0.913270 0.331450 -0.492556
O3    O     O_R   0.086730 0.660990 0.168550 -0.502767
O4    O     O_R   0.339010 0.425740 0.331450 -0.470733
O5    O     O_R   0.640160 0.530400 0.673300 -0.523068
O6    O     O_R   0.890240 0.359840 0.826700 -0.508648
O7    O     O_R   0.469600 0.109760 0.673300 -0.512519
O8    O     O_R   0.640160 0.530400 0.826700 -0.496023
O9    O     O_R   0.890240 0.359840 0.673300 -0.478285
O10   O     O_R   0.469600 0.109760 0.826700 -0.515091
O11   O     O_R   0.530400 0.640160 0.173300 -0.489636
O12   O     O_R   0.660990 0.086730 0.831450 -0.497947
O13   O     O_R   0.359840 0.890240 0.326700 -0.507046
O14   O     O_R   0.109760 0.469600 0.173300 -0.530137
O15   O     O_R   0.530400 0.640160 0.326700 -0.489983
O16   O     O_R   0.359840 0.890240 0.173300 -0.497154
O17   O     O_R   0.109760 0.469600 0.326700 -0.522581
O18   O     O_3   0.666667 0.333333 0.750000 -0.332192
O19   O     O_3   0.333333 0.666667 0.250000 -0.332598
O20   O     O_3   0.520770 0.814454 0.585970 -0.663124
O21   O     O_3   0.248805 0.288092 0.938032 -0.684701
O22   O     O_3   0.188553 0.677276 0.585450 -0.620737
O23   O     O_R   0.425740 0.339010 0.668550 -0.495406
O24   O     O_3   0.766998 0.063371 0.966560 -0.685213
O25   O     O_3   0.251618 0.417244 0.584167 -0.642820
O26   O     O_3   0.072857 0.765486 0.948349 -0.705191
O27   O     O_3   0.852764 0.598596 0.069850 -0.705705
O28   O     O_3   0.275637 0.244658 0.453532 -0.676975
O29   O     O_3   0.679220 0.220171 0.084088 -0.685743
O30   O     O_3   0.036075 0.760067 0.462912 -0.677556
O31   O     O_3   0.372433 0.256587 0.081506 -0.654332
O32   O     O_3   0.738231 0.005790 0.461774 -0.684371
O33   O     O_R   0.913270 0.574260 0.831450 -0.494266
O34   O     O_R   0.660990 0.086730 0.668550 -0.520702
O35   O     O_R   0.425740 0.339010 0.831450 -0.460889
O36   O     O_R   0.574260 0.913270 0.168550 -0.528053
O37   O     O_R   0.086730 0.660990 0.331450 -0.497027
O38   O     O_R   0.339010 0.425740 0.168550 -0.457744

loop_
_geom_bond_atom_site_label_1
_geom_bond_atom_site_label_2
_ccdc_geom_bond_type
C27   C48   S    
C13   H13   S    
C28   C47   S    
C13   C26   S    
C22   H32   S    
C29   C42   S    
C24   H33   S    
C33   C45   S    
C6    C42   S    
C47   O22   S    
C60   O3    A    
C9    C39   S    
C42   C58   S    
C51   O27   S    
C7    H7    S    
Cr4   O36   S    
C6    H6    S    
C6    C19   S    
Cr6   O14   S    
C23   O34   A    
C59   O2    A    
Cr1   O1    S    
C1    O23   A    
Cr2   O12   S    
H22   O25   S    
C26   H35   S    
C42   C55   S    
C18   C57   S    
C9    C22   S    
Cr2   O6    S    
C4    C41   S    
Cr1   O8    S    
H18   O20   S    
Cr4   O19   S    
C28   C41   S    
H29   O31   S    
Cr2   O34   S    
Cr3   O10   S    
C11   C37   S    
C9    C13   S    
C25   C50   S    
C11   H11   S    
C10   H10   S    
C2    C39   S    
Cr2   O9    S    
C35   C48   S    
C12   O33   A    
C46   C55   S    
C58   O11   A    
Cr5   O16   S    
C4    O17   A    
C53   O29   S    
C14   H14   S    
C14   C27   S    
C45   O1    A    
C44   C57   S    
Cr2   O18   S    
C8    C40   S    
C43   C59   S    
C46   O21   S    
C24   C51   S    
C7    C15   S    
C39   C52   S    
C5    C43   S    
Cr1   O18   S    
C17   C30   S    
Cr3   O35   S    
C30   C44   S    
Cr6   O4    S    
C23   O7    A    
C19   C32   S    
Cr5   O3    S    
C30   H4    S    
C2    O15   A    
C8    C21   S    
C29   H3    S    
C48   C53   S    
C49   O25   S    
C44   O20   S    
C31   C44   S    
C13   C36   S    
C15   H15   S    
C26   C49   S    
C14   C35   S    
C12   O6    A    
H30   O32   S    
C38   C51   S    
C10   C24   S    
C18   H1    S    
C55   O31   S    
C48   O24   S    
C2    O4    A    
H28   O30   S    
Cr4   O15   S    
C17   H17   S    
C32   C34   S    
Cr5   O13   S    
Cr3   O7    S    
C19   H12   S    
H26   O28   S    
C3    O16   A    
C25   C38   S    
C21   H31   S    
C25   H34   S    
C27   C40   S    
C49   C52   S    
C8    H8    S    
C50   C51   S    
Cr6   O19   S    
Cr6   O38   S    
C3    O36   A    
C7    C20   S    
Cr3   O23   S    
C1    O5    A    
C47   C54   S    
H25   O27   S    
C30   C43   S    
C20   C54   S    
C3    C40   S    
C40   C53   S    
Cr5   O19   S    
Cr6   O17   S    
H20   O22   S    
C33   C47   S    
C38   C60   S    
C57   O32   S    
C60   O14   A    
C50   O26   S    
C20   C33   S    
C54   O30   S    
Cr1   O33   S    
C22   C52   S    
C58   O38   A    
C24   C37   S    
Cr4   O2    S    
C8    C14   S    
Cr4   O11   S    
C27   H36   S    
C28   H2    S    
C35   C56   S    
C32   C46   S    
C45   O9    A    
C5    C18   S    
C19   C55   S    
C16   C32   S    
C22   C36   S    
C20   H23   S    
C34   O35   A    
H24   O26   S    
C29   C46   S    
C10   C38   S    
C52   O28   S    
C21   C35   S    
C16   C29   S    
C5    H5    S    
C4    O37   A    
C21   C53   S    
Cr3   O18   S    
C15   C28   S    
C17   C31   S    
C37   C50   S    
C15   C33   S    
H19   O21   S    
C7    C41   S    
C26   C39   S    
C41   C54   S    
C10   C11   S    
C43   C57   S    
C6    C16   S    
Cr5   O37   S    
C56   O12   A    
C5    C17   S    
C59   O13   A    
C16   H16   S    
C12   C37   S    
Cr1   O5    S    
C11   C25   S    
C18   C31   S    
C9    H9    S    
C34   O8    A    
H27   O29   S    
C56   O10   A    
H21   O24   S    
C36   C49   S    
C1    C36   S    
C23   C31   S    
