data_mof_unit_31574.cif
_audit_creation_date              2013-03-05T15:54:50-0500
_audit_creation_method            fapswitch 2.2
_symmetry_space_group_name_H-M    P1
_symmetry_Int_Tables_number       1
_space_group_crystal_system       triclinic
_cell_length_a                    13.529594
_cell_length_b                    14.053176
_cell_length_c                    30.071583
_cell_angle_alpha                 97.983164
_cell_angle_beta                  89.788475
_cell_angle_gamma                 118.935273
_cell_volume                      4942.06189938

loop_
_atom_site_label
_atom_site_type_symbol
_atom_site_description
_atom_site_fract_x
_atom_site_fract_y
_atom_site_fract_z
_atom_type_partial_charge
O1    O     O_R   0.494060 0.188820 0.559230 -0.513020
O2    O     O_R   0.678470 0.153390 0.554100 -0.515297
C1    C     C_R   0.722503 0.099917 0.568422 0.813170
O3    O     O_R   0.697870 0.003940 0.549410 -0.543818
O4    O     O_R   0.480980 0.827230 0.535590 -0.526182
C2    C     C_R   0.384695 0.792796 0.552651 0.792739
O5    O     O_R   0.309390 0.811640 0.537920 -0.557067
O6    O     O_R   0.341810 0.023400 0.546180 -0.550349
C3    C     C_R   0.396580 0.119241 0.568970 0.822470
O7    O     O_R   0.493150 0.185870 0.461540 -0.546906
O8    O     O_R   0.677630 0.150660 0.463530 -0.540519
C4    C     C_R   0.719405 0.094772 0.442460 0.763777
O9    O     O_R   0.696960 0.000990 0.451710 -0.542847
O10   O     O_R   0.480140 0.824500 0.445020 -0.523322
C5    C     C_R   0.382449 0.784602 0.424862 0.803299
O11   O     O_R   0.308480 0.808690 0.440220 -0.546763
O12   O     O_R   0.340970 0.020670 0.455610 -0.540653
C6    C     C_R   0.396569 0.114224 0.442780 0.767195
Cr1   Cr    Cr6+3 0.583400 0.162540 0.509180 0.995695
Cr2   Cr    Cr6+3 0.584070 0.916690 0.495550 0.984723
Cr3   Cr    Cr6+3 0.332550 0.920810 0.495240 0.950977
O13   O     O_3   0.500010 0.000010 0.499990 -0.342766
H1    H     H_    0.225137 0.690493 0.811663 0.171186
H2    H     H_    0.219446 0.705030 0.688180 0.182395
C7    C     C_R   0.362326 0.737333 0.592764 -0.170373
C8    C     C_R   0.420097 0.680071 0.600724 -0.224148
C9    C     C_R   0.407565 0.633125 0.640177 0.412636
C10   C     C_R   0.334685 0.643942 0.671653 -0.050345
C11   C     C_R   0.272875 0.695482 0.662891 -0.149795
C12   C     C_R   0.287626 0.745219 0.624652 0.006935
C13   C     C_R   0.262595 0.650108 0.827945 -0.064388
C14   C     C_R   0.250784 0.641699 0.873951 -0.039504
C15   C     C_R   0.363949 0.548580 0.868041 -0.154852
C16   C     C_R   0.375383 0.558476 0.822826 -0.143055
C17   C     C_R   0.322260 0.606325 0.802569 0.061768
C18   C     C_1   0.329501 0.611748 0.755592 0.014440
C19   C     C_1   0.333463 0.621267 0.716575 0.104057
C20   C     C_R   0.298200 0.585695 0.893877 -0.133303
H3    H     H_    0.476271 0.673244 0.576297 0.179577
H4    H     H_    0.422988 0.525915 0.803371 0.138391
H5    H     H_    0.401632 0.505459 0.881952 0.160303
C21   C     C_3   0.291731 0.049847 0.715332 -0.321280
C22   C     C_3   0.223934 0.186621 0.711079 -0.337411
C23   C     C_3   0.213079 0.195700 0.762917 -0.343579
H6    H     H_    0.195949 0.996438 0.774165 0.159293
H7    H     H_    0.210541 0.982277 0.697995 0.178864
H8    H     H_    0.242295 0.265558 0.700004 0.173995
H9    H     H_    0.142225 0.121165 0.693289 0.147069
H10   H     H_    0.126236 0.134305 0.769972 0.146593
H11   H     H_    0.225730 0.278931 0.776534 0.147601
C24   C     C_1   0.291203 0.202783 0.875564 -0.123040
C25   C     C_3   0.319960 0.159616 0.698877 0.239603
C26   C     C_3   0.281745 0.059630 0.766869 -0.300882
C27   C     C_3   0.302165 0.175913 0.786494 0.249763
C28   C     C_3   0.420931 0.263125 0.775616 -0.314846
C29   C     C_3   0.431678 0.252320 0.724276 -0.288017
C30   C     C_1   0.295215 0.186689 0.835461 -0.066581
C31   C     C_1   0.335887 0.150048 0.650442 -0.031060
C32   C     C_1   0.359472 0.138882 0.612157 -0.100578
H12   H     H_    0.500731 0.233241 0.716448 0.186880
H13   H     H_    0.454819 0.332140 0.712914 0.199260
H14   H     H_    0.487894 0.253880 0.792537 0.223135
H15   H     H_    0.358414 0.027131 0.706738 0.215854
H16   H     H_    0.343900 0.042439 0.783019 0.210668
H17   H     H_    0.435271 0.347215 0.788729 0.148132
C33   C     C_3   0.730642 0.191657 0.725531 0.178809
C34   C     C_3   0.950215 0.272149 0.719204 -0.228220
C35   C     C_3   0.967340 0.276944 0.771042 -0.234779
H18   H     H_    0.012714 0.250836 0.703051 0.097047
H19   H     H_    0.999174 0.360221 0.790604 0.237387
H20   H     H_    0.036920 0.258520 0.776997 0.110972
C36   C     C_1   0.903892 0.206331 0.877850 -0.109825
C37   C     C_3   0.829020 0.175886 0.701514 0.070540
C38   C     C_3   0.752950 0.206304 0.779943 0.123160
C39   C     C_3   0.857899 0.189361 0.789746 0.058861
C40   C     C_3   0.835685 0.075139 0.765128 -0.402516
C41   C     C_3   0.827066 0.070433 0.713593 -0.301252
C42   C     C_1   0.879921 0.197215 0.838467 -0.031947
C43   C     C_1   0.809348 0.158638 0.652035 0.012920
C44   C     C_1   0.777495 0.136225 0.612772 -0.068115
H21   H     H_    0.751858 0.993402 0.697722 0.226536
H22   H     H_    0.899942 0.063510 0.699416 0.141322
H23   H     H_    0.757426 0.006903 0.775309 0.179725
H24   H     H_    0.906044 0.060178 0.774408 0.169056
C45   C     C_3   0.306652 0.761620 0.270795 -0.477318
C46   C     C_3   0.272508 0.569841 0.270379 -0.305356
C47   C     C_3   0.264704 0.551020 0.218311 -0.363634
H25   H     H_    0.206958 0.704595 0.206682 0.202462
H26   H     H_    0.220956 0.737582 0.282810 0.190202
H27   H     H_    0.298998 0.514805 0.283255 0.198457
H28   H     H_    0.186629 0.545899 0.282140 0.166401
H29   H     H_    0.175006 0.517301 0.205632 0.201508
H30   H     H_    0.287982 0.486859 0.205741 0.141169
C48   C     C_1   0.309257 0.608802 0.110673 -0.113274
C49   C     C_3   0.354332 0.692498 0.289060 0.140170
C50   C     C_3   0.298220 0.742988 0.218342 -0.123251
C51   C     C_3   0.341216 0.660560 0.200112 0.068325
C52   C     C_3   0.466759 0.706665 0.218567 -0.263422
C53   C     C_3   0.474954 0.730953 0.271447 0.236962
C54   C     C_1   0.328243 0.637884 0.150632 -0.019630
C55   C     C_1   0.360170 0.712097 0.338429 0.000741
C56   C     C_1   0.367741 0.738058 0.378546 -0.125981
H31   H     H_    0.523034 0.822424 0.280797 0.082520
H32   H     H_    0.518921 0.786637 0.206510 0.159820
H33   H     H_    0.360965 0.850356 0.284843 0.145396
H34   H     H_    0.156912 0.052366 0.081508 0.143606
H35   H     H_    0.172176 0.015794 0.157646 0.141540
H36   H     H_    0.201516 0.974580 0.303067 0.134051
H37   H     H_    0.226374 0.960736 0.381958 0.147901
C57   C     C_R   0.359641 0.130638 0.399923 -0.049960
C58   C     C_R   0.422256 0.231548 0.384127 -0.152807
C59   C     C_R   0.407726 0.238739 0.339116 -0.114929
C60   C     C_R   0.330470 0.145442 0.309710 0.110172
C61   C     C_R   0.261707 0.047009 0.325778 -0.134500
C62   C     C_R   0.275613 0.039696 0.370840 -0.164493
C63   C     C_R   0.240218 0.088105 0.146682 -0.082557
C64   C     C_R   0.231947 0.109133 0.103315 -0.163598
C65   C     C_R   0.411782 0.278369 0.118920 -0.156839
C66   C     C_R   0.419724 0.257155 0.162280 -0.128765
C67   C     C_R   0.332017 0.164150 0.176565 0.121318
C68   C     C_1   0.330196 0.153733 0.223096 -0.007882
C69   C     C_1   0.328767 0.148783 0.262553 -0.028301
C70   C     C_R   0.315290 0.206946 0.089746 -0.058703
H38   H     H_    0.487351 0.302911 0.405763 0.149195
H39   H     H_    0.491093 0.316313 0.185406 0.152615
H40   H     H_    0.477328 0.354273 0.109436 0.161202
H41   H     H_    0.460737 0.315418 0.326771 0.152104
H42   H     H_    0.941447 0.387795 0.110551 0.188758
H43   H     H_    0.827156 0.326881 0.336101 0.151592
H44   H     H_    0.784091 0.290080 0.412972 0.143275
C71   C     C_R   0.776135 0.130326 0.401303 -0.062581
C72   C     C_R   0.791892 0.055824 0.369826 -0.139856
C73   C     C_R   0.815893 0.077126 0.326035 -0.109686
C74   C     C_R   0.825512 0.173322 0.313624 0.078588
C75   C     C_R   0.819432 0.252079 0.345602 -0.118724
C76   C     C_R   0.795258 0.230953 0.389391 -0.161189
C77   C     C_R   0.872901 0.298781 0.165672 0.366449
C78   C     C_R   0.904114 0.307911 0.121375 -0.234233
C79   C     C_R   0.843359 0.113114 0.105731 -0.241357
C80   C     C_R   0.810862 0.101005 0.149658 -0.040554
C81   C     C_R   0.832111 0.195882 0.180502 -0.028841
C82   C     C_1   0.829776 0.191424 0.227874 0.126841
C83   C     C_1   0.829543 0.185313 0.267235 0.018589
C84   C     C_R   0.894865 0.216809 0.092062 -0.101050
H45   H     H_    0.777543 0.977638 0.377963 0.179013
H46   H     H_    0.833274 0.041970 0.082657 0.141554
H47   H     H_    0.820642 0.015871 0.301272 0.167255
O14   O     O_R   0.969690 0.151000 0.934080 -0.545625
O15   O     O_R   0.187530 0.180840 0.938210 -0.532172
C85   C     C_R   0.282813 0.233379 0.922091 0.809691
O16   O     O_R   0.358160 0.327300 0.941250 -0.541414
O17   O     O_R   0.323950 0.507710 0.953980 -0.534863
C86   C     C_R   0.266122 0.545906 0.937542 0.748037
O18   O     O_R   0.170530 0.527770 0.952070 -0.545050
O19   O     O_R   0.987720 0.318450 0.945940 -0.521907
C87   C     C_R   0.947183 0.222549 0.923079 0.804416
O20   O     O_R   0.976400 0.159230 0.032040 -0.548098
O21   O     O_R   0.193740 0.188470 0.029020 -0.538818
C88   C     C_R   0.292404 0.242990 0.049216 0.778309
O22   O     O_R   0.364860 0.335530 0.039220 -0.543306
O23   O     O_R   0.330170 0.515340 0.044800 -0.532689
C89   C     C_R   0.275085 0.558714 0.064828 0.798887
O24   O     O_R   0.177230 0.536000 0.050040 -0.537057
O25   O     O_R   0.993930 0.326080 0.036750 -0.537214
C90   C     C_R   0.953522 0.232899 0.050199 0.802274
Cr4   Cr    Cr6+3 0.086700 0.177000 0.983690 0.956842
Cr5   Cr    Cr6+3 0.336880 0.419130 0.994740 0.964023
Cr6   Cr    Cr6+3 0.084850 0.422220 0.995960 0.980168
O26   O     O_3   0.169480 0.339450 0.991460 -0.343204
C91   C     C_2   0.191580 0.693512 0.900415 0.441059
H48   H     H_    0.199511 0.706537 0.936900 0.055164
O27   O     O_2   0.134556 0.724289 0.881727 -0.502630
N1    N     N_R   0.777498 0.317039 0.803823 0.055204
O28   O     O_R   0.724231 0.326453 0.838940 -0.356918
O29   O     O_R   0.856352 0.407610 0.792053 -0.356141
C92   C     C_2   0.725835 0.291942 0.713008 0.499852
H49   H     H_    0.691423 0.333757 0.735561 0.094462
O30   O     O_2   0.748411 0.320219 0.676026 -0.518390
C93   C     C_2   0.980452 0.381487 0.704662 0.478691
H50   H     H_    0.967590 0.384246 0.669378 0.076545
O31   O     O_2   0.023603 0.467684 0.731060 -0.495427
N2    N     N_R   0.619491 0.093676 0.707848 0.059136
O32   O     O_R   0.561244 0.097380 0.674342 -0.405196
O33   O     O_R   0.587221 0.997388 0.719272 -0.402217
C94   C     C_2   0.649420 0.121320 0.800634 0.558501
H51   H     H_    0.655309 0.064280 0.819917 0.013317
O34   O     O_2   0.558302 0.118674 0.797109 -0.532406
C95   C     C_2   0.232920 0.814148 0.622195 0.409788
H52   H     H_    0.274768 0.889550 0.607946 0.080862
O35   O     O_2   0.141042 0.788597 0.637370 -0.522401
N3    N     N_R   0.538947 0.687975 0.293366 0.098894
O36   O     O_R   0.635204 0.756468 0.315872 -0.368140
O37   O     O_R   0.500245 0.582827 0.291847 -0.399236
C96   C     C_2   0.359891 0.851585 0.200842 0.383451
H53   H     H_    0.448672 0.907806 0.210961 0.075985
O38   O     O_2   0.309885 0.877904 0.175684 -0.517821
C97   C     C_2   0.515694 0.633651 0.199851 0.534493
H54   H     H_    0.477997 0.549030 0.205641 0.074509
O39   O     O_2   0.598397 0.669404 0.177719 -0.510399
N4    N     N_R   0.888239 0.395302 0.195576 0.079017
O40   O     O_R   0.822511 0.386608 0.228264 -0.374237
O41   O     O_R   0.960179 0.493174 0.187475 -0.388534
C98   C     C_2   0.760271 0.988549 0.161949 0.390962
H55   H     H_    0.759333 0.922012 0.138449 0.079502
O42   O     O_2   0.716870 0.967671 0.197498 -0.536759
N5    N     N_R   0.470457 0.577672 0.647983 0.090410
O43   O     O_R   0.436053 0.504755 0.675002 -0.399133
O44   O     O_R   0.558081 0.593641 0.625445 -0.357096

loop_
_geom_bond_atom_site_label_1
_geom_bond_atom_site_label_2
_geom_bond_distance
_ccdc_geom_bond_type
C23   H10   1.112645 S    
C53   H31   1.116443 S    
C28   C29   1.543470 S    
H25   C50   1.115634 S    
C79   H46   1.084292 S    
C55   C56   1.200613 T    
C36   C87   1.426714 S    
C4    C71   1.471112 S    
C20   C86   1.479916 S    
C21   H15   1.112077 S    
O14   Cr4   2.042458 S    
C96   O38   1.220856 D    
C58   C59   1.392891 A    
C22   C23   1.558533 S    
O18   Cr6   2.038290 S    
C40   H24   1.113635 S    
C61   C62   1.393372 A    
C75   C76   1.393029 A    
Cr5   O26   1.977397 S    
O4    Cr2   1.920157 S    
N1    O28   1.303797 A    
C35   C39   1.564097 S    
C98   O42   1.220434 D    
O8    Cr1   1.914964 S    
C8    C9    1.406863 A    
O11   Cr3   2.027198 S    
C70   C88   1.471044 S    
C16   H4    1.083769 S    
C72   H45   1.082955 S    
C41   H22   1.114263 S    
Cr3   O13   1.977513 S    
C18   C19   1.197333 T    
C60   C61   1.396259 A    
C77   C81   1.414070 A    
C46   H28   1.113577 S    
C21   C26   1.547995 S    
O4    C2    1.283927 A    
C26   H16   1.110674 S    
N5    O44   1.301562 A    
C8    H3    1.083183 S    
C94   O34   1.219800 D    
C2    C7    1.477954 S    
C91   H48   1.083899 S    
C5    O11   1.269023 A    
C33   C38   1.631181 S    
C28   H14   1.110070 S    
C63   C64   1.393100 A    
C95   O35   1.221384 D    
C16   C17   1.387257 A    
C21   H7    1.112439 S    
O22   Cr5   2.045312 S    
H36   C61   1.083791 S    
C97   O39   1.220987 D    
H42   C78   1.083023 S    
C65   C66   1.393047 A    
C59   H41   1.083832 S    
C36   C42   1.201952 T    
C74   C83   1.425912 S    
H43   C75   1.083737 S    
C60   C69   1.426011 S    
C17   C18   1.425749 S    
C24   C85   1.426305 S    
N4    O40   1.301443 A    
C92   H49   1.083397 S    
C34   C37   1.569022 S    
C41   H21   1.108703 S    
C22   H9    1.112724 S    
O7    Cr1   2.044888 S    
O9    Cr2   2.035279 S    
C38   C94   1.535171 S    
C50   C96   1.513243 S    
C96   H53   1.085011 S    
C33   N2    1.496353 S    
H6    C26   1.113090 S    
C47   H29   1.113310 S    
C78   C84   1.401463 A    
C33   C92   1.539015 S    
C97   H54   1.083783 S    
C34   C35   1.564163 S    
C45   H33   1.114792 S    
C1    C44   1.429525 S    
C40   H23   1.109523 S    
C59   C60   1.397202 A    
C28   H17   1.113056 S    
C51   C52   1.566840 S    
N1    O29   1.300723 A    
O1    Cr1   2.031462 S    
C38   C39   1.584135 S    
C25   C29   1.546599 S    
N3    O36   1.301214 A    
O10   Cr2   1.915930 S    
O25   Cr6   1.919416 S    
Cr1   O13   1.974747 S    
O1    C3    1.268908 A    
C40   C41   1.544376 S    
C38   N1    1.496311 S    
C71   C76   1.407477 A    
C46   H27   1.108611 S    
C80   C98   1.488733 S    
O20   C90   1.271861 A    
C45   H26   1.113896 S    
C46   C47   1.546573 S    
O6    C3    1.270609 A    
C47   C51   1.558411 S    
C7    C8    1.406879 A    
O5    Cr3   2.044008 S    
C33   C37   1.605061 S    
O12   Cr3   1.926508 S    
C57   C58   1.405697 A    
C95   H52   1.082031 S    
C34   H18   1.114582 S    
H1    C13   1.084427 S    
C39   C40   1.555559 S    
N3    O37   1.300958 A    
C11   C12   1.391840 A    
O25   C90   1.276698 A    
C23   C27   1.555051 S    
C79   C84   1.399915 A    
C88   O22   1.270978 A    
O10   C5    1.274048 A    
C77   N4    1.442852 S    
C48   C54   1.200495 T    
O19   Cr6   1.914953 S    
O8    C4    1.275327 A    
C50   C51   1.566552 S    
O12   C6    1.274759 A    
C37   C43   1.477758 S    
C80   C81   1.417134 A    
C66   C67   1.397274 A    
C68   C69   1.197726 T    
O23   Cr5   1.911776 S    
C25   C31   1.468752 S    
C73   H47   1.083885 S    
C66   H39   1.083856 S    
N4    O41   1.301690 A    
Cr6   O26   1.981474 S    
Cr2   O13   1.981499 S    
C14   C20   1.418587 A    
H34   C64   1.083048 S    
O21   C88   1.274704 A    
C13   C17   1.399341 A    
C43   C44   1.203373 T    
C1    O3    1.268626 A    
C9    C10   1.410485 A    
O17   Cr5   1.928396 S    
C67   C68   1.425875 S    
O21   Cr4   1.925907 S    
C89   O24   1.268250 A    
C23   H11   1.113025 S    
C7    C12   1.423008 A    
C14   C91   1.484524 S    
C27   C28   1.546918 S    
C10   C11   1.390735 A    
C51   C54   1.470535 S    
C52   C97   1.517280 S    
C58   H38   1.083085 S    
N5    O43   1.301445 A    
C13   C14   1.406792 A    
H44   C76   1.083089 S    
O15   Cr4   1.915694 S    
C6    C57   1.470580 S    
O6    Cr3   1.911540 S    
O20   Cr4   2.031650 S    
C79   C80   1.397474 A    
C26   C27   1.546457 S    
C2    O5    1.265466 A    
C65   H40   1.083002 S    
C77   C78   1.400058 A    
C74   C75   1.395850 A    
C49   C55   1.467083 S    
C15   C20   1.413599 A    
C85   O16   1.266644 A    
C84   C90   1.470968 S    
C9    N5    1.442347 S    
C15   H5    1.083095 S    
O2    C1    1.276755 A    
C31   C32   1.203116 T    
O24   Cr6   2.030399 S    
O23   C89   1.274377 A    
O15   C85   1.271118 A    
C53   N3    1.472970 S    
C45   C49   1.555197 S    
C94   H51   1.084621 S    
C73   C74   1.397597 A    
C91   O27   1.221377 D    
C10   C19   1.428625 S    
O7    C6    1.270458 A    
C35   H20   1.111444 S    
O16   Cr5   2.028590 S    
C47   H30   1.110993 S    
C92   O30   1.220954 D    
C45   C50   1.557966 S    
C15   C16   1.386429 A    
C72   C73   1.393348 A    
C49   C53   1.567037 S    
C65   C70   1.406187 A    
C5    C56   1.424898 S    
C64   C70   1.407125 A    
C71   C72   1.406007 A    
C22   C25   1.549669 S    
C39   C42   1.474433 S    
N2    O33   1.302308 A    
H35   C63   1.083718 S    
C46   C49   1.549673 S    
H37   C62   1.083042 S    
C93   H50   1.084868 S    
O3    Cr2   2.034040 S    
C63   C67   1.396174 A    
C24   C30   1.201680 T    
H2    C11   1.086425 S    
C29   H12   1.106062 S    
C4    O9    1.272989 A    
Cr4   O26   1.974947 S    
C35   H19   1.106380 S    
C52   C53   1.572079 S    
C21   C25   1.552694 S    
O19   C87   1.272765 A    
C82   C83   1.198472 T    
C37   C41   1.562156 S    
C29   H13   1.113045 S    
C34   C93   1.515462 S    
O17   C86   1.275749 A    
O14   C87   1.265936 A    
C98   H55   1.085783 S    
C3    C32   1.429895 S    
C86   O18   1.279169 A    
C81   C82   1.434169 S    
C22   H8    1.112926 S    
C57   C62   1.407700 A    
C52   H32   1.111919 S    
C48   C89   1.424800 S    
N2    O32   1.303494 A    
O2    Cr1   1.927905 S    
C12   C95   1.485145 S    
C93   O31   1.220809 D    
C27   C30   1.466584 S    
