data_mof_unit_39263.cif
_audit_creation_date              2012-12-11T17:04:47-0500
_audit_creation_method            fapswitch 2.2
_symmetry_space_group_name_H-M    P1
_symmetry_Int_Tables_number       1
_space_group_crystal_system       triclinic
_cell_length_a                    17.385249
_cell_length_b                    24.209831
_cell_length_c                    14.940898
_cell_angle_alpha                 89.96647
_cell_angle_beta                  125.421666
_cell_angle_gamma                 89.807556
_cell_volume                      5124.52687422

loop_
_atom_site_label
_atom_site_type_symbol
_atom_type_description
_atom_site_fract_x
_atom_site_fract_y
_atom_site_fract_z
_atom_type_partial_charge
C1    C     C_R   0.807785 0.622814 0.907773 -0.192219
C2    C     C_R   0.032748 0.500774 0.705856 0.071205
C3    C     C_R   0.757782 0.045002 0.304363 0.462276
C4    C     C_R   0.850547 0.349111 0.910692 -0.117298
C5    C     C_R   0.149990 0.348991 0.090421 -0.116109
C6    C     C_R   0.350547 0.849111 0.910692 -0.117299
C7    C     C_R   0.649990 0.848991 0.090421 -0.116108
C8    C     C_R   0.901280 0.625750 0.091240 -0.116791
C9    C     C_R   0.095397 0.633026 0.911783 -0.120065
C10   C     C_R   0.401280 0.125750 0.091240 -0.116791
C11   C     C_R   0.595397 0.133026 0.911783 -0.120066
C12   C     C_R   0.810919 0.637903 0.999078 0.083850
C13   C     C_R   0.568142 0.001261 0.368529 0.084198
C14   C     C_R   0.185942 0.643483 0.003900 0.085045
C15   C     C_R   0.310919 0.137903 0.999078 0.083850
C16   C     C_R   0.685942 0.143483 0.003900 0.085046
C17   C     C_R   0.532747 0.000774 0.705856 0.071205
C18   C     C_R   0.690106 0.499209 0.641004 -0.006123
C19   C     C_R   0.307557 0.498726 0.361668 -0.005319
C20   C     C_R   0.190107 0.999210 0.641003 -0.006119
C21   C     C_R   0.807556 0.998726 0.361669 -0.005322
C22   C     C_3   0.528558 0.497993 0.606807 -0.192332
C23   C     C_3   0.467922 0.452699 0.521926 -0.157032
C24   C     C_3   0.028559 0.997983 0.606808 -0.192337
C25   C     C_R   0.190832 0.625018 0.094034 -0.192137
C26   C     C_3   0.967924 0.952694 0.521913 -0.157035
C27   C     C_3   0.466595 0.543931 0.523743 -0.109629
C28   C     C_3   0.531029 0.453863 0.480145 -0.156212
C29   C     C_3   0.966594 0.043926 0.523758 -0.109636
C30   C     C_3   0.031028 0.953868 0.480130 -0.156211
C31   C     C_3   0.407762 0.498657 0.440438 0.200202
C32   C     C_3   0.589750 0.499191 0.563305 0.200073
C33   C     C_3   0.907762 0.998656 0.440439 0.200206
C34   C     C_3   0.089749 0.999191 0.563304 0.200066
C35   C     C_3   0.469039 0.499784 0.397033 -0.189984
C36   C     C_R   0.307785 0.122814 0.907773 -0.192218
C37   C     C_3   0.529452 0.545091 0.481705 -0.107645
C38   C     C_3   0.969036 0.999794 0.397033 -0.189969
C39   C     C_3   0.029450 0.045096 0.481718 -0.107639
C40   C     C_R   0.890154 0.235163 0.106801 0.159004
C41   C     C_R   0.108304 0.232657 0.897532 0.164834
C42   C     C_R   0.390154 0.735163 0.106801 0.159003
C43   C     C_R   0.608304 0.732657 0.897532 0.164835
C44   C     C_R   0.862740 0.259505 0.007330 0.035786
C45   C     C_R   0.138181 0.258295 0.996585 0.033970
C46   C     C_R   0.362740 0.759504 0.007329 0.035786
C47   C     C_R   0.690832 0.125018 0.094034 -0.192137
C48   C     C_R   0.638181 0.758295 0.996585 0.033970
C49   C     C_R   0.803122 0.229309 0.910008 -0.200589
C50   C     C_R   0.198964 0.228378 0.094556 -0.200173
C51   C     C_R   0.303121 0.729309 0.910008 -0.200588
C52   C     C_R   0.698964 0.728378 0.094556 -0.200173
C53   C     C_R   0.944499 0.349361 0.093764 -0.143755
C54   C     C_R   0.055383 0.348622 0.907767 -0.157681
C55   C     C_R   0.444499 0.849361 0.093764 -0.143755
C56   C     C_R   0.555383 0.848622 0.907767 -0.157681
C57   C     C_R   0.252499 0.684660 0.910228 -0.198678
C58   C     C_R   0.881669 0.317644 0.003489 0.067514
C59   C     C_R   0.747080 0.681958 0.094188 -0.196871
C60   C     C_R   0.752499 0.184660 0.910228 -0.198677
C61   C     C_R   0.247080 0.181958 0.094188 -0.196871
C62   C     C_R   0.262068 0.670844 0.007638 0.035761
C63   C     C_R   0.734827 0.666023 0.996082 0.031519
C64   C     C_R   0.762068 0.170844 0.007638 0.035761
C65   C     C_R   0.234827 0.166023 0.996082 0.031519
C66   C     C_R   0.340263 0.691196 0.106982 0.147394
C67   C     C_R   0.656293 0.687293 0.897104 0.148079
C68   C     C_R   0.840263 0.191196 0.106982 0.147395
C69   C     C_R   0.118944 0.316938 0.998646 0.071232
C70   C     C_R   0.156293 0.187293 0.897104 0.148079
C71   C     C_3   0.349839 0.711562 0.207684 -0.492059
C72   C     C_3   0.644154 0.706461 0.794056 -0.489607
C73   C     C_3   0.849839 0.211562 0.207684 -0.492060
C74   C     C_3   0.144154 0.206461 0.794056 -0.489607
C75   C     C_3   0.904421 0.259657 0.207466 -0.524116
C76   C     C_3   0.091215 0.255685 0.794464 -0.532265
C77   C     C_3   0.404421 0.759657 0.207466 -0.524116
C78   C     C_3   0.591216 0.755685 0.794464 -0.532266
C79   C     C_R   0.093328 0.552438 0.614934 0.158912
C80   C     C_R   0.381669 0.817644 0.003489 0.067514
C81   C     C_R   0.106273 0.552662 0.532378 0.177568
C82   C     C_R   0.593328 0.052438 0.614934 0.158912
C83   C     C_R   0.606273 0.052662 0.532378 0.177567
C84   C     C_R   0.080661 0.502413 0.652031 0.033920
C85   C     C_R   0.104989 0.502811 0.484133 0.033005
C86   C     C_R   0.580661 0.002413 0.652030 0.033920
C87   C     C_R   0.604990 0.002811 0.484133 0.033005
C88   C     C_R   0.107606 0.453323 0.626615 -0.197846
C89   C     C_R   0.119906 0.453515 0.542159 -0.205890
C90   C     C_R   0.607606 0.953323 0.626614 -0.197846
C91   C     C_R   0.618944 0.816938 0.998646 0.071232
C92   C     C_R   0.619906 0.953515 0.542159 -0.205889
C93   C     C_3   0.049849 0.604744 0.483116 -0.522542
C94   C     C_3   0.035213 0.604291 0.572786 -0.530223
C95   C     C_3   0.549849 0.104744 0.483116 -0.522541
C96   C     C_3   0.535213 0.104291 0.572786 -0.530222
C97   C     C_R   0.052981 0.546669 0.304715 -0.164123
C98   C     C_R   0.003804 0.546450 0.734576 -0.134083
C99   C     C_R   0.552981 0.046669 0.304715 -0.164124
C100  C     C_R   0.503803 0.046450 0.734575 -0.134084
C101  C     C_R   0.739710 0.453814 0.702842 -0.251468
C102  C     C_R   0.068142 0.501261 0.368529 0.084198
C103  C     C_R   0.259214 0.453589 0.298835 -0.254635
C104  C     C_R   0.239710 0.953815 0.702841 -0.251472
C105  C     C_R   0.759213 0.953588 0.298836 -0.254634
C106  C     C_R   0.049929 0.455007 0.304878 -0.117438
C107  C     C_R   0.009866 0.454307 0.740433 -0.122834
C108  C     C_R   0.549929 0.955007 0.304878 -0.117437
C109  C     C_R   0.509866 0.954307 0.740433 -0.122834
C110  C     C_R   0.740677 0.545332 0.696837 0.460076
C111  C     C_R   0.257782 0.545002 0.304362 0.462274
C112  C     C_R   0.240678 0.045333 0.696837 0.460076
H1    H     H_    0.746876 0.623086 0.824195 0.141705
H2    H     H_    0.555997 0.582434 0.464824 0.161338
H3    H     H_    0.941337 0.000553 0.308814 0.125520
H4    H     H_    0.055991 0.082445 0.464848 0.161345
H5    H     H_    0.785915 0.243857 0.831930 0.124281
H6    H     H_    0.218569 0.244072 0.172864 0.124969
H7    H     H_    0.285915 0.743857 0.831930 0.124280
H8    H     H_    0.718569 0.744072 0.172864 0.124969
H9    H     H_    0.198256 0.666176 0.832584 0.123465
H10   H     H_    0.801978 0.663772 0.172187 0.126627
H11   H     H_    0.698256 0.166175 0.832584 0.123465
H12   H     H_    0.251624 0.624911 0.177833 0.141252
H13   H     H_    0.301978 0.163772 0.172187 0.126627
H14   H     H_    0.393885 0.683541 0.279271 0.204348
H15   H     H_    0.598696 0.678263 0.723708 0.203958
H16   H     H_    0.893885 0.183541 0.279271 0.204348
H17   H     H_    0.098696 0.178263 0.723708 0.203957
H18   H     H_    0.281578 0.724478 0.192092 0.202971
H19   H     H_    0.711428 0.718619 0.806656 0.203113
H20   H     H_    0.781577 0.224478 0.192091 0.202971
H21   H     H_    0.211427 0.218619 0.806656 0.203113
H22   H     H_    0.979840 0.259275 0.278906 0.192714
H23   H     H_    0.246876 0.123087 0.824195 0.141706
H24   H     H_    0.015151 0.255568 0.724869 0.194354
H25   H     H_    0.479840 0.759274 0.278906 0.192714
H26   H     H_    0.515151 0.755568 0.724869 0.194354
H27   H     H_    0.866976 0.299700 0.191794 0.205212
H28   H     H_    0.128634 0.295237 0.807148 0.200577
H29   H     H_    0.366977 0.799700 0.191795 0.205213
H30   H     H_    0.628634 0.795237 0.807148 0.200577
H31   H     H_    0.107655 0.414017 0.661064 0.128294
H32   H     H_    0.127679 0.414271 0.513628 0.127396
H33   H     H_    0.607654 0.914017 0.661064 0.128294
H34   H     H_    0.751624 0.124911 0.177833 0.141251
H35   H     H_    0.627679 0.914271 0.513628 0.127396
H36   H     H_    0.982400 0.599055 0.400742 0.197765
H37   H     H_    0.070173 0.639426 0.630672 0.187213
H38   H     H_    0.482400 0.099055 0.400741 0.197765
H39   H     H_    0.570173 0.139426 0.630671 0.187212
H40   H     H_    0.993841 0.335321 0.177293 0.100727
H41   H     H_    0.005411 0.334065 0.825018 0.102774
H42   H     H_    0.493841 0.835321 0.177293 0.100727
H43   H     H_    0.505411 0.834065 0.825017 0.102774
H44   H     H_    0.093870 0.639881 0.489704 0.195176
H45   H     H_    0.556362 0.497327 0.695055 0.126198
H46   H     H_    0.959753 0.597788 0.539431 0.204202
H47   H     H_    0.593870 0.139881 0.489704 0.195175
H48   H     H_    0.459753 0.097788 0.539431 0.204202
H49   H     H_    0.076758 0.588317 0.332667 0.114687
H50   H     H_    0.002516 0.588445 0.712740 0.100350
H51   H     H_    0.576758 0.088317 0.332667 0.114687
H52   H     H_    0.502515 0.088445 0.712739 0.100350
H53   H     H_    0.721585 0.410799 0.681882 0.129024
H54   H     H_    0.277131 0.410510 0.320483 0.127921
H55   H     H_    0.221584 0.910799 0.681881 0.129026
H56   H     H_    0.439851 0.415471 0.537056 0.114170
H57   H     H_    0.777130 0.910509 0.320483 0.127919
H58   H     H_    0.066619 0.412567 0.332329 0.084517
H59   H     H_    0.020589 0.411439 0.730419 0.092813
H60   H     H_    0.566619 0.912567 0.332329 0.084517
H61   H     H_    0.520589 0.911439 0.730418 0.092812
H62   H     H_    0.810946 0.335002 0.826661 0.083893
H63   H     H_    0.189730 0.335167 0.174802 0.082750
H64   H     H_    0.310946 0.835002 0.826661 0.083893
H65   H     H_    0.689730 0.835167 0.174802 0.082749
H66   H     H_    0.928457 0.631411 0.176439 0.090101
H67   H     H_    0.056366 0.997308 0.695057 0.126200
H68   H     H_    0.065375 0.648741 0.830568 0.083319
H69   H     H_    0.428457 0.131411 0.176439 0.090101
H70   H     H_    0.565376 0.148741 0.830568 0.083319
H71   H     H_    0.438633 0.580250 0.541798 0.159287
H72   H     H_    0.560240 0.417604 0.463610 0.115029
H73   H     H_    0.938631 0.080240 0.541824 0.159276
H74   H     H_    0.060239 0.917614 0.463583 0.115031
H75   H     H_    0.785139 0.618300 0.700830 0.306826
H76   H     H_    0.211607 0.617908 0.298777 0.304437
H77   H     H_    0.285141 0.118300 0.700831 0.306826
H78   H     H_    0.939855 0.915461 0.537031 0.114168
H79   H     H_    0.711608 0.117908 0.298777 0.304436
H80   H     H_    0.441342 0.500535 0.308816 0.125525
N1    N     N_R   0.892620 0.603790 0.941770 -0.047527
N2    N     N_R   0.973690 0.529110 0.793240 -0.043925
N3    N     N_R   0.526310 0.029110 0.206760 -0.043880
N4    N     N_R   0.473690 0.029110 0.793240 -0.043924
N5    N     N_R   0.818570 0.472310 0.793020 -0.055048
N6    N     N_R   0.181430 0.472310 0.206980 -0.053826
N7    N     N_R   0.318570 0.972310 0.793020 -0.055048
N8    N     N_R   0.681430 0.972310 0.206980 -0.053826
N9    N     N_R   0.026930 0.472300 0.207330 -0.037455
N10   N     N_R   0.973070 0.472300 0.792670 -0.038299
N11   N     N_R   0.526930 0.972300 0.207330 -0.037455
N12   N     N_R   0.107380 0.603790 0.058230 -0.046654
N13   N     N_R   0.473070 0.972300 0.792670 -0.038299
N14   N     N_R   0.817960 0.529130 0.792460 -0.098352
N15   N     N_R   0.182040 0.529130 0.207540 -0.096716
N16   N     N_R   0.317960 0.029130 0.792460 -0.098352
N17   N     N_R   0.682040 0.029130 0.207540 -0.096717
N18   N     N_R   0.894850 0.397640 0.943830 -0.035491
N19   N     N_R   0.105150 0.397640 0.056170 -0.035078
N20   N     N_R   0.394850 0.897640 0.943830 -0.035491
N21   N     N_R   0.605150 0.897640 0.056170 -0.035078
N22   N     N_R   0.950040 0.603780 0.055950 -0.041421
N23   N     N_R   0.392620 0.103790 0.941770 -0.047527
N24   N     N_R   0.049960 0.603780 0.944050 -0.039867
N25   N     N_R   0.450040 0.103780 0.055950 -0.041421
N26   N     N_R   0.549960 0.103780 0.944050 -0.039867
N27   N     N_R   0.607380 0.103790 0.058230 -0.046654
N28   N     N_R   0.952270 0.397640 0.058010 -0.038245
N29   N     N_R   0.047730 0.397640 0.941990 -0.037115
N30   N     N_R   0.452270 0.897640 0.058010 -0.038245
N31   N     N_R   0.547730 0.897640 0.941990 -0.037115
N32   N     N_R   0.026310 0.529110 0.206760 -0.043880
Ni1   Ni    Ni4+2 0.934160 0.565860 0.869070 0.207112
Ni2   Ni    Ni4+2 0.065840 0.565860 0.130930 0.202859
Ni3   Ni    Ni4+2 0.434160 0.065860 0.869070 0.207113
Ni4   Ni    Ni4+2 0.565840 0.065860 0.130930 0.202859
Ni5   Ni    Ni4+2 0.067260 0.435560 0.132230 0.203042
Ni6   Ni    Ni4+2 0.932740 0.435560 0.867770 0.206095
Ni7   Ni    Ni4+2 0.567260 0.935560 0.132230 0.203042
Ni8   Ni    Ni4+2 0.432740 0.935560 0.867770 0.206095
O1    O     O_3   0.727031 0.596716 0.650429 -0.796548
O2    O     O_3   0.269600 0.596194 0.350446 -0.798587
O3    O     O_3   0.227032 0.096716 0.650430 -0.796550
O4    O     O_3   0.769601 0.096194 0.350447 -0.798581

loop_
_geom_bond_atom_site_label_1
_geom_bond_atom_site_label_2
_ccdc_geom_bond_type
C44   C49   A    
C3    N17   A    
C55   H42   S    
C83   C87   A    
C35   H80   S    
C38   H3    S    
C29   C33   S    
C73   C75   S    
N26   Ni3   S    
C111  N15   A    
C2    C84   S    
C95   C96   S    
C9    C14   A    
C25   N12   A    
C19   C31   S    
C54   H41   S    
C76   H24   S    
N6    Ni5   S    
N18   N28   A    
C57   C62   A    
C107  H59   S    
N5    Ni6   S    
C94   H37   S    
C1    C12   A    
C98   N2    A    
C93   C94   S    
C49   C60   A    
C105  H57   S    
N3    Ni4   S    
C95   H47   S    
C30   H74   S    
N2    Ni1   S    
C35   C37   S    
C24   C26   S    
C108  N11   A    
C8    N22   A    
C10   C15   A    
C78   H30   S    
C36   N23   A    
C38   C39   S    
N20   Ni8   S    
C101  N5    A    
N3    N11   A    
C65   C70   A    
C14   C62   S    
C74   H21   S    
C99   N3    A    
C2    C107  A    
C111  O2    S    
C4    N18   A    
C7    H65   S    
C93   H36   S    
C67   C72   S    
C42   C46   A    
N4    N13   A    
C24   C29   S    
C72   C78   S    
N15   Ni2   S    
C13   C108  A    
C20   C112  A    
C19   C103  A    
C105  N8    A    
C49   H5    S    
C101  H53   S    
C28   C35   S    
C44   C58   S    
C104  H55   S    
C56   C91   A    
C48   C91   S    
N29   Ni6   S    
C70   C74   S    
C53   H40   S    
C51   H7    S    
C71   H14   S    
C51   C57   A    
N8    Ni7   S    
N27   Ni4   S    
C43   C48   A    
C88   H31   S    
C97   C102  A    
N21   Ni7   S    
C110  O1    S    
C81   C85   A    
N10   Ni6   S    
C20   C34   S    
C53   N28   A    
N9    Ni5   S    
N4    Ni3   S    
C83   C95   S    
C94   H46   S    
C4    H62   S    
C87   C92   A    
C92   H35   S    
C5    H63   S    
C29   C39   S    
N5    N14   A    
C11   H70   S    
C1    H1    S    
C24   H67   S    
C56   H43   S    
N22   Ni2   S    
C78   H26   S    
C16   C47   A    
C98   H50   S    
C22   H45   S    
C52   H8    S    
C18   C101  A    
C27   H71   S    
C100  N4    A    
C9    N24   A    
C26   H78   S    
C103  H54   S    
C5    N19   A    
C63   C67   A    
C75   H22   S    
C82   C96   S    
C62   C66   A    
C72   H15   S    
C45   C69   S    
C34   C39   S    
C84   C88   A    
C28   C32   S    
C112  N16   A    
C107  N10   A    
C110  N14   A    
C86   C90   A    
C79   C81   A    
C12   C63   S    
C30   C34   S    
C54   N29   A    
N20   N30   A    
C37   H2    S    
C68   C73   S    
C82   C86   A    
C96   H39   S    
C5    C69   A    
C46   C51   A    
C24   C34   S    
C17   C86   S    
N32   Ni2   S    
C43   C78   S    
C103  N6    A    
C23   C31   S    
C13   C99   A    
C60   H11   S    
C1    N1    A    
N7    Ni8   S    
C52   C59   A    
C61   C65   A    
C3    O4    S    
N19   N29   A    
C81   C93   S    
C11   C16   A    
C26   C33   S    
C90   C92   A    
C66   C71   S    
C40   C44   A    
C8    C12   A    
C7    C91   A    
C13   C87   S    
N14   Ni1   S    
N18   Ni6   S    
C106  H58   S    
C100  H52   S    
C95   H38   S    
C7    N21   A    
C32   C37   S    
C109  N13   A    
N11   Ni7   S    
C11   N26   A    
C25   H12   S    
H75   O1    S    
C9    H68   S    
C22   C32   S    
C79   C94   S    
C55   N30   A    
C99   H51   S    
N28   Ni5   S    
C43   C67   A    
C96   H48   S    
N30   Ni7   S    
C26   C30   S    
C97   H49   S    
C22   C27   S    
C108  H60   S    
C27   C31   S    
N17   Ni4   S    
C6    C80   A    
C104  N7    A    
C31   C35   S    
C3    C21   A    
C23   C28   S    
C74   C76   S    
C76   H28   S    
N12   Ni2   S    
C112  O3    S    
C36   H23   S    
C64   C68   A    
C15   C36   A    
C71   C77   S    
H76   O2    S    
N31   Ni8   S    
C72   H19   S    
C42   C66   A    
C50   C61   A    
C85   C89   A    
N19   Ni5   S    
N1    N22   A    
N6    N15   A    
C50   H6    S    
C93   H44   S    
C18   C110  A    
C77   H25   S    
N13   Ni8   S    
C17   C109  A    
C56   N31   A    
C61   H13   S    
C53   C58   A    
C40   C75   S    
C20   C104  A    
N24   Ni1   S    
C19   C111  A    
C90   H33   S    
C89   H32   S    
N12   N24   A    
N2    N10   A    
C59   C63   A    
N8    N17   A    
N9    N32   A    
C97   N32   A    
C60   C64   A    
C21   C33   S    
N23   N25   A    
H79   O4    S    
N1    Ni1   S    
N16   Ni3   S    
C75   H27   S    
C106  N9    A    
C46   C80   S    
C55   C80   A    
N21   N31   A    
N26   N27   A    
C79   C84   A    
C54   C69   A    
C47   N27   A    
C45   C50   A    
C27   C37   S    
N7    N16   A    
C6    H64   S    
C29   H73   S    
C18   C32   S    
C102  C106  A    
N23   Ni3   S    
C14   C25   A    
C28   H72   S    
H77   O3    S    
C17   C100  A    
C77   H29   S    
C47   H34   S    
N25   Ni4   S    
C57   H9    S    
C23   H56   S    
C8    H66   S    
C71   H18   S    
C48   C52   A    
C6    N20   A    
C88   C89   A    
C2    C98   A    
C42   C77   S    
C73   H16   S    
C82   C83   A    
C40   C68   A    
C74   H17   S    
C4    C58   A    
C39   H4    S    
C10   H69   S    
C41   C45   A    
C22   C23   S    
C33   C38   S    
C73   H20   S    
C16   C64   S    
C30   C38   S    
C109  H61   S    
C59   H10   S    
C21   C105  A    
C85   C102  S    
C10   N25   A    
C41   C70   A    
C41   C76   S    
C15   C65   S    
