data_mof_unit_32950.cif
_audit_creation_date              2013-03-05T16:12:50-0500
_audit_creation_method            fapswitch 2.2
_symmetry_space_group_name_H-M    P1
_symmetry_Int_Tables_number       1
_space_group_crystal_system       triclinic
_cell_length_a                    25.980388
_cell_length_b                    6.887153
_cell_length_c                    21.648314
_cell_angle_alpha                 90.391458
_cell_angle_beta                  96.090279
_cell_angle_gamma                 89.907704
_cell_volume                      3851.59854735

loop_
_atom_site_label
_atom_site_type_symbol
_atom_site_description
_atom_site_fract_x
_atom_site_fract_y
_atom_site_fract_z
_atom_type_partial_charge
O1    O     O_R   0.208650 0.594520 0.175450 -0.597223
O2    O     O_R   0.791350 0.405480 0.824550 -0.587250
O3    O     O_R   0.291350 0.094520 0.324550 -0.565174
O4    O     O_R   0.708650 0.905480 0.675450 -0.599769
O5    O     O_R   0.192980 0.260780 0.300160 -0.582162
O6    O     O_R   0.807020 0.739220 0.699840 -0.598404
O7    O     O_R   0.307020 0.760780 0.199840 -0.605895
O8    O     O_R   0.692980 0.239220 0.800160 -0.593470
C1    C     C_R   0.178597 0.434337 0.318438 0.984239
C2    C     C_R   0.821966 0.565189 0.682586 0.978881
C3    C     C_R   0.322052 0.933655 0.182495 0.995728
C4    C     C_R   0.677422 0.066489 0.816245 0.976213
O9    O     O_R   0.202550 0.264660 0.174420 -0.569771
O10   O     O_R   0.797450 0.735340 0.825580 -0.590623
O11   O     O_R   0.297450 0.764660 0.325580 -0.598922
O12   O     O_R   0.702550 0.235340 0.674420 -0.580172
O13   O     O_R   0.300990 0.096480 0.197920 -0.569420
O14   O     O_R   0.699010 0.903520 0.802080 -0.567778
O15   O     O_R   0.199010 0.596480 0.302080 -0.609281
O16   O     O_R   0.800990 0.403520 0.697920 -0.577950
C5    C     C_R   0.191062 0.433482 0.151064 1.051784
C6    C     C_R   0.809034 0.566616 0.848920 1.075194
C7    C     C_R   0.308730 0.934698 0.349515 1.024770
C8    C     C_R   0.690932 0.065181 0.650991 1.045085
O17   O     O_3   0.282290 0.427760 0.257860 -0.276286
O18   O     O_3   0.717710 0.572240 0.742140 -0.276691
O19   O     O_3   0.217710 0.927760 0.242140 -0.280663
O20   O     O_3   0.782290 0.072240 0.757860 -0.280865
V1    V     V_3+5 0.244010 0.152080 0.248540 1.213784
V2    V     V_3+5 0.755990 0.847920 0.751460 1.205372
V3    V     V_3+5 0.255990 0.652080 0.251460 1.178384
V4    V     V_3+5 0.744010 0.347920 0.748540 1.205653
C9    C     C_R   0.658918 0.046507 0.590068 -0.317038
C10   C     C_R   0.343386 0.948331 0.409200 -0.315804
C11   C     C_R   0.842447 0.557988 0.908857 -0.335161
C12   C     C_R   0.156246 0.443132 0.092281 -0.326138
C13   C     C_R   0.651019 0.912258 0.485669 -0.151210
C14   C     C_R   0.353338 0.960935 0.521883 -0.132734
C15   C     C_R   0.852240 0.577218 0.021388 -0.147083
C16   C     C_R   0.146119 0.451649 0.979858 -0.137084
C17   C     C_R   0.682092 0.969417 0.539259 0.312927
C18   C     C_R   0.321428 0.960045 0.465902 0.281287
C19   C     C_R   0.821591 0.603895 0.964866 0.289485
C20   C     C_R   0.177083 0.415254 0.035310 0.284886
C21   C     C_R   0.604522 0.076171 0.584779 0.163644
C22   C     C_R   0.398195 0.961812 0.409786 0.201884
C23   C     C_R   0.895313 0.502116 0.910561 0.192024
C24   C     C_R   0.103264 0.496837 0.092438 0.197624
C25   C     C_R   0.572296 0.991878 0.533152 0.093812
C26   C     C_R   0.431161 0.948705 0.467723 0.087264
C27   C     C_R   0.928446 0.515476 0.967775 0.090549
C28   C     C_R   0.069647 0.493748 0.035192 0.088712
C29   C     C_R   0.596736 0.915167 0.482495 -0.111978
C30   C     C_R   0.407396 0.951077 0.523990 -0.124888
C31   C     C_R   0.904539 0.522660 0.023510 -0.113262
C32   C     C_R   0.093365 0.497475 0.979035 -0.117953
C33   C     C_R   0.516923 0.976193 0.530151 0.036910
C34   C     C_R   0.486760 0.935887 0.472546 0.041796
C35   C     C_R   0.984017 0.519706 0.972355 0.036736
C36   C     C_R   0.013900 0.490356 0.030798 0.041927
C37   C     C_R   0.512668 0.857877 0.424376 -0.304061
C38   C     C_R   0.491684 0.969256 0.584236 -0.307206
C39   C     C_R   0.986923 0.445339 0.081826 -0.316483
C40   C     C_R   0.010373 0.567552 0.921221 -0.308410
C41   C     C_R   0.566505 0.841927 0.429224 0.365944
C42   C     C_R   0.438096 0.950840 0.582009 0.356041
C43   C     C_R   0.933510 0.473749 0.080179 0.359705
C44   C     C_R   0.063893 0.547683 0.922831 0.353037
H1    H     H_    0.670089 0.863593 0.446317 0.220310
H2    H     H_    0.335122 0.978094 0.564250 0.221440
H3    H     H_    0.834839 0.601778 0.064010 0.217293
H4    H     H_    0.163422 0.436592 0.936771 0.219939
H5    H     H_    0.491081 0.791279 0.384401 0.194926
H6    H     H_    0.513803 0.960290 0.629262 0.193134
H7    H     H_    0.006872 0.386314 0.123776 0.195698
H8    H     H_    0.989599 0.623307 0.879192 0.197469
C45   C     C_R   0.410749 0.803515 0.058798 -0.033818
C46   C     C_R   0.589619 0.163414 0.942905 -0.030449
C47   C     C_R   0.057708 0.309282 0.396159 -0.053584
C48   C     C_R   0.906646 0.674852 0.554105 -0.033769
H9    H     H_    0.414462 0.684055 0.026810 0.202315
H10   H     H_    0.587934 0.266645 0.980633 0.190081
H11   H     H_    0.030530 0.190030 0.394844 0.184802
H12   H     H_    0.909450 0.789080 0.520525 0.193987
C49   C     C_R   0.373148 0.793412 0.100557 -0.176228
C50   C     C_R   0.628131 0.184143 0.902744 -0.155218
C51   C     C_R   0.099498 0.297796 0.360287 -0.190628
C52   C     C_R   0.871142 0.694319 0.598117 -0.142336
H13   H     H_    0.348792 0.665740 0.099431 0.170230
H14   H     H_    0.655673 0.301757 0.910913 0.191885
H15   H     H_    0.103263 0.169249 0.332062 0.141298
H16   H     H_    0.847397 0.823651 0.597248 0.198266
C53   C     C_R   0.365290 0.948196 0.141313 -0.181866
C54   C     C_R   0.632556 0.050858 0.854168 -0.190607
C55   C     C_R   0.135092 0.451399 0.359215 -0.157038
C56   C     C_R   0.864497 0.545972 0.640844 -0.202148
C57   C     C_R   0.397762 0.116294 0.140035 0.123543
C58   C     C_R   0.595177 0.898753 0.844266 0.119534
C59   C     C_R   0.127577 0.620484 0.396288 0.049858
C60   C     C_R   0.896740 0.376690 0.640194 0.123911
C61   C     C_R   0.437500 0.120523 0.099459 0.360788
C62   C     C_R   0.556169 0.879314 0.885293 0.364143
C63   C     C_R   0.086501 0.626211 0.434667 0.346948
C64   C     C_R   0.934415 0.363429 0.597264 0.355848
C65   C     C_R   0.443040 0.965692 0.057846 -0.091914
C66   C     C_R   0.554065 0.010150 0.935268 -0.091733
C67   C     C_R   0.051113 0.471960 0.433609 -0.069525
C68   C     C_R   0.938163 0.510177 0.553127 -0.095236
C69   C     C_1   0.482119 0.974361 0.014196 0.162321
C70   C     C_1   0.514856 0.989702 0.978336 0.161140
C71   C     C_1   0.009297 0.479973 0.473283 0.150815
C72   C     C_1   0.976150 0.494712 0.508523 0.164384
N1    N     N_R   0.589610 0.745257 0.379955 0.242874
O21   O     O_R   0.572301 0.778745 0.322380 -0.319904
O22   O     O_R   0.620406 0.598216 0.392417 -0.349276
N2    N     N_R   0.415665 0.929157 0.639523 0.246741
O23   O     O_R   0.433919 0.028312 0.688363 -0.311556
O24   O     O_R   0.383921 0.786680 0.646199 -0.313351
N3    N     N_R   0.909106 0.440076 0.135749 0.243829
O25   O     O_R   0.933023 0.486485 0.189699 -0.359916
O26   O     O_R   0.867341 0.335074 0.133578 -0.336862
N4    N     N_R   0.087829 0.589293 0.867460 0.247359
O27   O     O_R   0.064835 0.539502 0.813337 -0.313521
O28   O     O_R   0.127635 0.704675 0.870043 -0.319538
C73   C     C_3   0.418420 0.027161 0.350211 -0.968331
H17   H     H_    0.392915 0.142422 0.328536 0.238125
H18   H     H_    0.456918 0.097188 0.358193 0.279774
H19   H     H_    0.419066 0.903613 0.317078 0.242525
C74   C     C_3   0.583904 0.217863 0.630049 -0.931665
H20   H     H_    0.609266 0.347762 0.635672 0.259562
H21   H     H_    0.545191 0.275382 0.612885 0.269449
H22   H     H_    0.583023 0.149178 0.676181 0.227867
C75   C     C_3   0.086770 0.587675 0.151359 -0.974671
H23   H     H_    0.115793 0.695754 0.170750 0.257420
H24   H     H_    0.050606 0.673242 0.142783 0.271270
H25   H     H_    0.082932 0.474354 0.186828 0.233295
C76   C     C_3   0.912390 0.398807 0.854225 -0.979586
H26   H     H_    0.884084 0.283434 0.838825 0.254698
H27   H     H_    0.914881 0.503299 0.815814 0.234757
H28   H     H_    0.949538 0.320277 0.864383 0.277539
N5    N     N_R   0.266864 0.988533 0.467789 0.216750
O29   O     O_R   0.242716 0.121111 0.433306 -0.411040
O30   O     O_R   0.244063 0.914513 0.512896 -0.318110
N6    N     N_R   0.737506 0.952709 0.540744 0.231987
O31   O     O_R   0.767735 0.083517 0.568943 -0.422000
O32   O     O_R   0.757750 0.818710 0.508161 -0.372575
N7    N     N_R   0.230712 0.365422 0.032835 0.231405
O33   O     O_R   0.252769 0.232846 0.069115 -0.402865
O34   O     O_R   0.255990 0.435815 0.989280 -0.333428
N8    N     N_R   0.768716 0.667053 0.965872 0.238564
O35   O     O_R   0.731918 0.598643 0.926262 -0.421251
O36   O     O_R   0.756327 0.779674 0.010509 -0.340173
C77   C     C_3   0.389448 0.293241 0.179805 -0.796153
H29   H     H_    0.390639 0.251138 0.229131 0.225899
H30   H     H_    0.418666 0.408744 0.177311 0.257181
H31   H     H_    0.351673 0.361249 0.163928 0.258462
C78   C     C_3   0.596971 0.757615 0.790525 -0.815959
H32   H     H_    0.602060 0.837674 0.747226 0.204603
H33   H     H_    0.629382 0.653894 0.800996 0.264744
H34   H     H_    0.561229 0.670496 0.780908 0.270802
C79   C     C_3   0.162082 0.796268 0.394443 -0.660882
H35   H     H_    0.202945 0.751348 0.405680 0.252525
H36   H     H_    0.156360 0.863087 0.347740 0.214760
H37   H     H_    0.153986 0.912981 0.427378 0.280078
C80   C     C_3   0.890445 0.208010 0.683357 -0.796683
H38   H     H_    0.891305 0.261259 0.731710 0.227178
H39   H     H_    0.853403 0.132274 0.669119 0.267641
H40   H     H_    0.921017 0.096157 0.683136 0.257755
N9    N     N_R   0.472815 0.281200 0.100870 0.220806
O37   O     O_R   0.477020 0.381023 0.050859 -0.392084
O38   O     O_R   0.505707 0.310493 0.149665 -0.334277
N10   N     N_R   0.518918 0.725487 0.876781 0.227048
O39   O     O_R   0.519055 0.588400 0.917839 -0.371100
O40   O     O_R   0.480455 0.738174 0.833333 -0.304664
N11   N     N_R   0.080977 0.787819 0.475719 0.227037
O41   O     O_R   0.115087 0.815840 0.523427 -0.266289
O42   O     O_R   0.038713 0.890477 0.470321 -0.382298
N12   N     N_R   0.969265 0.201227 0.598509 0.229427
O43   O     O_R   0.970056 0.090401 0.549759 -0.369382
O44   O     O_R   0.005239 0.182006 0.644670 -0.299572

loop_
_geom_bond_atom_site_label_1
_geom_bond_atom_site_label_2
_geom_bond_distance
_ccdc_geom_bond_type
O17   V3    1.688876 S    
C59   C63   1.420655 A    
C14   H2    1.081486 S    
O1    C5    1.288416 A    
C78   H32   1.110715 S    
C51   H15   1.082464 S    
O19   V1    1.689158 S    
C9    C21   1.420263 A    
N9    O37   1.300871 A    
C22   C73   1.514742 S    
O3    C7    1.289301 A    
N7    O33   1.300581 A    
C10   C18   1.409190 A    
C60   C64   1.421853 A    
C48   H12   1.082541 S    
C11   C23   1.422549 A    
C52   C56   1.405906 A    
C79   H35   1.107768 S    
C25   C33   1.437364 A    
C33   C38   1.402464 A    
N11   O42   1.300250 A    
C5    C12   1.482806 S    
O7    C3    1.322808 A    
C6    C11   1.484104 S    
C76   H27   1.110518 S    
C35   C40   1.403342 A    
C26   C30   1.422853 A    
C42   N2    1.438383 S    
C36   C39   1.406162 A    
C40   C44   1.393747 A    
O9    V1    1.995909 S    
N7    O34   1.301558 A    
C14   C18   1.393836 A    
C13   H1    1.081053 S    
N5    O30   1.301866 A    
C66   C70   1.459639 S    
O4    C8    1.287096 A    
C55   C59   1.434604 A    
N12   O44   1.301123 A    
C54   C58   1.429147 A    
O1    V3    1.985119 S    
C20   N7    1.440847 S    
O13   V1    1.968665 S    
N2    O23   1.301518 A    
O2    V4    1.985114 S    
O3    V1    1.988811 S    
O12   V4    1.988726 S    
C50   C54   1.404930 A    
C59   C79   1.510838 S    
C49   C53   1.407552 A    
C1    O15   1.304166 A    
C15   C31   1.405285 A    
C77   H29   1.105654 S    
C52   H16   1.081810 S    
C2    O16   1.300882 A    
C16   C32   1.404254 A    
C51   C55   1.408145 A    
O2    C6    1.289661 A    
C75   H25   1.110555 S    
C61   N9    1.436719 S    
C10   C22   1.425849 A    
C2    C56   1.504960 S    
C77   H30   1.105961 S    
C11   C19   1.413268 A    
C1    C55   1.510116 S    
C16   C20   1.396266 A    
C74   H22   1.110405 S    
C13   C29   1.404786 A    
C46   C50   1.401478 A    
C34   C37   1.403310 A    
O11   C7    1.298608 A    
O15   V3    1.972497 S    
C35   C36   1.427907 A    
O12   C8    1.297021 A    
O17   V1    2.143116 S    
N9    O38   1.301103 A    
C4    C54   1.499660 S    
C80   H39   1.108921 S    
C41   N1    1.437379 S    
O10   V2    1.995906 S    
C47   C51   1.402089 A    
C79   H36   1.109186 S    
N10   O40   1.300874 A    
N12   O43   1.300118 A    
O5    V1    1.966380 S    
N3    O26   1.301468 A    
C62   N10   1.433791 S    
C76   H28   1.107811 S    
C39   C43   1.397843 A    
C61   C65   1.408284 A    
O7    V3    1.973807 S    
C38   C42   1.393909 A    
O19   V3    2.142720 S    
C26   C34   1.439772 A    
C24   C75   1.518624 S    
O20   V4    2.142718 S    
C17   N6    1.441070 S    
N6    O32   1.301591 A    
C50   H14   1.082821 S    
C44   N4    1.438462 S    
C49   H13   1.082773 S    
O18   V4    1.688878 S    
C15   C19   1.400308 A    
C37   H5    1.079926 S    
C58   C62   1.423687 A    
C68   C72   1.455394 S    
C60   C80   1.515698 S    
O8    V4    1.973807 S    
C78   H33   1.109271 S    
O5    C1    1.322289 A    
C73   H19   1.110388 S    
C46   H10   1.083527 S    
C31   C43   1.412059 A    
N11   O41   1.301089 A    
C14   C30   1.401874 A    
C58   C78   1.515411 S    
C45   H9    1.082536 S    
O8    C4    1.317916 A    
C7    C10   1.496898 S    
C23   C76   1.514068 S    
C18   N5    1.435623 S    
C63   N11   1.436046 S    
C21   C25   1.442653 A    
C40   H8    1.080032 S    
C47   C67   1.399416 A    
C77   H31   1.108983 S    
C48   C68   1.399122 A    
C19   N8    1.442595 S    
O14   V2    1.968660 S    
O6    V2    1.966382 S    
O18   V2    2.143117 S    
C80   H40   1.105939 S    
C57   C77   1.515692 S    
C73   H17   1.107608 S    
N8    O36   1.301511 A    
C12   C20   1.410378 A    
C27   C35   1.436950 A    
N4    O28   1.301498 A    
C53   C57   1.435742 A    
C64   C68   1.406118 A    
C79   H37   1.105520 S    
C29   C41   1.415048 A    
N10   O39   1.300859 A    
C73   H18   1.107530 S    
N1    O21   1.301371 A    
O16   V4    1.972500 S    
C64   N12   1.435419 S    
C65   C69   1.460056 S    
C3    O13   1.303903 A    
C16   H4    1.081851 S    
C71   C72   1.213259 T    
C67   C71   1.455376 S    
N6    O31   1.301578 A    
O6    C2    1.322888 A    
C23   C27   1.433880 A    
N3    O25   1.301483 A    
O11   V3    1.988725 S    
C30   C42   1.414623 A    
C78   H34   1.106657 S    
C76   H26   1.108855 S    
C22   C26   1.445047 A    
C8    C9    1.487625 S    
C46   C66   1.401110 A    
C9    C17   1.409157 A    
O10   C6    1.292597 A    
O20   V2    1.689157 S    
C74   H20   1.110291 S    
C48   C52   1.400348 A    
C32   C44   1.411902 A    
C69   C70   1.216036 T    
O9    C5    1.292862 A    
C47   H11   1.082230 S    
C3    C53   1.510220 S    
C33   C34   1.426517 A    
C75   H23   1.108712 S    
C39   H7    1.078482 S    
C25   C29   1.422554 A    
C21   C74   1.515350 S    
C56   C60   1.435373 A    
C45   C65   1.399571 A    
N2    O24   1.301459 A    
C12   C24   1.425073 A    
C27   C31   1.414976 A    
C13   C17   1.395933 A    
C57   C61   1.425190 A    
C45   C49   1.401736 A    
C37   C41   1.395698 A    
C80   H38   1.104776 S    
C24   C28   1.438441 A    
C28   C36   1.441536 A    
C62   C66   1.408720 A    
C4    O14   1.303120 A    
C75   H24   1.107785 S    
C15   H3    1.081887 S    
N8    O35   1.301245 A    
C38   H6    1.079824 S    
C63   C67   1.404550 A    
C74   H21   1.108151 S    
N4    O27   1.301508 A    
N5    O29   1.301018 A    
C43   N3    1.438443 S    
O4    V2    1.988816 S    
C28   C32   1.420484 A    
N1    O22   1.301457 A    
