data_mof_unit_57435.cif
_audit_creation_date              2012-12-10T17:39:19-0500
_audit_creation_method            fapswitch 2.2
_symmetry_space_group_name_H-M    P1
_symmetry_Int_Tables_number       1
_space_group_crystal_system       triclinic
_cell_length_a                    12.382297
_cell_length_b                    13.298919
_cell_length_c                    27.788111
_cell_angle_alpha                 76.03189
_cell_angle_beta                  100.896852
_cell_angle_gamma                 117.891055
_cell_volume                      3909.27820714

loop_
_atom_site_label
_atom_site_type_symbol
_atom_type_description
_atom_site_fract_x
_atom_site_fract_y
_atom_site_fract_z
_atom_type_partial_charge
C1    C     C_R   0.854440 0.286395 0.505244 0.943708
C2    C     C_R   0.089750 0.471303 0.730865 0.384600
C3    C     C_R   0.004763 0.492296 0.748503 0.137064
C4    C     C_R   0.012086 0.491431 0.900809 -0.140469
C5    C     C_R   0.962846 0.385031 0.883592 -0.119270
C6    C     C_R   0.914956 0.280361 0.918237 0.412053
C7    C     C_R   0.061944 0.597840 0.867353 -0.120508
C8    C     C_R   0.002063 0.503558 0.645747 -0.201159
C9    C     C_R   0.000043 0.499292 0.355034 -0.175058
C10   C     C_R   0.998272 0.392545 0.038445 0.014516
C11   C     C_R   0.023611 0.592022 0.016918 -0.072986
C12   C     C_R   0.000775 0.501836 0.592372 0.929864
C13   C     C_R   0.011501 0.492768 0.053233 -0.015701
C14   C     C_R   0.009227 0.302555 0.075309 0.325364
C15   C     C_R   0.018167 0.306615 0.126344 0.335053
C16   C     C_R   0.011110 0.398550 0.140935 -0.139184
C17   C     C_R   0.010784 0.493185 0.104101 -0.143457
C18   C     C_R   0.010176 0.588669 0.118044 -0.171413
C19   C     C_R   0.000504 0.583187 0.168452 0.694507
C20   C     C_R   0.007133 0.401254 0.191201 0.720477
C21   C     C_R   0.890984 0.428808 0.278352 0.271584
C22   C     C_R   0.890156 0.432022 0.328784 0.278987
C23   C     C_R   0.145869 0.713104 0.495447 0.844611
C24   C     C_R   0.109868 0.563768 0.331654 0.206583
C25   C     C_R   0.108947 0.563372 0.280673 0.331680
C26   C     C_R   0.000598 0.493445 0.254956 0.143374
C27   C     C_R   0.978446 0.387841 0.986690 0.040074
C28   C     C_R   0.011472 0.491554 0.951808 0.077117
C29   C     C_R   0.044474 0.595643 0.967898 0.031665
C30   C     C_R   0.923596 0.283079 0.968678 -0.133677
C31   C     C_R   0.112969 0.702573 0.886073 0.427403
C32   C     C_R   0.012683 0.682368 0.030863 0.337006
C33   C     C_R   0.012926 0.683830 0.080943 0.394394
C34   C     C_R   0.000434 0.500347 0.407842 0.968903
C35   C     C_R   0.103802 0.700011 0.935551 -0.146908
C36   C     C_R   0.308490 0.924802 0.580008 0.294997
C37   C     C_R   0.228585 0.827297 0.508445 -0.219027
C38   C     C_R   0.799326 0.117992 0.466835 0.339210
C39   C     C_R   0.717228 0.006992 0.457682 -0.212483
C40   C     C_R   0.605226 0.946750 0.478378 0.502290
C41   C     C_R   0.569704 0.001086 0.506629 -0.028331
C42   C     C_R   0.662983 0.099528 0.525254 -0.206385
C43   C     C_R   0.447302 0.956982 0.519393 -0.049816
C44   C     C_R   0.427467 0.985002 0.562245 -0.214968
C45   C     C_R   0.961713 0.388213 0.832338 0.695724
C46   C     C_R   0.528719 0.069170 0.586809 0.432522
C47   C     C_R   0.644630 0.125162 0.568596 0.319190
C48   C     C_R   0.344717 0.887755 0.489900 0.319640
C49   C     C_R   0.208713 0.850533 0.551634 0.305353
C50   C     C_R   0.773450 0.164360 0.501291 -0.058652
C51   C     C_R   0.349400 0.337501 0.586562 0.302540
C52   C     C_R   0.756154 0.637556 0.428827 0.477303
C53   C     C_R   0.645740 0.641177 0.406217 0.208150
C54   C     C_R   0.537841 0.571670 0.429843 0.454389
C55   C     C_R   0.544221 0.516538 0.480281 -0.137089
C56   C     C_R   0.059874 0.594732 0.816814 0.694647
C57   C     C_R   0.652258 0.502761 0.498211 0.082072
C58   C     C_R   0.445731 0.468126 0.511974 -0.138622
C59   C     C_R   0.451114 0.394888 0.557867 -0.062150
C60   C     C_R   0.559235 0.382192 0.574651 0.444020
C61   C     C_R   0.652297 0.427762 0.543013 -0.198685
C62   C     C_R   0.347676 0.498887 0.501788 0.471109
C63   C     C_R   0.244450 0.355656 0.569271 0.376622
C64   C     C_R   0.917640 0.519103 0.715221 0.438205
C65   C     C_R   0.918794 0.529325 0.663480 0.272060
C66   C     C_R   0.087050 0.475437 0.680175 -0.221152
Cu1   Cu    Cu3+1 0.098270 0.475420 0.511360 1.058325
Cu2   Cu    Cu3+1 0.901730 0.524580 0.488640 1.055313
H1    H     H_    0.152650 0.456817 0.667846 0.234394
H2    H     H_    0.148900 0.781038 0.949098 0.217605
H3    H     H_    0.740836 0.966151 0.434712 0.183604
H4    H     H_    0.722587 0.400756 0.554518 0.216948
H5    H     H_    0.881017 0.201423 0.993314 0.220473
N1    N     N_R   0.009581 0.491518 0.800677 -0.446945
N2    N     N_R   0.001954 0.492175 0.203465 -0.419967
N3    N     N_R   0.246290 0.438210 0.528570 -0.287477
N4    N     N_R   0.754320 0.561170 0.471730 -0.221186
O1    O     O_R   0.972510 0.318140 0.514280 -0.487087
O2    O     O_2   0.005776 0.313462 0.227866 -0.421983
O3    O     O_2   0.106305 0.693296 0.783489 -0.396734
O4    O     O_2   0.987028 0.666368 0.182765 -0.457789
O5    O     O_R   0.806530 0.359640 0.495100 -0.612515
O6    O     O_R   0.082990 0.479270 0.579320 -0.549358
O7    O     O_R   0.917010 0.520770 0.560140 -0.586162
O8    O     O_R   0.193470 0.640360 0.504900 -0.602894
O9    O     O_R   0.027490 0.681860 0.485720 -0.492304
O10   O     O_R   0.082990 0.479230 0.439860 -0.591705
O11   O     O_R   0.917010 0.520730 0.420680 -0.510454
O12   O     O_2   0.913407 0.289824 0.813710 -0.390033
O13   O     O_3   0.835534 0.538353 0.734764 -0.652388
H6    H     H_    0.776448 0.552085 0.707884 0.396553
Cl1   Cl    Cl    0.190731 0.841254 0.850606 -0.354511
Cl2   Cl    Cl    0.977044 0.786174 0.986903 -0.417150
O14   O     O_3   0.215186 0.626966 0.359391 -0.693645
H7    H     H_    0.287587 0.638613 0.344510 0.401420
O15   O     O_3   0.014972 0.779901 0.092339 -0.585210
H8    H     H_    0.088584 0.810979 0.115921 0.365259
O16   O     O_3   0.211047 0.631114 0.254459 -0.665809
H9    H     H_    0.259624 0.703655 0.267978 0.364915
O17   O     O_3   0.092233 0.790265 0.567683 -0.721591
H10   H     H_    0.081655 0.833974 0.589145 0.374473
O18   O     O_3   0.516695 0.103610 0.627432 -0.564030
H11   H     H_    0.447274 0.124042 0.617856 0.393336
Cl3   Cl    Cl    0.285177 0.916215 0.642338 -0.438344
Cl4   Cl    Cl    0.201841 0.440694 0.771840 -0.433399
O19   O     O_3   0.359115 0.882825 0.442434 -0.641433
H12   H     H_    0.277647 0.843579 0.424447 0.341353
O20   O     O_3   0.905960 0.182105 0.443033 -0.696221
H13   H     H_    0.909026 0.137722 0.419736 0.345528
O21   O     O_3   0.540379 0.831354 0.474930 -0.624339
H14   H     H_    0.492709 0.790672 0.504410 0.353580
Cl5   Cl    Cl    0.769240 0.211088 0.606880 -0.543327
Cl6   Cl    Cl    0.110775 0.270701 0.601005 -0.488558
O22   O     O_3   0.576560 0.331757 0.623306 -0.599935
H15   H     H_    0.661820 0.340838 0.630576 0.381672
O23   O     O_3   0.352335 0.260106 0.629595 -0.606073
H16   H     H_    0.293933 0.250764 0.652048 0.394518
O24   O     O_3   0.364249 0.599667 0.469194 -0.643701
H17   H     H_    0.284215 0.594938 0.454673 0.405576
O25   O     O_3   0.865085 0.701998 0.406861 -0.661309
H18   H     H_    0.857989 0.762772 0.379723 0.357900
Cl7   Cl    Cl    0.842738 0.141309 0.902151 -0.360794
O26   O     O_3   0.428457 0.548607 0.400618 -0.625965
H19   H     H_    0.366900 0.470512 0.414322 0.332835
Cl8   Cl    Cl    0.636165 0.719508 0.345694 -0.449822
O27   O     O_3   0.785798 0.368967 0.354202 -0.676343
H20   H     H_    0.715921 0.323136 0.332379 0.391219
Cl9   Cl    Cl    0.756038 0.347440 0.243007 -0.482293
Cl10  Cl    Cl    0.050223 0.200585 0.170513 -0.418486
O28   O     O_3   0.026972 0.219371 0.060802 -0.669869
H21   H     H_    0.992518 0.146088 0.084694 0.388571
O29   O     O_3   0.839049 0.565323 0.631612 -0.718428
H22   H     H_    0.888235 0.630697 0.606706 0.378716

loop_
_geom_bond_atom_site_label_1
_geom_bond_atom_site_label_2
_ccdc_geom_bond_type
C10   C27   A    
C58   C62   A    
C21   C26   A    
C8    C66   A    
O27   H20   S    
Cu2   O9    S    
C41   C42   A    
C54   C55   A    
C60   O22   S    
C64   O13   S    
C54   O26   S    
O22   H15   S    
O26   H19   S    
C53   C54   A    
O25   H18   S    
Cu1   O6    S    
C46   O18   S    
C28   C29   A    
C7    C31   A    
C14   O28   S    
C5    C6    A    
C9    C22   A    
C22   O27   S    
C66   H1    S    
C63   N3    A    
C15   C16   A    
C11   C13   A    
O20   H13   S    
C12   O7    A    
C18   C19   A    
C3    N1    S    
O24   H17   S    
O21   H14   S    
C48   O19   S    
C35   H2    S    
O29   H22   S    
C23   O9    A    
C45   O12   S    
C1    C50   S    
C16   C20   A    
C42   C47   A    
C32   Cl2   S    
C59   C60   A    
C21   C22   A    
C27   C30   A    
C1    O1    A    
C41   C43   A    
C62   N3    A    
O18   H11   S    
Cu1   O1    S    
C7    C56   A    
C4    C7    A    
C4    C28   A    
C44   C46   A    
C26   N2    S    
Cu1   O8    S    
C56   N1    A    
Cu1   Cu2   S    
Cu2   O7    S    
C57   N4    A    
C51   C63   A    
C24   C25   A    
C10   C14   A    
C39   C40   A    
C30   H5    S    
C16   C17   A    
C40   O21   S    
C25   C26   A    
C23   C37   S    
C5    C45   A    
C20   N2    A    
C60   C61   A    
C21   Cl9   S    
C43   C44   A    
C24   O14   S    
C37   C49   A    
C15   Cl10  S    
C8    C12   S    
O15   H8    S    
C17   C18   A    
C34   O11   A    
O19   H12   S    
C37   C48   A    
C11   C29   A    
C53   Cl8   S    
C42   C50   A    
C52   O25   S    
C61   H4    S    
C40   C41   A    
C6    C30   A    
C11   C32   A    
O16   H9    S    
C55   C57   A    
C9    C34   S    
Cu2   O11   S    
C31   C35   A    
C36   C44   A    
C51   C59   A    
C6    Cl7   S    
C52   N4    A    
C33   O15   S    
C65   O29   S    
C52   C53   A    
C43   C48   A    
Cu2   N4    S    
C46   C47   A    
C20   O2    S    
C4    C5    A    
C2    C66   A    
C10   C13   A    
C9    C24   A    
C57   C61   A    
C38   C50   A    
C3    C64   A    
C29   C35   A    
C2    Cl4   S    
Cu1   O10   S    
C51   O23   S    
C56   O3    S    
C13   C17   A    
C36   Cl3   S    
Cu2   O5    S    
C64   C65   A    
C19   N2    A    
C2    C3    A    
C58   C59   A    
C32   C33   A    
C49   O17   S    
C1    O5    A    
O13   H6    S    
C38   C39   A    
O17   H10   S    
O23   H16   S    
O28   H21   S    
C34   O10   A    
C38   O20   S    
O14   H7    S    
C18   C33   A    
C62   O24   S    
C63   Cl6   S    
C25   O16   S    
C8    C65   A    
C12   O6    A    
C31   Cl1   S    
C23   O8    A    
C55   C58   A    
C27   C28   A    
C39   H3    S    
C14   C15   A    
C45   N1    A    
Cu1   N3    S    
C19   O4    S    
C36   C49   A    
C47   Cl5   S    
