data_mof_unit_41571.cif
_audit_creation_date              2012-12-10T16:56:29-0500
_audit_creation_method            fapswitch 2.2
_symmetry_space_group_name_H-M    P1
_symmetry_Int_Tables_number       1
_space_group_crystal_system       triclinic
_cell_length_a                    7.740131
_cell_length_b                    8.691629
_cell_length_c                    15.544239
_cell_angle_alpha                 88.140649
_cell_angle_beta                  88.04918
_cell_angle_gamma                 92.996877
_cell_volume                      1043.0792537

loop_
_atom_site_label
_atom_site_type_symbol
_atom_type_description
_atom_site_fract_x
_atom_site_fract_y
_atom_site_fract_z
_atom_type_partial_charge
C1    C     C_R   0.545047 0.794085 0.497151 0.875208
C2    C     C_3   0.410480 0.385398 0.047709 0.175129
C3    C     C_1   0.512296 0.458661 0.750967 -0.198560
C4    C     C_1   0.486316 0.538595 0.248978 -0.203152
C5    C     C_3   0.335393 0.472852 0.971172 0.187458
C6    C     C_3   0.655606 0.520021 0.029533 0.183641
C7    C     C_3   0.505646 0.452010 0.918702 -0.085439
C8    C     C_3   0.484658 0.539887 0.081609 -0.109535
C9    C     C_1   0.514103 0.441227 0.826890 -0.014451
C10   C     C_1   0.481119 0.553340 0.173096 -0.026769
C11   C     C_3   0.769097 0.842092 0.931034 -0.831627
C12   C     C_R   0.455333 0.205745 0.497799 0.955603
C13   C     C_3   0.232181 0.143925 0.063061 -0.811979
C14   C     C_3   0.282529 0.839874 0.927273 -0.847500
C15   C     C_3   0.687453 0.138715 0.072768 -0.836418
C16   C     C_3   0.905151 0.464897 0.119894 -0.724073
C17   C     C_3   0.127403 0.342739 0.875489 -0.775595
C18   C     C_3   0.871660 0.028184 0.519373 -0.650868
C19   C     C_3   0.248891 0.105859 0.355822 -0.792939
C20   C     C_R   0.503910 0.489285 0.662174 0.899519
C21   C     C_R   0.496017 0.510659 0.337853 0.881167
C22   C     C_2   0.566977 0.955501 0.505461 -0.070785
C23   C     C_2   0.440541 0.046111 0.476689 -0.015052
C24   C     C_3   0.409337 0.626079 0.004464 0.105171
C25   C     C_3   0.582412 0.365663 0.996258 0.150481
C26   C     C_3   0.579357 0.606745 0.952705 0.151681
H1    H     H_    0.597047 0.753407 0.842859 0.231618
H2    H     H_    0.396629 0.914525 0.904423 0.240885
H3    H     H_    0.171078 0.913683 0.934954 0.246833
H4    H     H_    0.251346 0.754501 0.877736 0.255060
H5    H     H_    0.638303 0.157475 0.941545 0.224056
H6    H     H_    0.578901 0.050941 0.082052 0.234731
H7    H     H_    0.684295 0.213934 0.128854 0.251561
H8    H     H_    0.811182 0.079870 0.072254 0.244933
H9    H     H_    0.827784 0.678265 0.082080 0.230561
H10   H     H_    0.028945 0.520398 0.140341 0.246908
H11   H     H_    0.937236 0.358444 0.087685 0.287205
H12   H     H_    0.795727 0.938326 0.882862 0.235659
H13   H     H_    0.820291 0.439107 0.178075 0.231545
H14   H     H_    0.087622 0.544154 0.941247 0.273478
H15   H     H_    0.989296 0.300863 0.878793 0.253580
H16   H     H_    0.208655 0.241526 0.881096 0.242915
H17   H     H_    0.154734 0.403718 0.812272 0.248210
H18   H     H_    0.701098 0.949414 0.618449 0.208579
H19   H     H_    0.959109 0.094735 0.561369 0.231534
H20   H     H_    0.867711 0.091836 0.456394 0.240456
H21   H     H_    0.925790 0.914140 0.509164 0.238112
H22   H     H_    0.351376 0.897560 0.381549 0.240667
H23   H     H_    0.894809 0.800734 0.950966 0.266020
H24   H     H_    0.171521 0.045918 0.306807 0.232312
H25   H     H_    0.355734 0.176534 0.322015 0.222130
H26   H     H_    0.160790 0.180017 0.390737 0.256426
H27   H     H_    0.014122 0.388527 0.435984 0.183696
H28   H     H_    0.985757 0.612849 0.563393 0.195141
H29   H     H_    0.696396 0.883439 0.987140 0.251867
H30   H     H_    0.381547 0.241099 0.157845 0.228414
H31   H     H_    0.321396 0.100673 0.013576 0.253995
H32   H     H_    0.113208 0.178858 0.032214 0.276035
H33   H     H_    0.194736 0.050508 0.111603 0.231112
H34   H     H_    0.363581 0.839300 0.054143 0.229070
N1    N     N_2   0.950320 0.457950 0.477300 -0.172462
N2    N     N_2   0.317880 0.993362 0.414409 -0.303634
N3    N     N_2   0.049680 0.542050 0.522700 -0.170223
N4    N     N_2   0.669996 0.718577 0.893459 -0.280963
N5    N     N_2   0.314926 0.272690 0.104389 -0.286023
N6    N     N_2   0.315912 0.765238 0.009281 -0.294757
N7    N     N_2   0.673631 0.224869 0.992002 -0.290685
N8    N     N_2   0.824797 0.567366 0.060445 -0.296137
N9    N     N_2   0.158447 0.447294 0.944405 -0.281562
N10   N     N_2   0.700417 0.010063 0.560287 -0.303742
O1    O     O_R   0.389250 0.738570 0.505570 -0.618670
O2    O     O_R   0.610750 0.261430 0.494430 -0.598234
O3    O     O_R   0.678390 0.711630 0.491020 -0.620541
O4    O     O_R   0.321610 0.288370 0.508980 -0.633693
O5    O     O_R   0.355460 0.513480 0.630490 -0.613966
O6    O     O_R   0.644540 0.486520 0.369510 -0.615967
O7    O     O_R   0.644600 0.486540 0.615950 -0.613078
O8    O     O_R   0.355400 0.513460 0.384050 -0.622105
Zn1   Zn    Zn3+2 0.306940 0.517990 0.509710 0.936788
Zn2   Zn    Zn3+2 0.693060 0.482010 0.490290 0.944034

loop_
_geom_bond_atom_site_label_1
_geom_bond_atom_site_label_2
_ccdc_geom_bond_type
C18   N10   S    
C17   N9    S    
C12   O4    A    
C25   N7    S    
C2    N5    S    
C18   H21   S    
O1    Zn1   S    
C15   H6    S    
C13   N5    S    
H5    N7    S    
C12   C23   S    
C1    O1    A    
C7    C26   S    
C20   O7    A    
C3    C9    T    
C24   C26   S    
C6    C25   S    
C13   H31   S    
H28   N3    S    
N1    Zn2   S    
H30   N5    S    
N1    N3    D    
C26   N4    S    
C17   H16   S    
C5    N9    S    
H27   N1    S    
C19   H26   S    
C23   N2    S    
C21   O8    A    
H18   N10   S    
C16   N8    S    
C15   H8    S    
C24   N6    S    
C16   H11   S    
C6    N8    S    
C12   O2    A    
H34   N6    S    
C1    C22   S    
C14   H4    S    
C18   H20   S    
H14   N9    S    
C11   N4    S    
C5    C7    S    
O8    Zn1   S    
C6    C8    S    
C13   H32   S    
C20   O5    A    
C11   H12   S    
C17   H17   S    
C11   H23   S    
H22   N2    S    
C21   O6    A    
C15   N7    S    
C14   N6    S    
C3    C20   S    
C13   H33   S    
O4    Zn1   S    
C2    C5    S    
C14   H3    S    
C4    C10   T    
C18   H19   S    
C11   H29   S    
O7    Zn2   S    
C7    C9    S    
C2    C8    S    
O6    Zn2   S    
N3    Zn1   S    
C7    C25   S    
C1    O3    A    
O2    Zn2   S    
C16   H10   S    
C4    C21   S    
C19   H24   S    
C6    C26   S    
C5    C24   S    
H9    N8    S    
C8    C24   S    
O3    Zn2   S    
C15   H7    S    
C2    C25   S    
C17   H15   S    
H1    N4    S    
C16   H13   S    
C19   H25   S    
C8    C10   S    
C22   C23   D    
C19   N2    S    
C14   H2    S    
O5    Zn1   S    
C22   N10   S    
