data_mof_unit_19931.cif
_audit_creation_date              2012-10-26T20:17:11-0400
_audit_creation_method            fapswitch 2.2
_symmetry_space_group_name_H-M    P1
_symmetry_Int_Tables_number       1
_space_group_crystal_system       triclinic
_cell_length_a                    10.659461
_cell_length_b                    10.982456
_cell_length_c                    9.796638
_cell_angle_alpha                 109.730555
_cell_angle_beta                  98.777795
_cell_angle_gamma                 90.348357
_cell_volume                      1064.84111977

loop_
_atom_site_label
_atom_site_type_symbol
_atom_type_description
_atom_site_fract_x
_atom_site_fract_y
_atom_site_fract_z
_atom_type_partial_charge
C1    C     C_R   0.498476 0.254655 0.443579 0.556034
C2    C     C_3   0.123802 0.502228 0.501730 0.021573
C3    C     C_3   0.971697 0.615028 0.587004 0.141268
C4    C     C_3   0.028625 0.388025 0.412381 0.143854
C5    C     C_2   0.513110 0.117198 0.419591 -0.113145
C6    C     C_2   0.526015 0.883227 0.583625 -0.103470
C7    C     C_2   0.571612 0.072959 0.525150 -0.020760
C8    C     C_2   0.572602 0.932758 0.491588 -0.009209
C9    C     C_2   0.513396 0.506746 0.080003 -0.032638
C10   C     C_2   0.490100 0.488945 0.918682 -0.034366
C11   C     C_3   0.927222 0.302623 0.604425 -0.387842
C12   C     C_R   0.513459 0.745220 0.556851 0.553664
C13   C     C_3   0.077102 0.699074 0.394506 -0.382716
C14   C     C_3   0.038301 0.827299 0.773513 -0.312230
C15   C     C_3   0.960742 0.177454 0.222973 -0.313208
C16   C     C_3   0.626164 0.851898 0.357423 -0.373022
C17   C     C_3   0.630493 0.158629 0.679369 -0.362530
C18   C     C_R   0.259759 0.500827 0.500839 0.561550
C19   C     C_R   0.740392 0.500291 0.499255 0.552387
C20   C     C_3   0.060867 0.523917 0.639713 -0.124648
C21   C     C_3   0.939478 0.479161 0.359801 -0.126377
C22   C     C_3   0.965188 0.407994 0.547880 0.000178
C23   C     C_3   0.035547 0.594967 0.451534 -0.004231
C24   C     C_3   0.876528 0.500498 0.497935 0.021708
Cu1   Cu    Cu3+1 0.522260 0.521810 0.644920 0.909885
Cu2   Cu    Cu3+1 0.477740 0.478190 0.355080 0.913730
H1    H     H_    0.111463 0.542590 0.753302 0.113520
H2    H     H_    0.896824 0.348061 0.712803 0.124472
H3    H     H_    0.847856 0.238927 0.525910 0.126027
H4    H     H_    0.996713 0.760411 0.382513 0.135607
H5    H     H_    0.158852 0.760164 0.471559 0.128489
H6    H     H_    0.106718 0.652530 0.285831 0.135476
H7    H     H_    0.863999 0.728069 0.737562 0.261668
H8    H     H_    0.000281 0.921326 0.831577 0.133481
H9    H     H_    0.107264 0.845166 0.707396 0.157496
H10   H     H_    0.087701 0.788210 0.856733 0.134293
H11   H     H_    0.137057 0.273962 0.263259 0.262580
H12   H     H_    0.888753 0.460617 0.246294 0.111122
H13   H     H_    0.997512 0.082311 0.166397 0.134213
H14   H     H_    0.915281 0.217246 0.138534 0.131389
H15   H     H_    0.888645 0.161610 0.286661 0.157416
H16   H     H_    0.677997 0.914514 0.313281 0.109181
H17   H     H_    0.694805 0.785158 0.386141 0.146476
H18   H     H_    0.547677 0.796495 0.269702 0.141927
H19   H     H_    0.687524 0.101951 0.738594 0.113234
H20   H     H_    0.695880 0.235701 0.676132 0.151638
H21   H     H_    0.554802 0.202219 0.743623 0.144464
H22   H     H_    0.495727 0.947193 0.683000 0.083161
H23   H     H_    0.475444 0.048997 0.310977 0.091153
H24   H     H_    0.415961 0.418394 0.846450 0.146919
H25   H     H_    0.590913 0.573291 0.150978 0.140583
H26   H     H_    0.625497 0.621087 0.933596 0.197016
H27   H     H_    0.371196 0.382677 0.067476 0.197617
H28   H     H_    0.009750 0.244094 0.617408 0.142397
N1    N     N_2   0.444270 0.445410 0.137360 -0.354708
N2    N     N_2   0.555730 0.554590 0.862640 -0.357646
N3    N     N_2   0.934644 0.738060 0.680402 -0.515233
N4    N     N_2   0.064820 0.264674 0.318647 -0.512251
O1    O     O_R   0.511880 0.332340 0.577400 -0.495724
O2    O     O_R   0.488120 0.667660 0.422600 -0.491551
O3    O     O_R   0.474280 0.295500 0.332650 -0.493234
O4    O     O_R   0.525720 0.704500 0.667350 -0.494772
O5    O     O_R   0.335640 0.518390 0.622350 -0.499633
O6    O     O_R   0.664360 0.481610 0.377650 -0.507080
O7    O     O_R   0.298050 0.481550 0.377590 -0.501032
O8    O     O_R   0.701950 0.518450 0.622410 -0.505589

loop_
_geom_bond_atom_site_label_1
_geom_bond_atom_site_label_2
_ccdc_geom_bond_type
C14   H8    S    
C2    C4    S    
C13   C23   S    
Cu1   O1    S    
C9    N1    D    
C20   H1    S    
C6    C8    D    
C2    C18   S    
C4    C22   S    
C9    C10   S    
C16   H18   S    
C13   H6    S    
C3    C23   S    
H11   N4    S    
C9    H25   S    
Cu1   N2    S    
C19   O6    A    
C15   H13   S    
Cu2   N1    S    
H27   N1    S    
C19   C24   S    
C7    C8    S    
C8    C16   S    
C18   O7    A    
C6    C12   S    
C4    C21   S    
C16   H17   S    
C5    H23   S    
C3    C24   S    
C11   H28   S    
C6    H22   S    
C11   H2    S    
C1    C5    S    
H26   N2    S    
C3    N3    S    
C12   O2    A    
C10   N2    D    
Cu2   O3    S    
C17   H19   S    
C13   H5    S    
Cu1   O4    S    
C21   C23   S    
C14   H10   S    
C15   H14   S    
C15   N4    S    
C22   C24   S    
C18   O5    A    
C21   H12   S    
C15   H15   S    
C2    C20   S    
C10   H24   S    
C16   H16   S    
C13   H4    S    
C3    C20   S    
C12   O4    A    
C17   H20   S    
C11   H3    S    
C19   O8    A    
Cu1   O5    S    
C21   C24   S    
C4    N4    S    
C2    C23   S    
C5    C7    D    
C14   N3    S    
Cu2   O6    S    
H7    N3    S    
C11   C22   S    
Cu1   Cu2   S    
Cu2   O7    S    
Cu2   O2    S    
C14   H9    S    
Cu1   O8    S    
C17   H21   S    
C20   C22   S    
C1    O1    A    
C7    C17   S    
C1    O3    A    
