data_mof_unit_19413.cif
_audit_creation_date              2012-12-11T15:09:36-0500
_audit_creation_method            fapswitch 2.2
_symmetry_space_group_name_H-M    P1
_symmetry_Int_Tables_number       1
_space_group_crystal_system       triclinic
_cell_length_a                    20.911576
_cell_length_b                    7.128955
_cell_length_c                    14.030699
_cell_angle_alpha                 90.000015
_cell_angle_beta                  98.072833
_cell_angle_gamma                 89.999982
_cell_volume                      2070.93646747

loop_
_atom_site_label
_atom_site_type_symbol
_atom_type_description
_atom_site_fract_x
_atom_site_fract_y
_atom_site_fract_z
_atom_type_partial_charge
O1    O     O_R   0.447130 0.507140 0.597350 -0.537034
O2    O     O_R   0.552870 0.007140 0.402650 -0.537034
O3    O     O_R   0.578910 0.181280 0.586990 -0.538719
O4    O     O_R   0.421090 0.681280 0.413010 -0.538719
C1    C     C_R   0.604493 0.344490 0.607375 0.725884
C2    C     C_R   0.395507 0.844490 0.392625 0.725884
O5    O     O_R   0.449230 0.177860 0.608640 -0.540861
O6    O     O_R   0.550770 0.677860 0.391360 -0.540861
O7    O     O_R   0.422260 0.000770 0.424450 -0.534927
O8    O     O_R   0.577740 0.500770 0.575550 -0.534927
C3    C     C_R   0.432937 0.346329 0.634732 0.690142
C4    C     C_R   0.567063 0.846329 0.365268 0.690142
O9    O     O_3   0.491310 0.336980 0.439550 -0.374744
O10   O     O_3   0.508690 0.836980 0.560450 -0.374744
V1    V     V_3+5 0.501610 0.064760 0.511210 1.428798
V2    V     V_3+5 0.498390 0.564760 0.488790 1.428798
C5    C     C_R   0.620627 0.878917 0.121864 -0.161549
C6    C     C_R   0.379373 0.378923 0.878135 -0.161549
H1    H     H_    0.528913 0.874152 0.173788 0.104131
H2    H     H_    0.471087 0.374159 0.826211 0.104131
H3    H     H_    0.705225 0.894612 0.998240 0.124059
H4    H     H_    0.294775 0.394620 0.001760 0.124059
H5    H     H_    0.598608 0.890245 0.047405 0.114257
H6    H     H_    0.401392 0.390254 0.952595 0.114257
C7    C     C_R   0.608154 0.855139 0.289679 -0.027252
C8    C     C_R   0.391846 0.355139 0.710321 -0.027252
C9    C     C_R   0.922527 0.844596 0.307146 0.343141
C10   C     C_R   0.077473 0.344593 0.692854 0.343141
C11   C     C_R   0.884663 0.835122 0.381734 -0.201310
C12   C     C_R   0.115337 0.335117 0.618266 -0.201310
C13   C     C_R   0.817559 0.839662 0.362097 -0.199916
C14   C     C_R   0.182441 0.339658 0.637903 -0.199916
C15   C     C_R   0.785526 0.854026 0.266539 0.080465
C16   C     C_R   0.214474 0.354025 0.733461 0.080465
C17   C     C_R   0.823903 0.863907 0.190493 -0.005433
C18   C     C_R   0.176097 0.363908 0.809507 -0.005433
C19   C     C_R   0.716746 0.858895 0.243911 0.087283
C20   C     C_R   0.283254 0.358895 0.756089 0.087283
C21   C     C_R   0.688075 0.873694 0.146054 0.138509
C22   C     C_R   0.311925 0.373698 0.853945 0.138509
C23   C     C_R   0.726759 0.883276 0.072945 -0.195776
C24   C     C_R   0.273241 0.383282 0.927055 -0.195776
C25   C     C_R   0.793510 0.878463 0.094581 -0.179258
C26   C     C_R   0.206490 0.378467 0.905419 -0.179258
C27   C     C_R   0.675153 0.849679 0.314933 -0.213873
C28   C     C_R   0.324846 0.349677 0.685067 -0.213873
C29   C     C_R   0.580884 0.869757 0.193402 -0.175132
C30   C     C_R   0.419116 0.369761 0.806598 -0.175133
C31   C     C_R   0.892155 0.858970 0.211692 -0.109563
C32   C     C_R   0.107845 0.358969 0.788308 -0.109563
H7    H     H_    0.692920 0.838402 0.390580 0.096840
H8    H     H_    0.307080 0.338396 0.609421 0.096840
H9    H     H_    0.792378 0.831601 0.423796 0.129839
H10   H     H_    0.207621 0.331597 0.576204 0.129839
H11   H     H_    0.907222 0.824012 0.455885 0.126000
H12   H     H_    0.092778 0.324005 0.544115 0.126000
H13   H     H_    0.821118 0.886373 0.034963 0.115039
H14   H     H_    0.178882 0.386379 0.965037 0.115039
C33   C     C_1   0.166572 0.857112 0.168366 -0.175825
C34   C     C_1   0.833428 0.357112 0.831634 -0.175825
C35   C     C_1   0.218967 0.854849 0.219487 0.006340
C36   C     C_1   0.781033 0.354849 0.780513 0.006340
C37   C     C_1   0.280719 0.853413 0.279513 0.002761
C38   C     C_1   0.719280 0.353413 0.720487 0.002760
C39   C     C_1   0.333090 0.851100 0.330706 -0.197441
C40   C     C_1   0.666909 0.351100 0.669294 -0.197441
O11   O     O_R   0.922300 0.202240 0.924350 -0.535543
O12   O     O_R   0.077700 0.702240 0.075650 -0.535544
O13   O     O_R   0.050780 0.535130 0.891350 -0.542001
O14   O     O_R   0.949220 0.035130 0.108650 -0.542001
C41   C     C_R   0.067403 0.368000 0.865406 0.757544
C42   C     C_R   0.932597 0.868000 0.134593 0.757545
O15   O     O_R   0.921100 0.531560 0.912990 -0.539033
O16   O     O_R   0.078900 0.031560 0.087010 -0.539033
O17   O     O_R   0.947120 0.708470 0.097370 -0.539916
O18   O     O_R   0.052880 0.208470 0.902630 -0.539915
C43   C     C_R   0.895886 0.363552 0.893426 0.736657
C44   C     C_R   0.104114 0.863552 0.106574 0.736656
O19   O     O_3   0.008710 0.375800 0.060400 -0.377328
O20   O     O_3   0.991290 0.875800 0.939600 -0.377328
V3    V     V_3+5 0.998380 0.648080 0.988790 1.464855
V4    V     V_3+5 0.001620 0.148080 0.011210 1.464855
O21   O     O_3   0.989201 0.840032 0.325573 -0.656094
H15   H     H_    0.002713 0.829672 0.396018 0.285985
O22   O     O_3   0.010799 0.340028 0.674427 -0.656093
H16   H     H_    0.997287 0.329666 0.603982 0.285985

loop_
_geom_bond_atom_site_label_1
_geom_bond_atom_site_label_2
_ccdc_geom_bond_type
C20   C22   A    
C37   C39   T    
C9    C11   A    
O11   C43   A    
O2    C4    A    
C2    O7    A    
C18   C32   A    
C21   C23   A    
O22   H16   S    
O5    C3    A    
C5    H5    S    
C6    H6    S    
O12   V3    S    
C41   O18   A    
O20   V3    S    
H1    C29   S    
C27   H7    S    
C28   H8    S    
C34   C36   T    
C5    C21   A    
C14   H10   S    
O13   C41   A    
C6    C22   A    
C36   C38   S    
C10   C32   A    
C2    C39   S    
C26   H14   S    
C31   C42   S    
O1    C3    A    
C17   C31   A    
C13   C15   A    
C17   C25   A    
C7    C29   A    
C8    C30   A    
C22   C24   A    
O6    V2    S    
C23   C25   A    
C24   C26   A    
O16   V4    S    
C42   O17   A    
C33   C44   S    
O15   V3    S    
O12   C44   A    
C34   C43   S    
C33   C35   T    
O20   V4    S    
O18   V4    S    
O19   V3    S    
C25   H13   S    
O17   V3    S    
O5    V1    S    
C11   H11   S    
C3    C8    S    
C12   H12   S    
C15   C19   A    
C14   C16   A    
O4    V2    S    
C32   C41   S    
O21   H15   S    
O6    C4    A    
C35   C37   S    
O1    V2    S    
C13   H9    S    
O2    V1    S    
H2    C30   S    
H3    C23   S    
O4    C2    A    
C18   C26   A    
C19   C27   A    
C7    C27   A    
O3    V1    S    
C16   C20   A    
C5    C29   A    
C1    C40   S    
O3    C1    A    
C6    C30   A    
O19   V4    S    
C4    C7    S    
C10   C12   A    
O7    V1    S    
C1    O8    A    
C11   C13   A    
O8    V2    S    
C12   C14   A    
H4    C24   S    
C9    O21   S    
C15   C17   A    
C16   C18   A    
O14   V4    S    
C20   C28   A    
O13   V3    S    
C8    C28   A    
O11   V4    S    
C19   C21   A    
O16   C44   A    
O9    V2    S    
C10   O22   S    
O15   C43   A    
O10   V1    S    
O14   C42   A    
C9    C31   A    
C38   C40   T    
