data_mof_unit_50665.cif
_audit_creation_date              2012-10-26T19:20:40-0400
_audit_creation_method            fapswitch 2.2
_symmetry_space_group_name_H-M    P1
_symmetry_Int_Tables_number       1
_space_group_crystal_system       triclinic
_cell_length_a                    10.856001
_cell_length_b                    11.049347
_cell_length_c                    9.871786
_cell_angle_alpha                 111.260553
_cell_angle_beta                  101.026887
_cell_angle_gamma                 90.367819
_cell_volume                      1079.44949335

loop_
_atom_site_label
_atom_site_type_symbol
_atom_type_description
_atom_site_fract_x
_atom_site_fract_y
_atom_site_fract_z
_atom_type_partial_charge
C1    C     C_R   0.490854 0.253876 0.440366 0.559303
C2    C     C_R   0.738073 0.489607 0.500815 0.541921
C3    C     C_R   0.165552 0.671155 0.756881 -0.084735
C4    C     C_R   0.834452 0.328853 0.243117 -0.084712
C5    C     C_R   0.135161 0.708372 0.896028 -0.133037
C6    C     C_R   0.864849 0.291635 0.103972 -0.133024
C7    C     C_R   0.025403 0.654148 0.912242 0.044236
C8    C     C_R   0.974611 0.345859 0.087764 0.044261
C9    C     C_R   0.940449 0.572090 0.784745 -0.044840
C10   C     C_R   0.059557 0.427921 0.215263 -0.044770
C11   C     C_R   0.964610 0.542990 0.640047 -0.006442
C12   C     C_R   0.509146 0.746124 0.559634 0.559300
C13   C     C_R   0.035392 0.457016 0.359958 -0.006457
C14   C     C_R   0.085975 0.579114 0.629804 0.015913
C15   C     C_R   0.914026 0.420891 0.370198 0.015907
C16   C     C_R   0.874246 0.476681 0.506193 -0.030700
C17   C     C_R   0.125755 0.523323 0.493810 -0.030708
C18   C     C_2   0.998062 0.316481 0.936663 0.220655
C19   C     C_2   0.001963 0.683530 0.063350 0.220630
C20   C     C_2   0.633156 0.670453 0.954831 0.413455
C21   C     C_2   0.366995 0.329463 0.045138 0.413346
C22   C     C_2   0.485941 0.114447 0.406582 -0.122347
C23   C     C_2   0.514060 0.885553 0.593418 -0.122337
C24   C     C_2   0.502319 0.069587 0.516598 -0.148737
C25   C     C_2   0.497684 0.930413 0.483402 -0.148747
C26   C     C_2   0.510437 0.508911 0.081958 0.056956
C27   C     C_2   0.489524 0.491152 0.918073 0.056999
C28   C     C_R   0.261927 0.510394 0.499186 0.541915
Cu1   Cu    Cu3+1 0.521920 0.521810 0.644910 0.951136
Cu2   Cu    Cu3+1 0.478080 0.478190 0.355090 0.951117
H1    H     H_    0.252034 0.715401 0.749537 0.146806
H2    H     H_    0.468916 0.048038 0.291119 0.126812
H3    H     H_    0.417352 0.418576 0.839214 0.194528
H4    H     H_    0.582552 0.581537 0.160848 0.194568
H5    H     H_    0.931973 0.250158 0.840726 0.108029
H6    H     H_    0.068036 0.749899 0.159278 0.108019
H7    H     H_    0.713037 0.696827 0.917164 0.140222
H8    H     H_    0.287179 0.302989 0.082778 0.140251
H9    H     H_    0.747969 0.284607 0.250456 0.146822
H10   H     H_    0.200043 0.775840 0.991913 0.105621
H11   H     H_    0.799970 0.224168 0.008085 0.105658
H12   H     H_    0.861100 0.525147 0.802420 0.171258
H13   H     H_    0.138901 0.474875 0.197596 0.171335
H14   H     H_    0.480697 0.864230 0.367766 0.180977
H15   H     H_    0.519307 0.135770 0.632234 0.181040
H16   H     H_    0.531084 0.951962 0.708880 0.126853
N1    N     N_2   0.445130 0.445420 0.137360 -0.281525
N2    N     N_2   0.554870 0.554580 0.862640 -0.281488
O1    O     O_R   0.511700 0.332340 0.577400 -0.499957
O2    O     O_2   0.909905 0.633378 0.083155 -0.529759
O3    O     O_2   0.605193 0.747636 0.066967 -0.553326
O4    O     O_2   0.395048 0.252315 0.933017 -0.553354
O5    O     O_R   0.488300 0.667660 0.422600 -0.500004
O6    O     O_R   0.474680 0.295500 0.332650 -0.508447
O7    O     O_R   0.525320 0.704500 0.667350 -0.508406
O8    O     O_R   0.338170 0.518410 0.622370 -0.497750
O9    O     O_R   0.661830 0.481590 0.377630 -0.497720
O10   O     O_R   0.301150 0.481570 0.377630 -0.536343
O11   O     O_R   0.698850 0.518430 0.622370 -0.536385
O12   O     O_2   0.090148 0.366589 0.916875 -0.529794

loop_
_geom_bond_atom_site_label_1
_geom_bond_atom_site_label_2
_ccdc_geom_bond_type
C27   N2    D    
C1    O6    A    
Cu1   Cu2   S    
Cu1   O8    S    
C28   O10   A    
C2    C16   S    
C18   H5    S    
C12   O5    A    
C14   C17   A    
C4    H9    S    
C13   C17   A    
C7    C9    A    
Cu2   O6    S    
C4    C15   A    
C13   C15   A    
C28   O8    A    
C2    O9    A    
C1    C22   S    
C23   H16   S    
Cu1   O1    S    
C27   H3    S    
C3    H1    S    
C20   H7    S    
C9    C11   A    
C12   C23   S    
C9    H12   S    
C20   N2    S    
C3    C14   A    
C22   H2    S    
C26   N1    D    
C24   H15   S    
Cu2   O10   S    
C25   H14   S    
C18   O12   D    
C11   C14   A    
C20   O3    D    
C7    C19   S    
C19   H6    S    
C23   C25   D    
C26   C27   S    
Cu2   O5    S    
C22   C24   D    
C12   O7    A    
Cu1   N2    S    
C15   C16   A    
Cu2   O9    S    
C19   O2    D    
Cu2   N1    S    
C24   C25   S    
C8    C10   A    
C4    C6    A    
C11   C16   A    
C5    H10   S    
C6    H11   S    
C5    C7    A    
C2    O11   A    
C6    C8    A    
Cu1   O7    S    
C3    C5    A    
C10   H13   S    
C17   C28   S    
C1    O1    A    
C26   H4    S    
C21   O4    D    
C8    C18   S    
C21   H8    S    
Cu1   O11   S    
C21   N1    S    
C10   C13   A    
