data_mof_unit_52314.cif
_audit_creation_date              2012-12-11T17:01:29-0500
_audit_creation_method            fapswitch 2.2
_symmetry_space_group_name_H-M    P1
_symmetry_Int_Tables_number       1
_space_group_crystal_system       triclinic
_cell_length_a                    15.106011
_cell_length_b                    14.85145
_cell_length_c                    14.936263
_cell_angle_alpha                 109.265532
_cell_angle_beta                  109.036019
_cell_angle_gamma                 109.808464
_cell_volume                      2589.04699956

loop_
_atom_site_label
_atom_site_type_symbol
_atom_type_description
_atom_site_fract_x
_atom_site_fract_y
_atom_site_fract_z
_atom_type_partial_charge
C1    C     C_R   0.013104 0.807493 0.103898 0.017881
C2    C     C_R   0.222424 0.747375 0.313114 0.733291
C3    C     C_R   0.895402 0.410506 0.203620 0.881166
C4    C     C_R   0.789266 0.198655 0.697650 -0.028971
C5    C     C_R   0.283875 0.590935 0.973673 0.482725
C6    C     C_R   0.915394 0.500736 0.289086 -0.296305
C7    C     C_R   0.283726 0.500128 0.906053 -0.047953
C8    C     C_R   0.323307 0.774481 0.323087 -0.307316
C9    C     C_R   0.048858 0.222689 0.050379 -0.133328
C10   C     C_3   0.468958 0.383910 0.851336 0.798127
C11   C     C_3   0.362040 0.387851 0.826243 0.960295
C12   C     C_R   0.697014 0.138243 0.696322 0.001349
C13   C     C_3   0.565662 0.534894 0.051534 0.679035
C14   C     C_3   0.554911 0.585864 0.895322 0.638022
C15   C     C_3   0.570300 0.504322 0.939769 -0.598537
C16   C     C_R   0.032068 0.594410 0.778874 -0.113314
C17   C     C_3   0.386790 0.501008 0.915281 -0.609175
C18   C     C_3   0.451382 0.515760 0.029429 0.461462
C19   C     C_3   0.460015 0.599576 0.906018 0.103660
C20   C     C_R   0.565233 0.943023 0.596087 0.088817
C21   C     C_R   0.602029 0.045578 0.602325 -0.314325
C22   C     C_R   0.538018 0.061895 0.523922 0.395272
C23   C     C_R   0.962424 0.503703 0.676543 -0.119235
C24   C     C_R   0.445350 0.971091 0.431692 0.750336
C25   C     C_R   0.417844 0.865781 0.419019 -0.118177
C26   C     C_R   0.472946 0.852876 0.504268 0.065601
C27   C     C_3   0.520477 0.779502 0.503351 -0.530248
C28   C     C_R   0.686304 0.410936 0.939751 -0.041287
C29   C     C_3   0.622321 0.879042 0.604614 0.736735
C30   C     C_R   0.854017 0.515947 0.423431 0.084251
C31   C     C_R   0.925398 0.503250 0.387676 0.115360
C32   C     C_R   0.019073 0.509204 0.455760 -0.198771
C33   C     C_R   0.033458 0.512443 0.553187 0.543440
C34   C     C_R   0.675111 0.504745 0.961757 0.042836
C35   C     C_R   0.952573 0.508834 0.581059 -0.017594
C36   C     C_R   0.867267 0.517739 0.519917 -0.156513
C37   C     C_3   0.748453 0.447689 0.473168 1.080517
C38   C     C_3   0.733779 0.446585 0.367131 -0.463110
C39   C     C_R   0.053081 0.031811 0.160198 -0.159246
C40   C     C_R   0.943876 0.410488 0.685546 0.887165
C41   C     C_R   0.110075 0.990723 0.117791 -0.001364
C42   C     C_R   0.184175 0.060390 0.099040 0.495407
C43   C     C_R   0.172826 0.147051 0.088477 -0.176040
C44   C     C_R   0.091283 0.166100 0.100415 0.039469
C45   C     C_R   0.983574 0.590882 0.291713 0.459476
C46   C     C_R   0.042514 0.117218 0.150219 -0.108870
C47   C     C_3   0.927857 0.066287 0.128992 1.374897
C48   C     C_3   0.940492 0.974443 0.141925 0.080177
C49   C     C_R   0.779303 0.594609 0.036209 0.846681
C50   C     C_R   0.699667 0.197427 0.790161 0.500111
C51   C     C_R   0.095949 0.806096 0.006274 -0.017503
C52   C     C_R   0.074285 0.872759 0.075505 0.010738
C53   C     C_R   0.198366 0.409569 0.889234 0.843311
C54   C     C_R   0.312359 0.747336 0.221222 0.755728
C55   C     C_R   0.977970 0.254871 0.068200 0.837385
C56   C     C_R   0.064584 0.248148 0.972830 -0.168051
Cl1   Cl    Cl    0.294233 0.699593 0.945749 -0.429232
Cl2   Cl    Cl    0.149594 0.514092 0.634319 -0.470265
Cl3   Cl    Cl    0.693374 0.517805 0.538749 -0.462425
Cl4   Cl    Cl    0.288362 0.041480 0.083988 -0.417163
Cl5   Cl    Cl    0.940182 0.973377 0.261603 -0.257393
Cl6   Cl    Cl    0.624519 0.139577 0.844587 -0.396314
Cl7   Cl    Cl    0.988297 0.717770 0.348325 -0.384022
Cl8   Cl    Cl    0.471193 0.313430 0.727911 -0.388165
Cl9   Cl    Cl    0.287670 0.365529 0.691538 -0.333981
Cl10  Cl    Cl    0.599836 0.457458 0.114508 -0.412009
Cl11  Cl    Cl    0.672212 0.717032 0.953489 -0.335481
Cl12  Cl    Cl    0.525082 0.538127 0.756151 -0.398643
Cl13  Cl    Cl    0.514513 0.734081 0.020329 -0.284365
Cl14  Cl    Cl    0.661776 0.674271 0.159842 -0.370810
Cl15  Cl    Cl    0.573374 0.193772 0.537531 -0.333762
F1    F     F_    0.136366 0.312258 0.794377 -0.582188
F2    F     F_    0.641481 0.868328 0.696679 -0.556897
F3    F     F_    0.719645 0.345005 0.464654 -0.574893
F4    F     F_    0.912998 0.128306 0.209247 -0.520135
F5    F     F_    0.851449 0.030575 0.024261 -0.642191
F6    F     F_    0.897939 0.307288 0.602574 -0.615304
F7    F     F_    0.812788 0.701645 0.097371 -0.614389
F8    F     F_    0.393585 0.774212 0.197440 -0.604873
F9    F     F_    0.960105 0.266175 0.152500 -0.649379
F10   F     F_    0.202690 0.775979 0.397270 -0.609494
F11   F     F_    0.811566 0.307735 0.158295 -0.546477
F12   F     F_    0.467606 0.314604 0.895201 -0.534503
F13   F     F_    0.295260 0.299033 0.829042 -0.502386
F14   F     F_    0.394770 0.425066 0.036537 -0.589956
F15   F     F_    0.383968 0.984633 0.353105 -0.595471
H1    H     H_    0.002718 0.836786 0.173705 0.224358
H2    H     H_    0.079001 0.507856 0.431296 0.179691
H3    H     H_    0.702500 0.363939 0.298790 0.274561
H4    H     H_    0.624104 0.326276 0.890893 0.255745
H5    H     H_    0.692918 0.492110 0.345937 0.240807
H6    H     H_    0.221007 0.192301 0.061880 0.209425
H7    H     H_    0.886051 0.893571 0.065873 0.162214
H8    H     H_    0.151022 0.831201 0.976939 0.188427
H9    H     H_    0.117294 0.237037 0.941137 0.217853
H10   H     H_    0.815712 0.169077 0.640900 0.223167
H11   H     H_    0.408961 0.599700 0.833079 0.239314
H12   H     H_    0.458214 0.586663 0.093743 0.144922
H13   H     H_    0.069506 0.679917 0.799638 0.184358
H14   H     H_    0.478001 0.713738 0.518646 0.271954
H15   H     H_    0.531691 0.750340 0.431237 0.199730
H16   H     H_    0.694406 0.907721 0.593916 0.033096
N1    N     N_R   0.995640 0.706130 0.053910 -0.077413
N2    N     N_R   0.054010 0.556790 0.847890 -0.091282
N3    N     N_R   0.789940 0.443190 0.997130 -0.125482
N4    N     N_R   0.997630 0.443170 0.791110 -0.143643
N5    N     N_R   0.846320 0.556810 0.053910 -0.151748
N6    N     N_R   0.791080 0.293860 0.847890 -0.123105
N7    N     N_R   0.052880 0.706130 0.997130 -0.068713
N8    N     N_R   0.002370 0.556830 0.208890 -0.175272
N9    N     N_R   0.153680 0.443190 0.946090 -0.189024
N10   N     N_R   0.208920 0.706140 0.152110 -0.151929
N11   N     N_R   0.947120 0.293870 0.002870 -0.129098
N12   N     N_R   0.004360 0.293870 0.946090 -0.096344
N13   N     N_R   0.151690 0.706140 0.208890 -0.162235
N14   N     N_R   0.945990 0.443210 0.152110 -0.177508
N15   N     N_R   0.210060 0.556810 0.002870 -0.171131
N16   N     N_R   0.848310 0.293860 0.791110 -0.099802
Ni1   Ni    Ni4+2 0.999010 0.630300 0.130220 0.304362
Ni2   Ni    Ni4+2 0.000990 0.369700 0.869780 0.296241
Ni3   Ni    Ni4+2 0.130280 0.630280 0.000000 0.300140
Ni4   Ni    Ni4+2 0.869720 0.369720 0.000000 0.330437

loop_
_geom_bond_atom_site_label_1
_geom_bond_atom_site_label_2
_ccdc_geom_bond_type
C1    H1    S    
C56   H9    S    
C37   F3    S    
C33   Cl2   S    
C6    C45   A    
C27   C29   S    
C41   C42   A    
C35   C36   A    
C3    C6    A    
N2    N4    A    
C19   H11   S    
C39   C41   A    
N3    N5    A    
C38   H3    S    
C26   C27   S    
N14   Ni4   S    
C13   C18   S    
C36   C37   S    
C47   F5    S    
C54   F8    S    
C3    N14   A    
C30   C31   A    
C29   F2    S    
C13   Cl14  S    
C23   C40   A    
C32   H2    S    
C10   F12   S    
C49   F7    S    
C30   C38   S    
N15   Ni3   S    
C17   C19   S    
C4    H10   S    
C16   N2    A    
N11   Ni4   S    
C31   C32   A    
C7    C17   S    
N3    Ni4   S    
C14   Cl11  S    
C9    C55   A    
C4    C12   A    
C1    N1    A    
C15   C34   S    
C20   C29   S    
C53   N9    A    
C6    C31   S    
C28   C34   A    
C51   N7    A    
N1    N7    A    
C21   C22   A    
C50   N6    A    
C8    C25   S    
C4    N16   A    
N5    Ni1   S    
C44   C46   A    
C13   Cl10  S    
C10   Cl8   S    
C27   H14   S    
C18   F14   S    
C48   H7    S    
C51   C52   A    
N6    N16   A    
C24   C25   A    
C49   N5    A    
C8    C54   A    
C5    C7    A    
C45   N8    A    
N2    Ni3   S    
C55   N11   A    
C25   C26   A    
C38   H5    S    
C27   H15   S    
C5    N15   A    
N9    Ni2   S    
C43   C44   A    
C37   C38   S    
C2    N13   A    
C47   C48   S    
C28   N3    A    
C3    F11   S    
C17   C18   S    
C54   N10   A    
C9    C56   A    
C37   Cl3   S    
C39   C46   A    
C16   C23   A    
C23   C35   S    
C13   C15   S    
C50   Cl6   S    
C22   C24   A    
C19   Cl13  S    
C42   C43   A    
C7    C53   A    
C42   Cl4   S    
N8    N14   A    
C22   Cl15  S    
C40   N4    A    
N11   N12   A    
C46   C47   S    
C11   C17   S    
C9    C44   S    
C14   Cl12  S    
C41   C52   S    
N4    Ni2   S    
C10   C15   S    
C14   C15   S    
C14   C19   S    
N1    Ni1   S    
N6    Ni4   S    
N8    Ni1   S    
C12   C50   A    
C16   H13   S    
C30   C36   A    
C11   F13   S    
N13   Ni1   S    
C43   H6    S    
C5    Cl1   S    
N9    N15   A    
C32   C33   A    
C47   F4    S    
N10   Ni3   S    
C55   F9    S    
N7    Ni3   S    
C48   Cl5   S    
C20   C26   A    
C12   C21   S    
C33   C35   A    
C45   Cl7   S    
C29   H16   S    
C1    C52   A    
N16   Ni2   S    
C10   C11   S    
C51   H8    S    
C20   C21   A    
C34   C49   A    
C2    C8    A    
C56   N12   A    
C40   F6    S    
C2    F10   S    
C28   H4    S    
C18   H12   S    
C53   F1    S    
C24   F15   S    
N10   N13   A    
N12   Ni2   S    
C11   Cl9   S    
C39   C48   S    
