data_mof_unit_26068.cif
_audit_creation_date              2012-12-10T19:49:59-0500
_audit_creation_method            fapswitch 2.2
_symmetry_space_group_name_H-M    P1
_symmetry_Int_Tables_number       1
_space_group_crystal_system       triclinic
_cell_length_a                    14.23647
_cell_length_b                    14.894458
_cell_length_c                    15.632707
_cell_angle_alpha                 90.702429
_cell_angle_beta                  68.665856
_cell_angle_gamma                 90.004408
_cell_volume                      3087.41333328

loop_
_atom_site_label
_atom_site_type_symbol
_atom_type_description
_atom_site_fract_x
_atom_site_fract_y
_atom_site_fract_z
_atom_type_partial_charge
C1    C     C_R   0.500059 0.672529 0.499652 0.870584
C2    C     C_R   0.498672 0.328080 0.503542 0.872929
C3    C     C_R   0.381446 0.539990 0.100830 -0.229953
C4    C     C_R   0.617369 0.549960 0.900456 -0.254754
C5    C     C_R   0.310841 0.550812 0.059393 -0.238407
C6    C     C_R   0.687747 0.559866 0.942592 -0.222446
C7    C     C_R   0.445253 0.915902 0.475070 -0.023669
C8    C     C_R   0.423314 0.099892 0.603904 -0.014982
C9    C     C_R   0.447082 0.822395 0.462576 -0.068675
C10   C     C_R   0.420419 0.193190 0.592754 -0.060181
C11   C     C_R   0.497464 0.769322 0.506994 -0.083422
C12   C     C_R   0.495183 0.232790 0.516369 -0.061328
C13   C     C_R   0.544296 0.808743 0.562695 -0.208774
C14   C     C_R   0.574514 0.182253 0.455954 -0.217040
C15   C     C_R   0.543040 0.900507 0.574194 -0.200032
C16   C     C_R   0.577350 0.091010 0.466951 -0.185344
C17   C     C_R   0.493332 0.953567 0.531465 0.070483
C18   C     C_R   0.500582 0.049796 0.538131 0.054242
C19   C     C_R   0.870779 0.557820 0.558670 -0.341613
C20   C     C_R   0.117047 0.427487 0.466843 -0.315956
C21   C     C_R   0.772401 0.557342 0.557113 0.241205
C22   C     C_R   0.216145 0.427150 0.466935 0.219034
C23   C     C_R   0.437532 0.499727 0.675393 0.914357
C24   C     C_R   0.562527 0.498798 0.324357 0.875692
C25   C     C_R   0.819124 0.445608 0.440129 0.237291
C26   C     C_R   0.189877 0.571673 0.537148 0.249372
C27   C     C_R   0.919272 0.446755 0.437528 -0.337460
C28   C     C_R   0.091999 0.575076 0.533679 -0.323668
C29   C     C_R   0.946893 0.502387 0.498248 0.130783
C30   C     C_R   0.053383 0.502283 0.498669 0.115945
C31   C     C_R   0.400381 0.507354 0.775362 -0.074691
C32   C     C_R   0.600218 0.505295 0.224066 -0.130515
C33   C     C_R   0.269182 0.548972 0.920500 0.101436
C34   C     C_R   0.730322 0.551545 0.080961 0.107681
C35   C     C_R   0.302129 0.537493 0.824974 -0.288918
C36   C     C_R   0.697928 0.536522 0.175785 -0.281135
C37   C     C_R   0.467498 0.491106 0.820392 0.024289
C38   C     C_R   0.534745 0.488115 0.176801 0.038363
C39   C     C_R   0.442419 0.521718 0.911213 0.007405
C40   C     C_R   0.558830 0.520264 0.087892 0.035675
C41   C     C_R   0.339844 0.540769 0.964166 0.133405
C42   C     C_R   0.660019 0.543892 0.036645 0.114380
C43   C     C_R   0.515785 0.529987 0.951946 0.074766
C44   C     C_R   0.484725 0.527165 0.047816 0.105311
H1    H     H_    0.233419 0.565258 0.102629 0.162181
H2    H     H_    0.763864 0.579117 0.900844 0.162007
H3    H     H_    0.885954 0.601565 0.607734 0.134973
H4    H     H_    0.089704 0.367768 0.443715 0.134434
H5    H     H_    0.974519 0.404841 0.386970 0.136015
H6    H     H_    0.046692 0.634644 0.559289 0.131774
H7    H     H_    0.749220 0.548387 0.211632 0.165835
H8    H     H_    0.250262 0.549065 0.789870 0.157488
H9    H     H_    0.355150 0.549313 0.174183 0.158652
H10   H     H_    0.641343 0.566013 0.828903 0.143826
H11   H     H_    0.581397 0.768295 0.598144 0.159683
H12   H     H_    0.633234 0.213453 0.399018 0.142993
H13   H     H_    0.581802 0.930390 0.615581 0.133452
H14   H     H_    0.636327 0.051506 0.416818 0.136975
N1    N     N_R   0.747530 0.500020 0.500000 -0.083530
N2    N     N_R   0.252470 0.499980 0.500000 -0.096111
O1    O     O_R   0.420530 0.630930 0.499990 -0.586582
O2    O     O_R   0.579470 0.369070 0.500010 -0.600548
O3    O     O_R   0.579480 0.630940 0.499990 -0.608737
O4    O     O_R   0.420520 0.369060 0.500010 -0.604720
O5    O     O_R   0.375120 0.499990 0.632240 -0.626754
O6    O     O_R   0.624880 0.500010 0.367760 -0.603590
O7    O     O_R   0.534080 0.500000 0.632240 -0.592872
O8    O     O_R   0.465920 0.500000 0.367760 -0.623709
Zn1   Zn    Zn3+2 0.393860 0.499990 0.500000 0.958060
Zn2   Zn    Zn3+2 0.606140 0.500010 0.500000 0.971257
N3    N     N_3   0.698715 0.619127 0.613854 -0.405926
H15   H     H_    0.726683 0.683903 0.596090 0.153842
H16   H     H_    0.692043 0.609372 0.681718 0.143218
N4    N     N_3   0.276659 0.347753 0.437038 -0.427853
H17   H     H_    0.337460 0.362650 0.377805 0.193215
H18   H     H_    0.236726 0.296458 0.419293 0.143286
N5    N     N_3   0.792306 0.388346 0.378703 -0.407539
H19   H     H_    0.837684 0.404863 0.311535 0.154868
H20   H     H_    0.809050 0.322203 0.389946 0.157982
N6    N     N_3   0.222520 0.641922 0.583131 -0.408253
H21   H     H_    0.228796 0.614297 0.641920 0.185406
H22   H     H_    0.167893 0.692568 0.606061 0.137349
N7    N     N_3   0.452687 0.426014 0.211533 -0.466989
H23   H     H_    0.392611 0.456668 0.263450 0.202761
H24   H     H_    0.477256 0.369534 0.236733 0.175178
N8    N     N_3   0.548714 0.427650 0.780196 -0.451669
H25   H     H_    0.616173 0.460730 0.745627 0.202654
H26   H     H_    0.557295 0.387044 0.830993 0.186043
N9    N     N_3   0.165617 0.571399 0.972549 -0.472991
H27   H     H_    0.126309 0.582886 0.928724 0.177753
H28   H     H_    0.132577 0.515127 0.011110 0.166652
N10   N     N_3   0.832617 0.577951 0.030623 -0.474601
H29   H     H_    0.871707 0.587868 0.075085 0.180476
H30   H     H_    0.868249 0.524249 0.987263 0.169537
C45   C     C_R   0.400007 0.975082 0.424518 0.134130
C46   C     C_R   0.298557 0.001285 0.464212 -0.164089
C47   C     C_R   0.257677 0.061117 0.418769 -0.147185
C48   C     C_R   0.317727 0.094492 0.333132 -0.109062
C49   C     C_R   0.418506 0.067485 0.292546 -0.128922
C50   C     C_R   0.459596 0.007724 0.337922 -0.130164
H31   H     H_    0.251328 0.975093 0.530021 0.119035
H32   H     H_    0.179514 0.081661 0.449963 0.119186
H33   H     H_    0.286111 0.141051 0.298129 0.115685
H34   H     H_    0.464900 0.093194 0.226147 0.123147
H35   H     H_    0.537997 0.987819 0.306356 0.114432
C51   C     C_R   0.346750 0.054832 0.683249 0.125821
C52   C     C_R   0.244209 0.056465 0.694692 -0.146883
C53   C     C_R   0.172827 0.013954 0.769450 -0.144009
C54   C     C_R   0.203109 0.970007 0.833639 -0.108741
C55   C     C_R   0.304767 0.969015 0.823435 -0.128848
C56   C     C_R   0.376328 0.011565 0.748794 -0.147163
H36   H     H_    0.219526 0.090457 0.645748 0.119227
H37   H     H_    0.094006 0.015144 0.777642 0.123951
H38   H     H_    0.147764 0.937103 0.891497 0.123663
H39   H     H_    0.328085 0.935565 0.873563 0.128954
H40   H     H_    0.454567 0.011537 0.742571 0.114696
C57   C     C_R   0.402148 0.782214 0.399077 0.146783
C58   C     C_R   0.464471 0.746767 0.313653 -0.150374
C59   C     C_R   0.422202 0.714982 0.251238 -0.123064
C60   C     C_R   0.317675 0.717655 0.274113 -0.125206
C61   C     C_R   0.255205 0.751146 0.359745 -0.133332
C62   C     C_R   0.297229 0.783708 0.421930 -0.085971
H41   H     H_    0.545592 0.745512 0.294812 0.113795
H42   H     H_    0.470597 0.689396 0.184746 0.138855
H43   H     H_    0.284877 0.694461 0.225403 0.127630
H44   H     H_    0.174295 0.752803 0.377557 0.125706
H45   H     H_    0.248189 0.810750 0.487566 0.111188
C63   C     C_R   0.344549 0.248744 0.664241 0.101429
C64   C     C_R   0.356794 0.266961 0.747856 -0.149343
C65   C     C_R   0.281826 0.313495 0.818104 -0.116581
C66   C     C_R   0.195010 0.343124 0.804811 -0.119442
C67   C     C_R   0.182604 0.325479 0.721555 -0.140628
C68   C     C_R   0.256602 0.277546 0.651825 -0.091091
H46   H     H_    0.423644 0.244081 0.758920 0.132629
H47   H     H_    0.291360 0.327209 0.882614 0.136440
H48   H     H_    0.137426 0.379776 0.859023 0.119185
H49   H     H_    0.115096 0.347898 0.711478 0.124668
H50   H     H_    0.244535 0.261007 0.589110 0.141352

loop_
_geom_bond_atom_site_label_1
_geom_bond_atom_site_label_2
_ccdc_geom_bond_type
C14   H12   S    
C38   N7    S    
C27   C29   A    
C9    C57   S    
C52   H36   S    
C45   C46   A    
C1    C11   S    
C57   C62   A    
C2    C12   S    
C63   C64   A    
C47   C48   A    
C39   C41   A    
C20   C30   A    
N5    H19   S    
C50   H35   S    
N4    H18   S    
C21   N3    S    
C25   N5    S    
C32   C36   A    
C19   C21   A    
C21   N1    A    
C22   N2    A    
C19   H3    S    
C51   C52   A    
C48   H33   S    
C11   C13   A    
C53   C54   A    
O2    Zn2   S    
C15   C17   A    
C23   O7    A    
C62   H45   S    
C55   C56   A    
C58   C59   A    
C28   H6    S    
N7    H23   S    
O8    Zn1   S    
C7    C17   A    
C34   C42   A    
C52   C53   A    
C56   H40   S    
C14   C16   A    
C32   C38   A    
N9    H28   S    
C47   H32   S    
C24   O6    A    
C40   C42   A    
C49   H34   S    
C68   H50   S    
C46   H31   S    
C15   H13   S    
C10   C63   S    
C1    O3    A    
C2    O4    A    
C34   N10   S    
C51   C56   A    
N5    H20   S    
C3    C44   A    
N4    H17   S    
N8    H26   S    
C37   N8    S    
C45   C50   A    
N6    H22   S    
C66   H48   S    
N3    H16   S    
C60   H43   S    
C67   C68   A    
C39   C43   A    
C67   H49   S    
C59   H42   S    
C5    H1    S    
C26   N6    S    
C31   C37   A    
C1    O1    A    
C23   C31   S    
C53   H37   S    
C43   C44   A    
C24   C32   S    
C29   C30   S    
C33   N9    S    
C49   C50   A    
O3    Zn2   S    
C46   C47   A    
N10   H30   S    
C17   C18   S    
C16   C18   A    
C16   H14   S    
O4    Zn1   S    
C9    C11   A    
C61   C62   A    
C20   H4    S    
C36   H7    S    
C10   C12   A    
C54   H38   S    
C4    C6    A    
N7    H24   S    
C65   H47   S    
C12   C14   A    
C13   C15   A    
C31   C35   A    
C22   N4    S    
C66   C67   A    
C19   C29   A    
C60   C61   A    
C64   C65   A    
O1    Zn1   S    
C7    C9    A    
C5    C41   A    
C6    H2    S    
C4    H10   S    
N8    H25   S    
C20   C22   A    
N6    H21   S    
C3    C5    A    
C8    C51   S    
C59   C60   A    
C4    C43   A    
C25   C27   A    
C7    C45   S    
C26   C28   A    
O7    Zn2   S    
C33   C41   A    
C23   O5    A    
C28   C30   A    
C65   C66   A    
C61   H44   S    
C37   C39   A    
C63   C68   A    
C38   C40   A    
C3    H9    S    
O6    Zn2   S    
N2    Zn1   S    
O5    Zn1   S    
N10   H29   S    
C33   C35   A    
C34   C36   A    
C58   H41   S    
C8    C18   A    
C24   O8    A    
N1    Zn2   S    
C64   H46   S    
C27   H5    S    
C40   C44   A    
N3    H15   S    
C8    C10   A    
C48   C49   A    
C6    C42   A    
C54   C55   A    
C35   H8    S    
C25   N1    A    
N9    H27   S    
C57   C58   A    
C26   N2    A    
C55   H39   S    
C2    O2    A    
C13   H11   S    
