data_mof_unit_24793.cif
_audit_creation_date              2012-12-10T17:02:01-0500
_audit_creation_method            fapswitch 2.2
_symmetry_space_group_name_H-M    P1
_symmetry_Int_Tables_number       1
_space_group_crystal_system       triclinic
_cell_length_a                    10.991397
_cell_length_b                    11.103185
_cell_length_c                    9.817668
_cell_angle_alpha                 109.829118
_cell_angle_beta                  96.219428
_cell_angle_gamma                 92.341281
_cell_volume                      1116.60557976

loop_
_atom_site_label
_atom_site_type_symbol
_atom_type_description
_atom_site_fract_x
_atom_site_fract_y
_atom_site_fract_z
_atom_type_partial_charge
C1    C     C_R   0.486884 0.254385 0.443062 0.937384
C2    C     C_R   0.065813 0.452755 0.603212 -0.020146
C3    C     C_R   0.127745 0.498338 0.507917 -0.181902
C4    C     C_R   0.058434 0.545150 0.410818 -0.128077
C5    C     C_R   0.931880 0.549383 0.406724 0.453332
C6    C     C_R   0.869054 0.490761 0.489305 -0.186006
C7    C     C_2   0.475396 0.115354 0.417414 -0.196461
C8    C     C_2   0.450922 0.070008 0.523958 0.460143
C9    C     C_2   0.515783 0.882092 0.582922 -0.277930
C10   C     C_2   0.440458 0.931418 0.498379 -0.259231
C11   C     C_2   0.525395 0.505290 0.087988 -0.128413
C12   C     C_R   0.262263 0.499636 0.503407 0.830846
C13   C     C_2   0.548364 0.469687 0.927274 0.497930
C14   C     C_R   0.508091 0.744604 0.556916 0.860160
C15   C     C_R   0.736762 0.499407 0.496368 0.783184
C16   C     C_R   0.125930 0.420080 0.718672 -0.089550
C17   C     C_R   0.059087 0.414122 0.830965 -0.123117
C18   C     C_R   0.934159 0.370772 0.791942 -0.198402
C19   C     C_R   0.879074 0.360101 0.651348 -0.125873
C20   C     C_R   0.936587 0.434682 0.580150 -0.044530
Cu1   Cu    Cu3+1 0.521920 0.521810 0.644910 1.102001
Cu2   Cu    Cu3+1 0.478080 0.478190 0.355090 1.039225
H1    H     H_    0.103878 0.586499 0.342572 0.218833
H2    H     H_    0.486462 0.049119 0.309781 0.146657
H3    H     H_    0.573642 0.592875 0.165382 0.172996
N1    N     N_2   0.445130 0.445430 0.137370 -0.244698
N2    N     N_2   0.554930 0.554500 0.862630 -0.260579
O1    O     O_R   0.511700 0.332330 0.577400 -0.464112
O2    O     O_R   0.474680 0.295500 0.332650 -0.591999
O3    O     O_R   0.338160 0.518420 0.622400 -0.557997
O4    O     O_R   0.301140 0.481590 0.377650 -0.589726
O5    O     O_R   0.525320 0.704500 0.667350 -0.568977
O6    O     O_R   0.488300 0.667670 0.422600 -0.581983
O7    O     O_R   0.698860 0.518410 0.622350 -0.583036
O8    O     O_R   0.661840 0.481580 0.377600 -0.573129
O9    O     O_3   0.570292 0.346550 0.848839 -0.589264
H4    H     H_    0.614780 0.311482 0.917760 0.383552
C21   C     C_2   0.536308 0.683180 0.947377 0.959328
O10   O     O_2   0.437881 0.726305 0.928216 -0.534235
O11   O     O_R   0.631056 0.759931 0.050944 -0.774734
H5    H     H_    0.606600 0.849133 0.104361 0.348123
C22   C     C_2   0.416735 0.311157 0.058176 1.128924
O12   O     O_2   0.495474 0.235971 0.055825 -0.563869
O13   O     O_R   0.296640 0.262940 0.998130 -0.746518
H6    H     H_    0.287785 0.165956 0.950290 0.332900
C23   C     C_2   0.225949 0.335303 0.689761 0.923119
O14   O     O_2   0.314539 0.355310 0.781896 -0.489387
O15   O     O_R   0.220986 0.232512 0.557890 -0.752111
H7    H     H_    0.140749 0.219827 0.491463 0.295271
C24   C     C_2   0.122225 0.440693 0.980695 0.929633
O16   O     O_2   0.208267 0.523156 0.029098 -0.557935
O17   O     O_R   0.084106 0.371734 0.066272 -0.719690
H8    H     H_    0.139546 0.391769 0.161457 0.354598
C25   C     C_2   0.863129 0.342015 0.898386 1.009100
O18   O     O_2   0.845614 0.231321 0.893557 -0.487304
O19   O     O_R   0.824301 0.441494 0.011903 -0.718613
H9    H     H_    0.844877 0.529233 0.005923 0.320290
C26   C     C_2   0.780047 0.256591 0.569052 0.866411
O20   O     O_2   0.715239 0.210249 0.634625 -0.496996
O21   O     O_R   0.763737 0.204284 0.416225 -0.747802
H10   H     H_    0.830730 0.233464 0.368644 0.316950
O22   O     O_3   0.875007 0.614360 0.323447 -0.676116
H11   H     H_    0.800387 0.648851 0.364906 0.337684
C27   C     C_2   0.331432 0.856429 0.396477 0.919915
O23   O     O_2   0.270032 0.777847 0.428050 -0.593844
O24   O     O_R   0.295446 0.880717 0.267887 -0.739694
H12   H     H_    0.219469 0.824825 0.208681 0.366512
O25   O     O_3   0.427947 0.152795 0.657067 -0.570828
H13   H     H_    0.390356 0.102474 0.710496 0.350743
C28   C     C_2   0.620226 0.957800 0.691744 0.955218
O26   O     O_2   0.604898 0.057297 0.788497 -0.486678
O27   O     O_R   0.735731 0.909298 0.687879 -0.754679
H14   H     H_    0.799413 0.966421 0.769053 0.375210

loop_
_geom_bond_atom_site_label_1
_geom_bond_atom_site_label_2
_ccdc_geom_bond_type
C17   C24   S    
C1    O1    A    
C24   O17   S    
C9    C14   S    
O11   H5    S    
O22   H11   S    
C3    C12   S    
Cu2   O2    S    
C2    C16   A    
C9    C10   D    
C15   O7    A    
C13   N2    D    
C19   C20   A    
C6    C15   S    
C12   O3    A    
C27   O23   D    
C14   O6    A    
C1    O2    A    
C17   C18   A    
Cu1   N2    S    
C7    C8    D    
C12   O4    A    
C23   O14   D    
Cu1   Cu2   S    
C9    C28   S    
C21   O11   S    
Cu2   O8    S    
C11   C13   S    
C28   O26   D    
C22   O13   S    
O17   H8    S    
O15   H7    S    
C5    C6    A    
C15   O8    A    
O9    H4    S    
Cu1   O1    S    
C5    O22   S    
C8    O25   S    
C2    C3    A    
C19   C26   S    
C21   O10   D    
Cu1   O5    S    
C25   O19   S    
C16   C17   A    
Cu2   O4    S    
C11   H3    S    
N2    C21   S    
C2    C20   A    
C7    H2    S    
C23   O15   S    
Cu1   O3    S    
C4    C5    A    
C6    C20   A    
O19   H9    S    
N1    C22   S    
C13   O9    S    
C8    C10   S    
C18   C19   A    
Cu2   N1    S    
C16   C23   S    
O24   H12   S    
C4    H1    S    
Cu2   O6    S    
C18   C25   S    
C25   O18   D    
O21   H10   S    
C28   O27   S    
Cu1   O7    S    
C11   N1    D    
C24   O16   D    
C26   O20   D    
C1    C7    S    
C26   O21   S    
O25   H13   S    
C10   C27   S    
O13   H6    S    
C3    C4    A    
C22   O12   D    
C14   O5    A    
O27   H14   S    
C27   O24   S    
