data_mof_unit_55876.cif
_audit_creation_date              2013-03-05T15:50:33-0500
_audit_creation_method            fapswitch 2.2
_symmetry_space_group_name_H-M    P1
_symmetry_Int_Tables_number       1
_space_group_crystal_system       triclinic
_cell_length_a                    15.124807
_cell_length_b                    15.192521
_cell_length_c                    34.698817
_cell_angle_alpha                 91.687517
_cell_angle_beta                  91.726625
_cell_angle_gamma                 60.025228
_cell_volume                      6902.68542075

loop_
_atom_site_label
_atom_site_type_symbol
_atom_site_description
_atom_site_fract_x
_atom_site_fract_y
_atom_site_fract_z
_atom_type_partial_charge
O1    O     O_R   0.324990 0.503440 0.453910 -0.461128
O2    O     O_R   0.522030 0.339050 0.458320 -0.462642
C1    C     C_R   0.612250 0.301157 0.444061 0.580455
O3    O     O_R   0.676180 0.324490 0.458320 -0.442864
O4    O     O_R   0.643570 0.521510 0.464260 -0.454552
C2    C     C_R   0.594723 0.611835 0.450269 0.599332
O5    O     O_R   0.504630 0.675350 0.460920 -0.478172
O6    O     O_R   0.339850 0.642450 0.459830 -0.482627
C3    C     C_R   0.303237 0.591148 0.442257 0.570094
O7    O     O_R   0.321120 0.501280 0.538470 -0.474883
O8    O     O_R   0.518440 0.337050 0.536710 -0.510188
C4    C     C_R   0.606074 0.297544 0.552959 0.554911
O9    O     O_R   0.672300 0.322330 0.542880 -0.435020
O10   O     O_R   0.639980 0.519500 0.542640 -0.462517
C5    C     C_R   0.589510 0.607629 0.558534 0.577437
O11   O     O_R   0.500750 0.673190 0.545480 -0.455150
O12   O     O_R   0.336260 0.640450 0.538210 -0.468019
C6    C     C_R   0.297071 0.590125 0.551570 0.546586
Cr1   Cr    Cr6+3 0.426010 0.422500 0.497000 1.151916
Cr2   Cr    Cr6+3 0.651300 0.426310 0.501970 1.206296
Cr3   Cr    Cr6+3 0.422670 0.651170 0.501050 1.163590
O13   O     O_3   0.499990 0.499990 0.500010 -0.329515
C7    C     C_R   0.732329 0.702829 0.099631 -0.070616
C8    C     C_R   0.635132 0.744245 0.116848 -0.037802
C9    C     C_R   0.628942 0.721127 0.155276 0.216273
C10   C     C_R   0.717633 0.651759 0.175464 0.003206
C11   C     C_R   0.811525 0.598033 0.156687 0.215530
C12   C     C_R   0.819016 0.623253 0.118817 0.195762
C13   C     C_R   0.700547 0.565465 0.232717 0.241274
C14   C     C_R   0.694415 0.560119 0.272985 0.255054
C15   C     C_R   0.703737 0.631628 0.297361 -0.012267
C16   C     C_R   0.717873 0.708350 0.281806 0.008877
C17   C     C_R   0.717304 0.717266 0.241683 0.228447
C18   C     C_R   0.713851 0.642931 0.217433 0.005497
C19   C     C_R   0.589926 0.716699 0.353264 -0.029589
C20   C     C_R   0.568656 0.720132 0.392621 -0.041050
C21   C     C_R   0.736588 0.571093 0.404209 -0.018257
C22   C     C_R   0.759579 0.567443 0.364755 -0.016709
C23   C     C_R   0.683644 0.636827 0.339099 0.036186
C24   C     C_R   0.635811 0.638085 0.416563 0.055501
C25   C     C_R   0.103497 0.733555 0.084785 -0.032339
C26   C     C_R   0.164567 0.641547 0.104043 0.186015
C27   C     C_R   0.191657 0.644666 0.143428 0.198317
C28   C     C_R   0.159098 0.739359 0.162660 -0.038557
C29   C     C_R   0.116454 0.828980 0.140714 0.183591
C30   C     C_R   0.088166 0.824660 0.102261 -0.106747
C31   C     C_R   0.226092 0.760523 0.228300 0.033001
C32   C     C_R   0.231368 0.748966 0.268811 0.281500
C33   C     C_R   0.166333 0.722056 0.286801 0.064566
C34   C     C_R   0.093457 0.711347 0.264824 -0.051981
C35   C     C_R   0.087816 0.720550 0.224737 0.060185
C36   C     C_R   0.156436 0.742729 0.205818 0.031989
C37   C     C_R   0.219327 0.592041 0.337585 0.172832
C38   C     C_R   0.247596 0.560025 0.375822 -0.032696
C39   C     C_R   0.193614 0.734966 0.396508 -0.053397
C40   C     C_R   0.161228 0.767869 0.358049 -0.034842
C41   C     C_R   0.181127 0.694565 0.328277 0.031369
C42   C     C_R   0.243673 0.629605 0.405080 -0.000540
H1    H     H_    0.047110 0.895266 0.086767 0.180343
H2    H     H_    0.042906 0.691906 0.279174 0.160907
C43   C     C_R   0.710669 0.109583 0.085832 -0.008218
C44   C     C_R   0.772707 0.138811 0.107748 -0.043522
C45   C     C_R   0.756120 0.158153 0.147916 0.195961
C46   C     C_R   0.677831 0.148969 0.165360 -0.053840
C47   C     C_R   0.605456 0.137998 0.142321 -0.045145
C48   C     C_R   0.618628 0.125109 0.102165 0.199098
C49   C     C_R   0.596854 0.233440 0.228144 -0.007158
C50   C     C_R   0.597972 0.235889 0.268821 0.024608
C51   C     C_R   0.668198 0.147990 0.289300 -0.000442
C52   C     C_R   0.738598 0.058131 0.269176 0.291944
C53   C     C_R   0.745145 0.061877 0.228642 0.249708
C54   C     C_R   0.673345 0.148587 0.208210 -0.066683
C55   C     C_R   0.738577 0.189907 0.347805 0.200349
C56   C     C_R   0.723600 0.228964 0.385632 0.180227
C57   C     C_R   0.586911 0.190135 0.393859 0.106072
C58   C     C_R   0.601540 0.150078 0.355628 -0.049351
C59   C     C_R   0.672840 0.157003 0.331933 -0.034553
C60   C     C_R   0.641873 0.237676 0.407799 -0.050272
C61   C     C_R   0.688129 0.694245 0.918496 -0.014602
C62   C     C_R   0.728572 0.589144 0.909923 -0.007420
C63   C     C_R   0.715008 0.557719 0.872135 0.028002
C64   C     C_R   0.663212 0.631787 0.843475 -0.027417
C65   C     C_R   0.614086 0.736006 0.853181 0.035937
C66   C     C_R   0.627243 0.766928 0.890310 0.223171
C67   C     C_R   0.577215 0.615133 0.782894 0.210776
C68   C     C_R   0.574187 0.609210 0.742007 0.072182
C69   C     C_R   0.656122 0.603359 0.720846 -0.035188
C70   C     C_R   0.742778 0.597083 0.740461 0.077954
C71   C     C_R   0.750028 0.589204 0.780917 0.198538
C72   C     C_R   0.666081 0.603041 0.802014 -0.113141
C73   C     C_R   0.715155 0.526381 0.654367 -0.079452
C74   C     C_R   0.712651 0.538833 0.614104 0.109191
C75   C     C_R   0.566868 0.710485 0.619988 0.130212
C76   C     C_R   0.578276 0.703803 0.660675 0.147437
C77   C     C_R   0.649029 0.610365 0.677862 -0.119692
C78   C     C_R   0.626966 0.622999 0.597128 -0.032764
C79   C     C_R   0.073125 0.690089 0.902365 -0.029858
C80   C     C_R   0.103907 0.753028 0.884520 -0.068785
C81   C     C_R   0.117912 0.744962 0.844078 -0.051540
C82   C     C_R   0.112926 0.665890 0.823072 -0.032744
C83   C     C_R   0.103288 0.591010 0.842383 0.208532
C84   C     C_R   0.082551 0.603482 0.881813 0.187887
C85   C     C_R   0.210847 0.586748 0.763355 0.258872
C86   C     C_R   0.217962 0.578445 0.722942 0.034218
C87   C     C_R   0.132923 0.647426 0.700145 -0.106972
C88   C     C_R   0.039561 0.718101 0.717267 0.002202
C89   C     C_R   0.031431 0.721067 0.757811 0.035933
C90   C     C_R   0.119222 0.659948 0.780549 0.023308
C91   C     C_R   0.189507 0.717366 0.648415 -0.017582
C92   C     C_R   0.230451 0.704728 0.611229 -0.005276
C93   C     C_R   0.173571 0.583629 0.594646 -0.033397
C94   C     C_R   0.132229 0.595708 0.631157 0.035119
C95   C     C_R   0.147759 0.656544 0.658895 -0.039398
C96   C     C_R   0.229607 0.630720 0.585400 -0.007022
H3    H     H_    0.168076 0.531444 0.574063 0.212771
C97   C     C_R   0.681302 0.071421 0.903485 0.019671
C98   C     C_R   0.574762 0.133474 0.895894 -0.005945
C99   C     C_R   0.539488 0.167475 0.857722 -0.068130
C100  C     C_R   0.611732 0.146897 0.828750 -0.081101
C101  C     C_R   0.716275 0.096289 0.837599 0.188669
C102  C     C_R   0.751522 0.052473 0.873555 0.022114
C103  C     C_R   0.584606 0.258931 0.773472 0.065143
C104  C     C_R   0.600986 0.263060 0.733767 0.093595
C105  C     C_R   0.610506 0.184297 0.708504 0.019577
C106  C     C_R   0.603632 0.101572 0.722395 0.075264
C107  C     C_R   0.590299 0.095657 0.762168 0.083107
C108  C     C_R   0.584202 0.172917 0.787636 -0.000772
C109  C     C_R   0.530503 0.219803 0.642702 -0.023489
C110  C     C_R   0.534580 0.233669 0.603000 -0.055190
C111  C     C_R   0.711490 0.195434 0.610236 0.132688
C112  C     C_R   0.711351 0.172216 0.649500 -0.057865
C113  C     C_R   0.617727 0.193913 0.666331 -0.079122
C114  C     C_R   0.620025 0.236608 0.588170 -0.027368
O14   O     O_R   0.834210 0.019400 0.034570 -0.469616
O15   O     O_R   0.002210 0.824620 0.031030 -0.502232
C115  C     C_R   0.045362 0.739755 0.048623 0.574590
O16   O     O_R   0.024400 0.669340 0.039790 -0.433806
O17   O     O_R   0.830490 0.694950 0.045870 -0.438597
C116  C     C_R   0.745351 0.744243 0.063157 0.557668
O18   O     O_R   0.675430 0.831160 0.051290 -0.520036
O19   O     O_R   0.698870 0.998880 0.039560 -0.452200
C117  C     C_R   0.748504 0.043292 0.050260 0.592430
O20   O     O_R   0.811290 0.006780 0.950620 -0.504957
O21   O     O_R   0.980960 0.812920 0.953200 -0.492044
C118  C     C_R   0.019088 0.720697 0.939940 0.571363
O22   O     O_R   0.001480 0.656720 0.955830 -0.449411
O23   O     O_R   0.809240 0.683250 0.968050 -0.475202
C119  C     C_R   0.717100 0.731175 0.954407 0.579840
O24   O     O_R   0.652500 0.818540 0.967340 -0.453705
O25   O     O_R   0.677620 0.987170 0.961730 -0.435163
C120  C     C_R   0.723016 0.022388 0.941442 0.584579
Cr4   Cr    Cr6+3 0.905130 0.911420 0.992650 1.128992
Cr5   Cr    Cr6+3 0.911860 0.682710 0.002320 1.202925
Cr6   Cr    Cr6+3 0.682710 0.906840 0.004710 1.186526
O26   O     O_3   0.833240 0.833660 0.999890 -0.325968
C121  C     C_2   0.538492 0.805053 0.094653 0.348557
H4    H     H_    0.522177 0.873734 0.080199 0.191522
O27   O     O_2   0.473910 0.779163 0.093225 -0.412285
C122  C     C_2   0.475549 0.809748 0.408155 0.260068
H5    H     H_    0.402944 0.839628 0.392758 0.112578
O28   O     O_2   0.480416 0.852654 0.437788 -0.400810
N1    N     N_R   0.899572 0.517136 0.175761 0.133542
O29   O     O_R   0.953226 0.429801 0.158279 -0.143910
O30   O     O_R   0.925265 0.528869 0.210837 -0.293904
C123  C     C_2   0.819237 0.511559 0.433030 0.312359
H6    H     H_    0.887689 0.442217 0.424928 0.144356
O31   O     O_2   0.813235 0.541992 0.466353 -0.412224
N2    N     N_R   0.196485 0.547588 0.083089 -0.067281
O32   O     O_R   0.283707 0.466551 0.090225 -0.000001
O33   O     O_R   0.283707 0.466551 0.090225 -0.000001
C124  C     C_2   0.103238 0.878806 0.349384 0.326781
H7    H     H_    0.106870 0.934257 0.368637 0.132419
O34   O     O_2   0.048313 0.910471 0.320732 -0.367406
N3    N     N_R   0.307810 0.756830 0.291493 0.104262
O35   O     O_R   0.385783 0.675000 0.305005 -0.261281
O36   O     O_R   0.289269 0.845274 0.304784 -0.271823
C125  C     C_2   0.293225 0.790388 0.209179 0.409257
H8    H     H_    0.315526 0.767303 0.179530 0.147019
O37   O     O_2   0.319743 0.845850 0.225565 -0.289996
N4    N     N_R   0.246070 0.553161 0.165021 0.096424
O38   O     O_R   0.323064 0.539443 0.186913 -0.264550
O39   O     O_R   0.210628 0.491090 0.167117 -0.169288
N5    N     N_R   0.916282 0.568903 0.100612 0.124077
O40   O     O_R   0.994265 0.572842 0.115427 -0.227810
O41   O     O_R   0.930642 0.502630 0.073353 -0.223209
C126  C     C_2   0.009460 0.704336 0.204208 0.398462
H9    H     H_    0.973195 0.669724 0.219318 0.178190
O42   O     O_2   0.981844 0.731761 0.171162 -0.419785
N6    N     N_R   0.230235 0.519230 0.307875 0.046464
O43   O     O_R   0.181733 0.468993 0.310111 -0.236763
O44   O     O_R   0.286676 0.504592 0.278157 -0.225395
C127  C     C_2   0.286428 0.451279 0.383391 0.354998
H10   H     H_    0.350371 0.393350 0.367224 0.130163
O45   O     O_2   0.242651 0.426077 0.405787 -0.374297
N7    N     N_R   0.100266 0.924925 0.156216 0.100539
O46   O     O_R   0.084237 0.948297 0.192633 -0.197445
O47   O     O_R   0.103807 0.989719 0.133498 -0.259200
C128  C     C_2   0.171336 0.811174 0.428089 0.275562
H11   H     H_    0.183956 0.874606 0.424377 0.113846
O48   O     O_2   0.137816 0.803731 0.458657 -0.416758
C129  C     C_2   0.848689 0.156763 0.088580 0.322875
H12   H     H_    0.918215 0.143362 0.103308 0.204140
O49   O     O_2   0.832009 0.191310 0.056145 -0.409238
N8    N     N_R   0.540576 0.123619 0.077935 0.132342
O50   O     O_R   0.504689 0.183027 0.048379 -0.219637
O51   O     O_R   0.514877 0.054634 0.082366 -0.276675
C130  C     C_2   0.542592 0.100639 0.341254 0.349243
H13   H     H_    0.511821 0.070270 0.361479 0.179292
O52   O     O_2   0.527142 0.093019 0.306920 -0.426465
C131  C     C_2   0.528991 0.331726 0.290401 0.371671
H14   H     H_    0.500864 0.329277 0.318465 0.078596
O53   O     O_2   0.505691 0.414677 0.277582 -0.330938
C132  C     C_2   0.513885 0.317666 0.206066 0.370287
H15   H     H_    0.530400 0.345069 0.180246 0.163065
O54   O     O_2   0.425332 0.352459 0.215477 -0.327821
C133  C     C_2   0.862368 0.491033 0.350388 0.288272
H16   H     H_    0.902358 0.415144 0.362016 0.178063
O55   O     O_2   0.903971 0.512281 0.325615 -0.442675
N9    N     N_R   0.817111 0.188200 0.171292 0.098630
O56   O     O_R   0.773848 0.262203 0.196360 -0.206760
O57   O     O_R   0.915916 0.132634 0.171971 -0.195877
N10   N     N_R   0.804418 0.964179 0.289325 0.159477
O58   O     O_R   0.842054 0.877079 0.271167 -0.272167
O59   O     O_R   0.821956 0.963046 0.326290 -0.277903
N11   N     N_R   0.829464 0.980492 0.208604 0.135052
O60   O     O_R   0.815686 0.944248 0.175971 -0.281164
O61   O     O_R   0.921907 0.948316 0.221557 -0.208237
N12   N     N_R   0.817785 0.188561 0.324954 0.127177
O62   O     O_R   0.878007 0.108576 0.304601 -0.203136
O63   O     O_R   0.838160 0.262159 0.327727 -0.198690
N13   N     N_R   0.791404 0.261869 0.400955 0.130800
O64   O     O_R   0.883396 0.195145 0.412005 -0.249214
O65   O     O_R   0.766581 0.356683 0.398333 -0.336361
C134  C     C_2   0.518193 0.136997 0.160708 0.333522
H17   H     H_    0.528289 0.103262 0.188788 0.163156
O66   O     O_2   0.433295 0.177717 0.145621 -0.332659
N14   N     N_R   0.517201 0.181775 0.418710 0.075223
O67   O     O_R   0.422342 0.216754 0.408212 -0.295111
O68   O     O_R   0.548284 0.140643 0.452387 -0.278151
C135  C     C_2   0.788583 0.512329 0.939701 0.357507
H18   H     H_    0.855767 0.441351 0.931710 0.189672
O69   O     O_2   0.762455 0.526918 0.973324 -0.431985
N15   N     N_R   0.592090 0.872689 0.897027 0.101743
O70   O     O_R   0.505457 0.929622 0.913933 -0.251352
O71   O     O_R   0.634153 0.915024 0.878534 -0.397526
N16   N     N_R   0.516625 0.790260 0.684909 0.124968
O72   O     O_R   0.560446 0.819114 0.711121 -0.255556
O73   O     O_R   0.419618 0.822058 0.687644 -0.232232
N17   N     N_R   0.678667 0.482399 0.288800 0.130811
O74   O     O_R   0.721107 0.392049 0.273045 -0.191088
O75   O     O_R   0.617731 0.502459 0.317532 -0.271471
C136  C     C_2   0.487058 0.608349 0.720814 0.325356
H19   H     H_    0.489847 0.594749 0.689909 0.065682
O76   O     O_2   0.411346 0.621374 0.737304 -0.443255
N18   N     N_R   0.487544 0.644056 0.805072 0.148622
O77   O     O_R   0.405771 0.731127 0.798812 -0.193844
O78   O     O_R   0.494399 0.596576 0.836610 -0.243208
C137  C     C_2   0.751240 0.448894 0.861825 0.319689
H20   H     H_    0.765685 0.422895 0.832020 0.179065
O79   O     O_2   0.760342 0.387930 0.885982 -0.454127
C138  C     C_2   0.822963 0.603173 0.718364 0.374384
H21   H     H_    0.806370 0.633950 0.689558 0.108092
O80   O     O_2   0.908726 0.573198 0.731624 -0.395858
N19   N     N_R   0.839620 0.575479 0.801327 0.129954
O81   O     O_R   0.842707 0.653840 0.815825 -0.310426
O82   O     O_R   0.908425 0.484671 0.811797 -0.204785
C139  C     C_2   0.777438 0.423018 0.670548 0.348455
H22   H     H_    0.779508 0.358881 0.655214 0.168150
O83   O     O_2   0.827354 0.407552 0.700378 -0.392429
N20   N     N_R   0.800232 0.474030 0.590585 0.111379
O84   O     O_R   0.817448 0.511456 0.560290 -0.223731
O85   O     O_R   0.872618 0.386418 0.602483 -0.222114
C140  C     C_2   0.552757 0.813779 0.823535 0.352618
H23   H     H_    0.573115 0.799466 0.793406 0.156500
O86   O     O_2   0.476607 0.893461 0.832298 -0.377525
N21   N     N_R   0.504575 0.806899 0.601509 0.109712
O87   O     O_R   0.536869 0.827610 0.570579 -0.248885
O88   O     O_R   0.419964 0.877216 0.616465 -0.199306
C141  C     C_2   0.129519 0.820680 0.908481 0.313998
H24   H     H_    0.120377 0.890579 0.897386 0.147168
O89   O     O_2   0.165543 0.796410 0.940987 -0.429841
N22   N     N_R   0.680169 0.500951 0.207206 0.135401
O90   O     O_R   0.597650 0.495645 0.211133 -0.211219
O91   O     O_R   0.738145 0.455190 0.177873 -0.243378
N23   N     N_R   0.067615 0.528863 0.900358 0.124847
O92   O     O_R   0.135080 0.468115 0.925273 -0.247780
O93   O     O_R   0.991493 0.515829 0.889989 -0.267402
C142  C     C_2   0.079905 0.538652 0.641013 0.302037
H25   H     H_    0.048381 0.546564 0.669400 0.151623
O94   O     O_2   0.070694 0.482368 0.617421 -0.393043
C143  C     C_2   0.317649 0.501987 0.705592 0.332071
H26   H     H_    0.385907 0.463682 0.723491 0.183317
O95   O     O_2   0.325886 0.479457 0.671346 -0.496005
N24   N     N_R   0.295401 0.518088 0.787291 0.083160
O96   O     O_R   0.330883 0.420692 0.783860 -0.271883
O97   O     O_R   0.328459 0.552781 0.815539 -0.211628
C144  C     C_2   0.137726 0.818839 0.823930 0.310226
H27   H     H_    0.107289 0.895864 0.834799 0.165691
O98   O     O_2   0.188797 0.794636 0.794876 -0.400938
C145  C     C_2   0.954136 0.792044 0.692267 0.290017
H28   H     H_    0.943289 0.769805 0.663298 0.099366
O99   O     O_2   0.898274 0.879635 0.703036 -0.422439
C146  C     C_2   0.931258 0.782266 0.776960 0.397438
H29   H     H_    0.927214 0.812142 0.806026 0.102308
O100  O     O_2   0.852386 0.795627 0.761206 -0.371852
C147  C     C_2   0.192477 0.791142 0.677258 0.280292
H30   H     H_    0.195619 0.777656 0.707909 0.180497
O101  O     O_2   0.187565 0.869861 0.667253 -0.381006
C148  C     C_2   0.282894 0.761229 0.601700 0.351882
H31   H     H_    0.345461 0.754153 0.619956 0.140950
O102  O     O_2   0.253177 0.819438 0.574659 -0.366388
N25   N     N_R   0.115062 0.501376 0.822236 0.148318
O103  O     O_R   0.072533 0.507516 0.788539 -0.209775
O104  O     O_R   0.171129 0.412170 0.837231 -0.189443
N26   N     N_R   0.532717 0.770477 0.174458 0.119829
O105  O     O_R   0.506358 0.717590 0.195045 -0.272587
O106  O     O_R   0.473247 0.868493 0.172725 -0.205395
C149  C     C_2   0.500033 0.160525 0.927194 0.303707
H32   H     H_    0.428337 0.162132 0.921499 0.151964
O107  O     O_2   0.516605 0.184265 0.959384 -0.407858
C150  C     C_2   0.862094 0.977984 0.877653 0.290670
H33   H     H_    0.886448 0.903619 0.889152 0.088905
O108  O     O_2   0.926127 0.999807 0.868736 -0.471833
C151  C     C_2   0.810374 0.120251 0.671501 0.328908
H34   H     H_    0.881657 0.079005 0.656252 0.195581
O109  O     O_2   0.814625 0.121698 0.706662 -0.382468
C152  C     C_2   0.616307 0.344606 0.718337 0.290548
H35   H     H_    0.582340 0.378574 0.690797 0.072227
O110  O     O_2   0.672014 0.370145 0.735275 -0.435553
C153  C     C_2   0.569556 0.342294 0.801009 0.360762
H36   H     H_    0.586674 0.327954 0.831513 0.137336
O111  O     O_2   0.533338 0.429382 0.790234 -0.399724
C154  C     C_2   0.427991 0.227104 0.848730 0.300747
H37   H     H_    0.374704 0.273938 0.870818 0.155542
O112  O     O_2   0.393894 0.223427 0.816771 -0.382779
C155  C     C_2   0.609161 0.023213 0.694478 0.324170
H38   H     H_    0.668532 0.991243 0.673056 0.127020
O113  O     O_2   0.543159 0.999400 0.693578 -0.373291
C156  C     C_2   0.590195 0.006050 0.778554 0.353690
H39   H     H_    0.550073 0.014526 0.804988 0.173665
O114  O     O_2   0.637948 0.921570 0.763838 -0.402301
C157  C     C_2   0.436039 0.227949 0.658890 0.353885
H40   H     H_    0.393822 0.198452 0.642641 0.193054
O115  O     O_2   0.403913 0.268124 0.690259 -0.433815
C158  C     C_2   0.730970 0.779605 0.308328 0.309735
H41   H     H_    0.783589 0.750126 0.332751 0.136837
O116  O     O_2   0.678234 0.871292 0.304845 -0.392925
C159  C     C_2   0.450062 0.244034 0.576803 0.282197
H42   H     H_    0.468164 0.201789 0.549656 0.164572
O117  O     O_2   0.360810 0.303320 0.584207 -0.442322
N27   N     N_R   0.787778 0.084915 0.808815 0.100517
O118  O     O_R   0.817368 0.012645 0.782913 -0.273469
O119  O     O_R   0.819639 0.150002 0.807574 -0.215341
N28   N     N_R   0.804767 0.173742 0.592157 0.079172
O120  O     O_R   0.830264 0.123551 0.559529 -0.243535
O121  O     O_R   0.863927 0.204620 0.607795 -0.271603
N29   N     N_R   0.714689 0.804331 0.225315 0.111020
O122  O     O_R   0.781192 0.792079 0.199831 -0.297972
O123  O     O_R   0.633727 0.893379 0.229263 -0.216568
C160  C     C_2   0.513995 0.798527 0.327436 0.318505
H43   H     H_    0.467443 0.875436 0.338490 0.138472
O124  O     O_2   0.501307 0.781091 0.293779 -0.355941

loop_
_geom_bond_atom_site_label_1
_geom_bond_atom_site_label_2
_geom_bond_distance
_ccdc_geom_bond_type
N18   O78   1.301370 A    
C57   C58   1.419405 A    
N29   O122  1.298114 A    
C129  O49   1.221120 D    
C143  H26   1.082840 S    
C69   C70   1.419617 A    
C118  O22   1.272298 A    
C146  O100  1.219995 D    
C154  H37   1.084125 S    
C28   C29   1.415520 A    
C124  O34   1.220249 D    
N22   O90   1.301628 A    
C107  C108  1.415231 A    
C84   N23   1.434539 S    
C12   N5    1.434068 S    
C80   C141  1.491915 S    
C11   N1    1.442696 S    
O4    C2    1.291978 A    
O19   Cr6   1.923913 S    
C88   C89   1.413340 A    
C40   C41   1.419207 A    
C55   C56   1.401393 A    
C45   N9    1.439169 S    
C151  H34   1.083875 S    
C122  O28   1.221284 D    
O9    Cr2   2.053044 S    
O20   C120  1.265969 A    
Cr3   O13   1.989459 S    
C53   N11   1.437277 S    
C93   C96   1.403162 A    
C134  O66   1.220814 D    
C73   C139  1.486781 S    
C86   C87   1.420884 A    
N4    O39   1.301308 A    
C101  N27   1.437079 S    
N1    O30   1.300770 A    
C132  O54   1.220115 D    
C27   N4    1.432586 S    
C67   N18   1.439508 S    
N17   O75   1.301186 A    
C97   C102  1.425725 A    
C35   C36   1.423088 A    
C47   C134  1.490165 S    
C75   N21   1.443702 S    
C5    C78   1.495640 S    
C157  H40   1.084320 S    
C155  H38   1.085326 S    
C132  H15   1.085243 S    
O12   Cr3   1.929713 S    
C27   C28   1.418731 A    
C44   C129  1.485736 S    
C21   C22   1.415319 A    
C146  H29   1.084418 S    
C67   C72   1.409674 A    
C147  H30   1.084182 S    
C63   C137  1.494458 S    
O16   Cr5   2.041006 S    
C58   C59   1.421940 A    
Cr6   O26   1.982488 S    
C31   C36   1.419225 A    
C89   C146  1.489342 S    
C110  C114  1.426895 A    
N2    O32   1.301050 A    
C40   C124  1.495705 S    
N20   O85   1.299912 A    
C99   C154  1.490062 S    
C145  H28   1.084851 S    
C85   N24   1.437857 S    
C93   C94   1.396092 A    
O2    Cr1   1.922310 S    
C79   C118  1.494265 S    
O21   C118  1.295369 A    
C116  O18   1.281416 A    
C2    O5    1.272777 A    
C121  O27   1.221126 D    
C111  C112  1.417709 A    
N23   O93   1.301098 A    
C46   C47   1.409559 A    
N24   O96   1.300637 A    
O7    C6    1.282211 A    
C159  H42   1.085602 S    
C17   C18   1.409420 A    
C119  O24   1.270131 A    
C141  O89   1.221388 D    
C51   C52   1.421713 A    
O23   Cr5   1.923474 S    
N7    O46   1.299071 A    
O3    Cr2   2.035491 S    
C70   C71   1.408717 A    
C150  H33   1.083124 S    
C138  H21   1.084372 S    
C55   C59   1.410378 A    
C128  O48   1.221316 D    
C126  H9    1.083538 S    
C8    C121  1.485878 S    
C142  O94   1.221329 D    
C136  H19   1.084146 S    
O11   Cr3   2.034201 S    
C51   C59   1.484402 S    
O23   C119  1.289571 A    
C50   C131  1.494697 S    
C109  C110  1.407533 A    
C79   C80   1.418317 A    
C104  C105  1.412347 A    
O4    Cr2   1.936738 S    
C67   C68   1.419751 A    
C83   N25   1.443595 S    
N17   O74   1.300590 A    
C38   C127  1.479898 S    
C87   C95   1.476615 S    
C143  O95   1.219482 D    
C133  O55   1.221028 D    
C21   C24   1.416482 A    
C22   C23   1.416564 A    
O15   Cr4   1.928543 S    
C74   C78   1.415635 A    
C33   C41   1.489373 S    
N25   O103  1.300267 A    
C105  C113  1.487545 S    
C49   C54   1.408598 A    
C103  C108  1.412527 A    
N6    O44   1.300517 A    
N3    O35   1.300839 A    
C149  O107  1.220762 D    
C15   C16   1.410220 A    
C13   N22   1.439970 S    
C125  O37   1.220585 D    
C69   C77   1.495233 S    
C7    C8    1.421435 A    
C66   N15   1.431956 S    
C92   C96   1.421923 A    
C112  C151  1.494744 S    
C48   N8    1.437628 S    
C28   C36   1.497973 S    
C123  O31   1.221419 D    
N14   O67   1.300605 A    
C144  O98   1.220435 D    
C76   C77   1.417533 A    
C160  H43   1.084405 S    
O6    Cr3   1.918084 S    
C32   N3    1.431111 S    
C148  O102  1.220949 D    
C82   C90   1.478601 S    
C73   C74   1.412189 A    
C152  O110  1.220350 D    
C21   C123  1.492982 S    
C9    C10   1.405353 A    
C127  O45   1.220955 D    
C13   C14   1.410535 A    
C81   C144  1.494405 S    
C74   N20   1.450747 S    
C65   C66   1.400873 A    
C133  H16   1.083408 S    
O12   C6    1.281037 A    
N21   O88   1.299826 A    
C7    C12   1.426451 A    
N10   O59   1.300796 A    
C102  C150  1.483827 S    
C125  H8    1.084745 S    
C131  O53   1.220679 D    
C158  O116  1.218622 D    
C1    O3    1.268369 A    
C101  C102  1.392167 A    
N16   O72   1.299686 A    
C109  C157  1.496568 S    
C115  O16   1.285544 A    
C139  H22   1.083297 S    
C37   C38   1.405616 A    
N22   O91   1.300436 A    
C14   N17   1.441920 S    
C34   H2    1.084883 S    
C137  H20   1.084731 S    
C53   C54   1.412949 A    
O21   Cr4   1.920303 S    
C35   C126  1.484277 S    
C98   C99   1.424152 A    
C82   C83   1.407457 A    
C140  O86   1.220945 D    
C43   C44   1.417519 A    
C73   C77   1.416196 A    
C45   C46   1.414639 A    
N8    O50   1.300932 A    
C151  O109  1.219928 D    
C19   C160  1.498192 S    
C130  O52   1.220424 D    
O10   C5    1.280677 A    
C65   C140  1.494534 S    
C37   N6    1.440247 S    
C97   C120  1.491900 S    
N7    O47   1.301613 A    
C100  C108  1.482489 S    
C39   C40   1.423336 A    
C83   C84   1.399052 A    
C25   C26   1.407611 A    
C106  C155  1.483273 S    
C19   C20   1.405947 A    
C103  C153  1.490817 S    
N12   O63   1.300249 A    
O15   C115  1.281589 A    
N28   O120  1.301376 A    
C29   C30   1.398636 A    
O8    Cr1   1.927188 S    
C10   C11   1.404856 A    
C123  H6    1.082119 S    
C153  O111  1.217764 D    
C14   C15   1.416791 A    
C157  O115  1.220581 D    
C98   C149  1.486412 S    
N15   O70   1.301204 A    
C80   C81   1.418051 A    
C3    C42   1.505143 S    
C144  H27   1.081535 S    
N12   O62   1.298930 A    
C20   C122  1.487937 S    
C16   C158  1.484136 S    
C26   N2    1.439035 S    
C50   C51   1.417569 A    
C147  O101  1.220824 D    
C141  H24   1.081281 S    
C52   C53   1.417746 A    
Cr5   O26   1.990175 S    
C26   C27   1.421124 A    
C79   C84   1.422531 A    
C86   C143  1.499495 S    
N2    O33   1.301048 A    
N26   O105  1.298431 A    
N29   O123  1.300883 A    
C145  O99   1.220900 D    
C154  O112  1.220458 D    
C68   C136  1.495260 S    
O1    Cr1   2.043374 S    
C130  H13   1.084089 S    
O10   Cr2   1.918316 S    
O1    C3    1.277866 A    
C155  O113  1.219315 D    
C153  H36   1.084248 S    
N9    O56   1.300132 A    
C37   C41   1.408336 A    
C68   C69   1.422549 A    
O5    Cr3   2.049331 S    
C13   C18   1.409501 A    
C49   C50   1.410653 A    
C19   C23   1.418241 A    
O24   Cr6   2.040623 S    
N23   O92   1.301228 A    
O14   C117  1.291988 A    
C156  H39   1.083802 S    
Cr4   O26   1.989601 S    
O7    Cr1   2.039290 S    
O14   Cr4   2.037823 S    
C159  O117  1.221422 D    
C34   C35   1.397878 A    
N13   O65   1.299781 A    
C76   N16   1.435343 S    
O17   Cr5   1.923433 S    
C32   C33   1.406500 A    
Cr2   O13   1.982509 S    
C106  C107  1.412625 A    
C57   N14   1.437508 S    
C111  C114  1.411008 A    
C134  H17   1.085158 S    
C126  O42   1.219931 D    
C112  C113  1.423714 A    
N4    O38   1.300011 A    
C136  O76   1.218315 D    
N1    O29   1.301292 A    
C55   N12   1.447819 S    
C100  C101  1.398387 A    
N27   O119  1.300674 A    
C87   C88   1.413421 A    
C64   C72   1.486653 S    
C16   C17   1.402117 A    
C152  H35   1.085349 S    
C91   C92   1.414239 A    
C127  H10   1.085217 S    
C139  O83   1.219231 D    
C61   C66   1.420262 A    
O22   Cr5   2.038367 S    
C104  C152  1.486137 S    
C52   N10   1.454031 S    
N25   O104  1.301198 A    
C110  C159  1.490812 S    
N6    O43   1.301189 A    
N3    O36   1.300615 A    
O17   C116  1.278787 A    
N19   O82   1.300153 A    
C64   C65   1.407337 A    
C56   C60   1.422988 A    
C39   C42   1.423882 A    
C85   C86   1.406749 A    
N20   O84   1.302225 A    
C71   C72   1.404423 A    
C1    C60   1.498269 S    
C29   N7    1.441930 S    
C124  H7    1.081616 S    
C75   C76   1.417571 A    
C30   H1    1.083286 S    
C129  H12   1.080842 S    
N5    O40   1.300447 A    
C6    C96   1.483321 S    
C160  O124  1.220638 D    
C63   C64   1.416702 A    
C148  H31   1.083789 S    
C4    O9    1.293516 A    
C44   C45   1.419551 A    
C7    C116  1.490702 S    
C121  H4    1.080391 S    
N5    O41   1.301275 A    
C131  H14   1.083288 S    
C39   C128  1.487448 S    
C5    O11   1.285805 A    
C97   C98   1.423316 A    
C111  N28   1.438413 S    
C99   C100  1.417244 A    
C135  H18   1.084750 S    
N11   O61   1.299230 A    
C43   C48   1.423478 A    
C10   C18   1.471811 S    
C122  H5    1.085458 S    
O6    C3    1.291851 A    
C150  O108  1.220070 D    
C25   C30   1.405555 A    
C85   C90   1.408535 A    
C58   C130  1.492687 S    
C91   C95   1.414712 A    
C109  C113  1.415159 A    
C94   C95   1.409491 A    
C70   C138  1.496538 S    
C107  C156  1.491433 S    
N16   O73   1.300975 A    
N26   O106  1.301434 A    
C31   C32   1.416647 A    
C20   C24   1.421479 A    
Cr1   O13   1.987681 S    
C8    C9    1.406398 A    
C138  O80   1.219743 D    
N19   O81   1.300539 A    
C9    N26   1.435948 S    
N15   O71   1.299215 A    
C91   C147  1.497151 S    
C92   C148  1.479251 S    
C137  O79   1.220986 D    
C149  H32   1.084645 S    
N9    O57   1.298039 A    
C81   C82   1.419778 A    
C89   C90   1.412735 A    
C135  O69   1.221261 D    
N11   O60   1.300957 A    
C71   N19   1.431701 S    
N21   O87   1.301730 A    
C128  H11   1.083657 S    
C17   N29   1.436786 S    
C156  O114  1.219437 D    
N8    O51   1.301270 A    
C33   C34   1.394328 A    
C75   C78   1.412846 A    
N28   O121  1.300125 A    
C4    C114  1.500078 S    
N14   O68   1.301287 A    
C49   C132  1.481313 S    
N18   O77   1.301016 A    
N13   O64   1.300715 A    
C38   C42   1.424573 A    
O20   Cr4   2.045794 S    
O25   C120  1.292938 A    
C22   C133  1.490759 S    
C62   C63   1.426207 A    
O8    C4    1.270793 A    
C56   N13   1.431115 S    
C142  H25   1.084472 S    
C62   C135  1.486416 S    
O2    C1    1.295061 A    
C103  C104  1.415844 A    
C31   C125  1.481811 S    
O19   C117  1.277196 A    
N24   O97   1.300739 A    
N27   O118  1.299517 A    
C15   C23   1.480475 S    
C61   C119  1.493663 S    
C2    C24   1.494002 S    
C46   C54   1.490768 S    
N10   O58   1.300725 A    
C57   C60   1.414861 A    
C61   C62   1.421011 A    
C43   C117  1.502933 S    
C47   C48   1.407572 A    
O25   Cr6   1.930251 S    
C11   C12   1.402956 A    
C93   H3    1.083735 S    
C94   C142  1.487914 S    
C158  H41   1.085218 S    
C88   C145  1.491085 S    
C25   C115  1.488011 S    
O18   Cr6   2.047707 S    
C105  C106  1.411367 A    
C140  H23   1.083558 S    
