data_mof_unit_23145.cif
_audit_creation_date              2012-10-26T20:25:25-0400
_audit_creation_method            fapswitch 2.2
_symmetry_space_group_name_H-M    P1
_symmetry_Int_Tables_number       1
_space_group_crystal_system       triclinic
_cell_length_a                    23.474697
_cell_length_b                    10.711524
_cell_length_c                    9.486364
_cell_angle_alpha                 90.219298
_cell_angle_beta                  90.0652
_cell_angle_gamma                 91.648094
_cell_volume                      2384.33806435

loop_
_atom_site_label
_atom_site_type_symbol
_atom_type_description
_atom_site_fract_x
_atom_site_fract_y
_atom_site_fract_z
_atom_type_partial_charge
C1    C     C_R   0.499867 0.259576 0.499652 0.543572
C2    C     C_R   0.699106 0.587863 0.604404 -0.150143
C3    C     C_R   0.240663 0.435591 0.628622 0.188413
C4    C     C_R   0.758537 0.589940 0.616476 0.192959
C5    C     C_R   0.208737 0.472377 0.510710 0.269073
C6    C     C_R   0.790994 0.525423 0.516082 0.262838
C7    C     C_3   0.547130 0.045760 0.565942 -0.124763
C8    C     C_3   0.452730 0.954326 0.434302 -0.123724
C9    C     C_3   0.545985 0.962007 0.433206 0.018193
C10   C     C_3   0.453890 0.038117 0.567050 0.019650
C11   C     C_3   0.500106 0.877575 0.501200 0.030079
C12   C     C_R   0.500095 0.740443 0.500377 0.543187
C13   C     C_3   0.499778 0.122483 0.498985 0.030918
C14   C     C_3   0.500733 0.959894 0.634874 -0.117073
C15   C     C_3   0.499137 0.040174 0.365351 -0.116579
C16   C     C_R   0.391093 0.496405 0.500046 0.545302
C17   C     C_R   0.608825 0.503765 0.500009 0.544796
C18   C     C_3   0.500635 0.613267 0.051817 0.006956
C19   C     C_3   0.499219 0.386657 0.948202 0.006421
C20   C     C_3   0.455947 0.554828 0.950871 0.113934
C21   C     C_3   0.543831 0.444950 0.048998 0.118305
C22   C     C_3   0.544556 0.557761 0.951344 0.116471
C23   C     C_R   0.237033 0.512318 0.387942 -0.090254
C24   C     C_3   0.455265 0.442070 0.049107 0.112486
C25   C     C_R   0.885324 0.624695 0.530013 0.432125
C26   C     C_R   0.115221 0.373737 0.537708 0.431530
C27   C     C_R   0.875224 0.403781 0.546857 0.369037
C28   C     C_R   0.124157 0.594886 0.516465 0.371479
C29   C     C_R   0.935446 0.390904 0.551332 0.001599
C30   C     C_R   0.064345 0.607741 0.531866 0.003728
C31   C     C_R   0.970038 0.501636 0.546229 -0.092373
C32   C     C_R   0.030127 0.496549 0.543781 -0.091883
C33   C     C_R   0.944558 0.618305 0.547477 0.032476
C34   C     C_R   0.762977 0.459106 0.406911 -0.094447
C35   C     C_R   0.055907 0.380382 0.556137 0.031855
C36   C     C_R   0.962399 0.274156 0.569218 0.008180
C37   C     C_R   0.037574 0.725542 0.545865 0.007955
C38   C     C_R   0.022266 0.273739 0.590207 0.153673
C39   C     C_R   0.978259 0.726209 0.573807 0.157121
C40   C     C_3   0.929500 0.150106 0.561501 -0.220510
C41   C     C_3   0.905704 0.111615 0.705711 -0.392057
C42   C     C_3   0.070193 0.849861 0.534377 -0.223273
C43   C     C_3   0.100050 0.885248 0.673130 -0.397534
C44   C     C_3   0.404698 0.624235 0.893630 -0.259508
C45   C     C_R   0.296378 0.520221 0.383794 -0.166223
C46   C     C_3   0.378574 0.708786 0.004519 -0.482422
C47   C     C_3   0.595497 0.376946 0.105290 -0.266837
C48   C     C_3   0.621509 0.291732 0.994715 -0.481594
C49   C     C_3   0.597102 0.628234 0.894703 -0.265634
C50   C     C_3   0.624147 0.716551 0.003949 -0.483622
C51   C     C_3   0.403566 0.368891 0.107911 -0.255424
C52   C     C_3   0.377897 0.276964 0.000676 -0.485167
C53   C     C_3   0.063973 0.202502 0.807346 -0.283277
C54   C     C_3   0.940605 0.791580 0.798066 -0.288749
C55   C     C_3   0.197900 0.496742 0.848050 -0.313648
C56   C     C_R   0.703666 0.451535 0.401296 -0.168683
C57   C     C_3   0.797991 0.573361 0.849587 -0.312615
C58   C     C_3   0.598619 0.914660 0.357750 -0.270389
C59   C     C_3   0.634031 0.022000 0.294345 -0.443451
C60   C     C_3   0.401398 0.085988 0.642772 -0.273400
C61   C     C_3   0.365679 0.979006 0.705840 -0.440924
C62   C     C_R   0.328438 0.485696 0.501333 -0.024500
C63   C     C_R   0.671323 0.514766 0.501057 -0.021229
C64   C     C_R   0.300188 0.440202 0.621671 -0.148591
Cu1   Cu    Cu3+1 0.500010 0.499990 0.643150 0.893769
Cu2   Cu    Cu3+1 0.499990 0.500010 0.356850 0.894123
H1    H     H_    0.501464 0.708184 0.099181 0.104622
H2    H     H_    0.413997 0.914775 0.381454 0.108638
H3    H     H_    0.501107 0.925308 0.745069 0.107361
H4    H     H_    0.498753 0.074757 0.255155 0.107612
H5    H     H_    0.940743 0.088246 0.778540 0.117939
H6    H     H_    0.881644 0.187600 0.755517 0.191775
H7    H     H_    0.876679 0.028681 0.693121 0.182145
H8    H     H_    0.956569 0.076473 0.518004 0.112344
H9    H     H_    0.895567 0.151323 0.480439 0.200138
H10   H     H_    0.068155 0.901848 0.756814 0.119693
H11   H     H_    0.127945 0.810366 0.710333 0.185926
H12   H     H_    0.498569 0.291787 0.900736 0.105040
H13   H     H_    0.126545 0.971677 0.658169 0.188448
H14   H     H_    0.041708 0.925163 0.502045 0.111723
H15   H     H_    0.100227 0.850596 0.444589 0.203249
H16   H     H_    0.368404 0.655819 0.101793 0.154749
H17   H     H_    0.408450 0.787738 0.030781 0.136652
H18   H     H_    0.338676 0.747735 0.962498 0.140585
H19   H     H_    0.418253 0.683019 0.803066 0.185816
H20   H     H_    0.371721 0.555231 0.857975 0.151396
H21   H     H_    0.591531 0.212837 0.968954 0.136685
H22   H     H_    0.631962 0.343928 0.896912 0.166425
H23   H     H_    0.212819 0.541474 0.297187 0.126377
H24   H     H_    0.661289 0.252611 0.037196 0.138307
H25   H     H_    0.628143 0.447701 0.138325 0.149438
H26   H     H_    0.582662 0.318999 0.197147 0.182692
H27   H     H_    0.595781 0.795751 0.024333 0.135130
H28   H     H_    0.632287 0.667116 0.104250 0.161532
H29   H     H_    0.665313 0.754870 0.962917 0.138775
H30   H     H_    0.628849 0.558979 0.863436 0.150871
H31   H     H_    0.584945 0.684050 0.801732 0.178761
H32   H     H_    0.370358 0.324012 0.898950 0.147207
H33   H     H_    0.407005 0.198434 0.983697 0.134540
H34   H     H_    0.787366 0.408617 0.329665 0.129230
H35   H     H_    0.336677 0.238177 0.040802 0.144814
H36   H     H_    0.416487 0.315249 0.201803 0.187248
H37   H     H_    0.370599 0.435229 0.139221 0.146773
H38   H     H_    0.028422 0.087854 0.655038 0.234035
H39   H     H_    0.086031 0.122352 0.854324 0.134017
H40   H     H_    0.025277 0.220929 0.870614 0.122544
H41   H     H_    0.093452 0.285332 0.812586 0.183956
H42   H     H_    0.974665 0.909429 0.649457 0.234007
H43   H     H_    0.919674 0.870207 0.851620 0.133071
H44   H     H_    0.980347 0.770739 0.856141 0.123237
H45   H     H_    0.316978 0.556584 0.290253 0.113229
H46   H     H_    0.910996 0.709102 0.802586 0.176691
H47   H     H_    0.234554 0.327334 0.807694 0.243633
H48   H     H_    0.174727 0.458024 0.940801 0.131194
H49   H     H_    0.169542 0.562252 0.793533 0.172855
H50   H     H_    0.236870 0.548321 0.885441 0.132857
H51   H     H_    0.764129 0.732013 0.763922 0.245526
H52   H     H_    0.820013 0.629078 0.933366 0.131480
H53   H     H_    0.826540 0.497930 0.816011 0.174733
H54   H     H_    0.758022 0.531441 0.893911 0.133754
H55   H     H_    0.608663 0.072108 0.214772 0.142704
H56   H     H_    0.683311 0.392653 0.322325 0.111344
H57   H     H_    0.648286 0.088710 0.378018 0.159785
H58   H     H_    0.672174 0.984513 0.241690 0.146716
H59   H     H_    0.625033 0.863100 0.433992 0.145448
H60   H     H_    0.584809 0.849255 0.272604 0.152010
H61   H     H_    0.351204 0.912757 0.621932 0.163721
H62   H     H_    0.390911 0.928305 0.785185 0.143656
H63   H     H_    0.327671 0.016945 0.758684 0.144755
H64   H     H_    0.415388 0.150962 0.728198 0.150424
H65   H     H_    0.375122 0.138169 0.566795 0.146761
H66   H     H_    0.324261 0.409974 0.711608 0.103150
H67   H     H_    0.674702 0.642208 0.677284 0.097518
H68   H     H_    0.585862 0.085309 0.618796 0.108961
N1    N     N_R   0.852031 0.518361 0.529738 -0.391047
N2    N     N_R   0.147701 0.479801 0.519263 -0.389014
N3    N     N_3   0.500040 0.499970 0.858290 -0.247461
N4    N     N_3   0.499960 0.500030 0.141710 -0.247557
N5    N     N_2   0.048312 0.173617 0.662787 -0.471550
N6    N     N_2   0.953784 0.824702 0.653373 -0.471449
N7    N     N_2   0.213153 0.395851 0.754946 -0.492839
N8    N     N_2   0.785150 0.653486 0.732047 -0.480298
O1    O     O_R   0.500030 0.316850 0.620870 -0.505126
O2    O     O_2   0.140263 0.261895 0.533975 -0.463330
O3    O     O_2   0.839345 0.304654 0.563295 -0.539532
O4    O     O_2   0.159444 0.695147 0.501203 -0.538934
O5    O     O_R   0.499970 0.683150 0.379130 -0.505019
O6    O     O_R   0.500000 0.316860 0.379090 -0.524568
O7    O     O_R   0.500000 0.683140 0.620910 -0.523784
O8    O     O_R   0.417890 0.499960 0.620920 -0.513224
O9    O     O_R   0.582110 0.500040 0.379080 -0.510393
O10   O     O_R   0.417870 0.499970 0.379140 -0.509279
O11   O     O_R   0.582130 0.500030 0.620860 -0.507254
O12   O     O_2   0.861382 0.736319 0.509866 -0.458469

loop_
_geom_bond_atom_site_label_1
_geom_bond_atom_site_label_2
_ccdc_geom_bond_type
C59   H55   S    
C5    N2    S    
C34   C56   A    
C23   C45   A    
C27   C29   A    
C47   H26   S    
C10   C60   S    
C3    N7    S    
C17   O11   A    
C49   C50   S    
C3    C64   A    
C51   H36   S    
C42   H14   S    
C22   N3    S    
C33   C39   A    
C57   N8    S    
C55   N7    S    
C12   O5    A    
C19   C21   S    
C4    N8    S    
Cu1   O1    S    
C11   C14   S    
C44   H20   S    
C50   H29   S    
C55   H50   S    
C51   H37   S    
C45   C62   A    
Cu1   O8    S    
C54   H44   S    
C9    C58   S    
C52   H32   S    
C37   C42   S    
C18   N4    S    
C62   C64   A    
C46   H16   S    
C53   H40   S    
C7    C14   S    
C54   N6    S    
C20   C24   S    
C40   H8    S    
Cu2   N4    S    
C34   H34   S    
C38   N5    S    
C48   H22   S    
Cu2   O6    S    
C61   H63   S    
C41   H5    S    
Cu1   N3    S    
C24   C51   S    
C48   H24   S    
C21   C22   S    
C17   O9    A    
C42   H15   S    
C16   C62   S    
C21   N4    S    
C26   O2    S    
C60   H65   S    
C20   C44   S    
C44   C46   S    
C59   H57   S    
C37   C39   A    
C52   H35   S    
C48   H21   S    
C2    H67   S    
C51   C52   S    
C32   C35   A    
C64   H66   S    
C36   C40   S    
C35   C38   A    
C7    H68   S    
C61   H61   S    
C10   C14   S    
C60   H64   S    
H42   N6    S    
C50   H28   S    
C24   N4    S    
C18   H1    S    
C49   H31   S    
C6    C34   A    
C30   C37   A    
C60   C61   S    
C56   H56   S    
C20   N3    S    
C19   H12   S    
C2    C4    A    
Cu2   O10   S    
C6    N1    S    
C1    O1    A    
C19   N3    S    
C53   H41   S    
C47   C48   S    
C5    C23   A    
C27   O3    S    
C31   C33   A    
C23   H23   S    
C56   C63   A    
C54   H46   S    
C16   O10   A    
C9    C11   S    
Cu2   O5    S    
C57   H54   S    
C46   H18   S    
C4    C6    A    
C40   C41   S    
C58   H60   S    
C8    C15   S    
C13   C15   S    
C59   H58   S    
C14   H3    S    
C1    C13   S    
C42   C43   S    
C44   H19   S    
C2    C63   A    
Cu1   O11   S    
C43   H10   S    
C7    C9    S    
C15   H4    S    
C39   N6    S    
C25   O12   S    
C53   N5    S    
C47   H25   S    
C12   O7    A    
C31   C32   A    
C29   C36   A    
C22   C49   S    
C3    C5    A    
C10   C13   S    
C11   C12   S    
C40   H9    S    
C50   H27   S    
C8    H2    S    
C55   H48   S    
C43   H11   S    
C52   H33   S    
C28   O4    S    
H38   N5    S    
C57   H53   S    
C28   N2    A    
C27   N1    A    
C18   C22   S    
H51   N8    S    
C58   C59   S    
Cu2   O9    S    
C29   C31   A    
C45   H45   S    
C17   C63   S    
C36   C38   A    
C30   C32   A    
C55   H49   S    
C8    C11   S    
C28   C30   A    
H47   N7    S    
C19   C24   S    
C61   H62   S    
C18   C20   S    
C49   H30   S    
Cu1   O7    S    
C25   N1    A    
C26   N2    A    
C41   H7    S    
C46   H17   S    
C53   H39   S    
C26   C35   A    
C7    C13   S    
C54   H43   S    
C58   H59   S    
C8    C10   S    
Cu1   Cu2   S    
C1    O6    A    
C16   O8    A    
C43   H13   S    
C41   H6    S    
C9    C15   S    
C25   C33   A    
C57   H52   S    
C21   C47   S    
