data_mof_unit_56302.cif
_audit_creation_date              2012-12-11T16:28:27-0500
_audit_creation_method            fapswitch 2.2
_symmetry_space_group_name_H-M    P1
_symmetry_Int_Tables_number       1
_space_group_crystal_system       triclinic
_cell_length_a                    16.542903
_cell_length_b                    7.250342
_cell_length_c                    15.26637
_cell_angle_alpha                 90.000059
_cell_angle_beta                  94.676243
_cell_angle_gamma                 90.000017
_cell_volume                      1824.97929663

loop_
_atom_site_label
_atom_site_type_symbol
_atom_type_description
_atom_site_fract_x
_atom_site_fract_y
_atom_site_fract_z
_atom_type_partial_charge
O1    O     O_R   0.663460 0.361760 0.165970 -0.534465
O2    O     O_R   0.336540 0.638240 0.834030 -0.534465
O3    O     O_R   0.836540 0.861760 0.334030 -0.534464
O4    O     O_R   0.163460 0.138240 0.665970 -0.534466
O5    O     O_R   0.827100 0.689870 0.163730 -0.528634
O6    O     O_R   0.172900 0.310130 0.836270 -0.528634
O7    O     O_R   0.672900 0.189870 0.336270 -0.528635
O8    O     O_R   0.327100 0.810130 0.663730 -0.528633
H1    H     H_    0.205000 0.137792 0.512205 0.150981
H2    H     H_    0.794999 0.862221 0.487797 0.150977
H3    H     H_    0.295000 0.637789 0.987795 0.150981
H4    H     H_    0.705000 0.362214 0.012205 0.150979
C1    C     C_R   0.853269 0.522890 0.143541 0.702446
C2    C     C_R   0.146731 0.477110 0.856458 0.702445
C3    C     C_R   0.646731 0.022890 0.356459 0.702445
C4    C     C_R   0.353269 0.977110 0.643541 0.702447
O9    O     O_R   0.663490 0.691370 0.155500 -0.536660
O10   O     O_R   0.336510 0.308630 0.844500 -0.536659
O11   O     O_R   0.836510 0.191370 0.344500 -0.536660
O12   O     O_R   0.163490 0.808630 0.655500 -0.536660
O13   O     O_R   0.671770 0.863320 0.325740 -0.535194
O14   O     O_R   0.328230 0.136680 0.674260 -0.535195
O15   O     O_R   0.828230 0.363320 0.174260 -0.535195
O16   O     O_R   0.171770 0.636680 0.825740 -0.535195
C5    C     C_R   0.635667 0.523291 0.134245 0.676050
C6    C     C_R   0.364333 0.476709 0.865754 0.676050
C7    C     C_R   0.864333 0.023291 0.365754 0.676050
C8    C     C_R   0.135667 0.976708 0.634245 0.676049
O17   O     O_3   0.752910 0.528800 0.305860 -0.369384
O18   O     O_3   0.247090 0.471200 0.694140 -0.369383
O19   O     O_3   0.747090 0.028800 0.194140 -0.369384
O20   O     O_3   0.252910 0.971200 0.805860 -0.369383
V1    V     V_3+5 0.749460 0.803010 0.239640 1.465365
V2    V     V_3+5 0.250540 0.196990 0.760360 1.465364
V3    V     V_3+5 0.750540 0.303010 0.260360 1.465363
V4    V     V_3+5 0.249460 0.696990 0.739640 1.465366
C9    C     C_1   0.468828 0.994856 0.530116 0.029016
C10   C     C_1   0.531172 0.005144 0.469884 0.029016
C11   C     C_1   0.031172 0.494856 0.969884 0.029014
C12   C     C_1   0.968827 0.505143 0.030115 0.029016
C13   C     C_R   0.020441 0.195589 0.342370 -0.266263
C14   C     C_R   0.979559 0.804406 0.657629 -0.266263
C15   C     C_R   0.479560 0.695592 0.157630 -0.266261
C16   C     C_R   0.520441 0.304410 0.842370 -0.266262
C17   C     C_R   0.095200 0.275914 0.327718 0.283501
C18   C     C_R   0.904800 0.724085 0.672281 0.283496
C19   C     C_R   0.404801 0.775916 0.172282 0.283498
C20   C     C_R   0.595200 0.224088 0.827717 0.283500
C21   C     C_R   0.161210 0.252460 0.390066 0.319286
C22   C     C_R   0.838789 0.747548 0.609935 0.319289
C23   C     C_R   0.338790 0.752459 0.109935 0.319287
C24   C     C_R   0.661210 0.247546 0.890065 0.319286
C25   C     C_R   0.151741 0.154446 0.466982 -0.227674
C26   C     C_R   0.848257 0.845562 0.533019 -0.227676
C27   C     C_R   0.348259 0.654444 0.033018 -0.227675
C28   C     C_R   0.651742 0.345558 0.966982 -0.227674
C29   C     C_R   0.075894 0.079777 0.485053 0.022175
C30   C     C_R   0.924106 0.920225 0.514947 0.022175
C31   C     C_R   0.424106 0.579777 0.014947 0.022174
C32   C     C_R   0.575894 0.420224 0.985053 0.022175
C33   C     C_R   0.009146 0.097170 0.420625 0.038961
C34   C     C_R   0.990854 0.902829 0.579375 0.038959
C35   C     C_R   0.490855 0.597171 0.079375 0.038960
C36   C     C_R   0.509146 0.402830 0.920625 0.038961
C37   C     C_R   0.066683 0.985159 0.565053 -0.110949
C38   C     C_R   0.933317 0.014841 0.434947 -0.110948
C39   C     C_R   0.433317 0.485160 0.934947 -0.110948
C40   C     C_R   0.566683 0.514840 0.065053 -0.110948
C41   C     C_1   0.415978 0.986328 0.581427 -0.168062
C42   C     C_1   0.584022 0.013672 0.418573 -0.168062
C43   C     C_1   0.084022 0.486328 0.918572 -0.168060
C44   C     C_1   0.915978 0.513672 0.081427 -0.168061
H5    H     H_    0.971788 0.211521 0.291271 0.135000
H6    H     H_    0.028213 0.788468 0.708726 0.135003
H7    H     H_    0.528213 0.711525 0.208728 0.135001
H8    H     H_    0.471788 0.288477 0.791271 0.135000
N1    N     N_2   0.102728 0.386032 0.251665 -0.495204
H9    H     H_    0.050537 0.457164 0.231270 0.249782
C45   C     C_3   0.136177 0.290589 0.179759 -0.380039
H10   H     H_    0.094317 0.179361 0.154439 0.190908
H11   H     H_    0.196234 0.230599 0.201217 0.263657
H12   H     H_    0.144625 0.389614 0.125802 0.204440
N2    N     N_2   0.897271 0.613959 0.748331 -0.495201
H13   H     H_    0.949459 0.542806 0.768719 0.249784
C46   C     C_3   0.863834 0.709402 0.820244 -0.380040
H14   H     H_    0.905714 0.820580 0.845581 0.190880
H15   H     H_    0.855363 0.610358 0.874189 0.204461
H16   H     H_    0.803788 0.769459 0.798787 0.263657
N3    N     N_2   0.397272 0.886040 0.248332 -0.495204
H17   H     H_    0.449462 0.957180 0.268725 0.249783
C47   C     C_3   0.363827 0.790600 0.320242 -0.380039
H18   H     H_    0.405696 0.679397 0.345573 0.190895
H19   H     H_    0.303776 0.730578 0.298782 0.263657
H20   H     H_    0.355366 0.889638 0.374192 0.204451
N4    N     N_2   0.602729 0.113968 0.751666 -0.495200
H21   H     H_    0.550539 0.042828 0.731272 0.249784
C48   C     C_3   0.636173 0.209413 0.679757 -0.380034
H22   H     H_    0.594305 0.320619 0.654428 0.190895
H23   H     H_    0.644633 0.110379 0.625805 0.204450
H24   H     H_    0.696226 0.269433 0.701217 0.263656
Br1   Br    Br    0.734522 0.643650 0.625931 -0.579034
Br2   Br    Br    0.265475 0.356373 0.374074 -0.579045
Br3   Br    Br    0.765476 0.143640 0.874071 -0.579040
Br4   Br    Br    0.234525 0.856369 0.125927 -0.579041

loop_
_geom_bond_atom_site_label_1
_geom_bond_atom_site_label_2
_ccdc_geom_bond_type
C30   C34   A    
C16   C20   A    
C10   C42   T    
C24   Br3   S    
C20   N4    S    
C27   C31   A    
C2    C43   S    
N4    H21   S    
O10   C6    A    
C13   C33   A    
C48   H22   S    
C15   C35   A    
N1    H9    S    
C16   C36   A    
C22   C26   A    
C6    C39   S    
C9    C41   T    
C14   C18   A    
C18   N2    S    
C47   H19   S    
O3    V1    S    
C1    O15   A    
O8    V4    S    
C2    O16   A    
C16   H8    S    
C31   C39   A    
C33   C38   A    
C30   C38   A    
O5    V1    S    
O19   V1    S    
N3    C47   S    
O11   C7    A    
C14   C34   A    
O5    C1    A    
C47   H18   S    
O7    C3    A    
O8    C4    A    
C11   C43   T    
O1    C5    A    
C19   N3    S    
C5    C40   S    
O9    V1    S    
C48   H23   S    
N1    C45   S    
C15   H7    S    
O14   V2    S    
O4    V2    S    
C14   H6    S    
C46   H15   S    
C36   C39   A    
C21   Br2   S    
C45   H11   S    
C25   C29   A    
C19   C23   A    
O12   C8    A    
C23   Br4   S    
C46   H14   S    
O6    V2    S    
O20   V2    S    
C9    C10   S    
O6    C2    A    
N2    H13   S    
C17   C21   A    
O2    C6    A    
O16   V4    S    
O10   V2    S    
H4    C28   S    
N2    C46   S    
O15   V3    S    
H1    C25   S    
C11   C12   S    
C48   H24   S    
H3    C27   S    
O1    V3    S    
C26   C30   A    
C46   H16   S    
O2    V4    S    
C3    C42   S    
O17   V3    S    
C35   C40   A    
C4    O14   A    
C12   C44   T    
C34   C37   A    
O7    V3    S    
C4    C41   S    
C29   C37   A    
C45   H12   S    
N4    C48   S    
C29   C33   A    
C1    C44   S    
C18   C22   A    
C31   C35   A    
O18   V4    S    
C32   C36   A    
O9    C5    A    
O3    C7    A    
C8    C37   S    
C7    C38   S    
O11   V3    S    
C47   H20   S    
C3    O13   A    
C21   C25   A    
C23   C27   A    
H2    C26   S    
C13   H5    S    
C45   H10   S    
O12   V4    S    
C28   C32   A    
C20   C24   A    
O13   V1    S    
C32   C40   A    
C22   Br1   S    
O4    C8    A    
C13   C17   A    
C17   N1    S    
N3    H17   S    
C15   C19   A    
C24   C28   A    
