data_mof_unit_56205.cif
_audit_creation_date              2013-03-05T15:55:31-0500
_audit_creation_method            fapswitch 2.2
_symmetry_space_group_name_H-M    P1
_symmetry_Int_Tables_number       1
_space_group_crystal_system       triclinic
_cell_length_a                    20.069826
_cell_length_b                    7.267532
_cell_length_c                    13.859583
_cell_angle_alpha                 90.002672
_cell_angle_beta                  103.074986
_cell_angle_gamma                 89.999
_cell_volume                      1969.12389519

loop_
_atom_site_label
_atom_site_type_symbol
_atom_site_description
_atom_site_fract_x
_atom_site_fract_y
_atom_site_fract_z
_atom_type_partial_charge
O1    O     O_R   0.449560 0.506810 0.599700 -0.560898
O2    O     O_R   0.550440 0.006810 0.400300 -0.560989
O3    O     O_R   0.587960 0.180060 0.595760 -0.582792
O4    O     O_R   0.412040 0.680060 0.404240 -0.582785
C1    C     C_R   0.616216 0.343240 0.613143 1.042130
C2    C     C_R   0.383773 0.843231 0.386887 1.042345
O5    O     O_R   0.452380 0.177430 0.611700 -0.589431
O6    O     O_R   0.547620 0.677430 0.388300 -0.589380
O7    O     O_R   0.413900 0.001890 0.416350 -0.575971
O8    O     O_R   0.586100 0.501890 0.583650 -0.575804
C3    C     C_R   0.436046 0.346569 0.636500 1.081758
C4    C     C_R   0.563956 0.846563 0.363502 1.081775
O9    O     O_3   0.487530 0.337490 0.435890 -0.279152
O10   O     O_3   0.512470 0.837490 0.564110 -0.279050
V1    V     V_3+5 0.502310 0.064660 0.511890 1.330255
V2    V     V_3+5 0.497690 0.564660 0.488110 1.330267
C5    C     C_R   0.611611 0.029870 0.134842 -0.258836
C6    C     C_R   0.388390 0.529856 0.865174 -0.258864
C7    C     C_R   0.601484 0.866066 0.284664 -0.324230
C8    C     C_R   0.398517 0.366078 0.715337 -0.324168
C9    C     C_R   0.928514 0.838666 0.311046 -0.168161
C10   C     C_R   0.071492 0.338664 0.688962 -0.168276
C11   C     C_R   0.892563 0.840582 0.385716 -0.075770
C12   C     C_R   0.107442 0.340587 0.614292 -0.075656
C13   C     C_R   0.821618 0.856588 0.362418 -0.138055
C14   C     C_R   0.178388 0.356583 0.637593 -0.138036
C15   C     C_R   0.784416 0.865611 0.262905 0.128191
C16   C     C_R   0.215589 0.365579 0.737108 0.128110
C17   C     C_R   0.821115 0.874848 0.186866 0.055946
C18   C     C_R   0.178890 0.374800 0.813149 0.055938
C19   C     C_R   0.711553 0.876379 0.237589 0.061284
C20   C     C_R   0.288451 0.376352 0.762422 0.061259
C21   C     C_R   0.679441 0.961535 0.146465 0.034799
C22   C     C_R   0.320563 0.461501 0.853551 0.034810
C23   C     C_R   0.715536 0.965310 0.069324 -0.139271
C24   C     C_R   0.284470 0.465255 0.930696 -0.139176
C25   C     C_R   0.783364 0.900482 0.088568 -0.172503
C26   C     C_R   0.216643 0.400418 0.911449 -0.172520
C27   C     C_R   0.670008 0.806857 0.299871 -0.147121
C28   C     C_R   0.329996 0.306852 0.700130 -0.147221
C29   C     C_R   0.573443 0.982557 0.204545 0.276276
C30   C     C_R   0.426557 0.482567 0.795462 0.276285
C31   C     C_R   0.894123 0.857971 0.211907 -0.133221
C32   C     C_R   0.105882 0.357946 0.788103 -0.133214
H1    H     H_    0.983782 0.827290 0.330868 0.101801
H2    H     H_    0.016223 0.327306 0.669138 0.101772
H3    H     H_    0.796591 0.868979 0.423434 0.156461
H4    H     H_    0.203415 0.368991 0.576579 0.156629
H5    H     H_    0.919964 0.832395 0.462439 0.123893
H6    H     H_    0.080042 0.332421 0.537568 0.123978
C33   C     C_R   0.224782 0.012511 0.207722 -0.034039
C34   C     C_R   0.775183 0.512460 0.792385 -0.034287
H7    H     H_    0.209134 0.140504 0.172325 0.152970
H8    H     H_    0.790827 0.640437 0.827800 0.153087
C35   C     C_R   0.289956 0.005331 0.269435 0.016228
C36   C     C_R   0.709993 0.505273 0.730716 0.016816
H9    H     H_    0.322714 0.124977 0.273921 0.180799
H10   H     H_    0.677207 0.624847 0.726313 0.181205
C37   C     C_R   0.312635 0.847342 0.324633 -0.294096
C38   C     C_R   0.687335 0.347364 0.675441 -0.294337
C39   C     C_R   0.266451 0.696562 0.318861 0.371129
C40   C     C_R   0.733514 0.196615 0.681187 0.371447
C41   C     C_R   0.202700 0.701444 0.250029 -0.174306
C42   C     C_R   0.797273 0.201434 0.749982 -0.174480
H11   H     H_    0.167969 0.586328 0.245871 0.153573
H12   H     H_    0.831983 0.086278 0.754084 0.153213
C43   C     C_R   0.181496 0.858272 0.192176 -0.161617
C44   C     C_R   0.818489 0.358250 0.807856 -0.161583
O11   O     O_R   0.913920 0.203370 0.916260 -0.563400
O12   O     O_R   0.086080 0.703370 0.083740 -0.563423
O13   O     O_R   0.047620 0.535540 0.888290 -0.578578
O14   O     O_R   0.952380 0.035540 0.111710 -0.578589
C45   C     C_R   0.063655 0.367994 0.862362 0.885163
C46   C     C_R   0.936349 0.868001 0.137645 0.885162
O15   O     O_R   0.912040 0.532780 0.904220 -0.601454
O16   O     O_R   0.087960 0.032780 0.095780 -0.601422
O17   O     O_R   0.949550 0.708160 0.099720 -0.564098
O18   O     O_R   0.050450 0.208160 0.900280 -0.564161
C47   C     C_R   0.886168 0.364605 0.880794 1.000166
C48   C     C_R   0.113830 0.864611 0.119210 1.000195
O19   O     O_3   0.012480 0.375300 0.064060 -0.301236
O20   O     O_3   0.987520 0.875300 0.935940 -0.301269
V3    V     V_3+5 0.997690 0.648180 0.988110 1.217812
V4    V     V_3+5 0.002310 0.148180 0.011890 1.217845
N1    N     N_R   0.506295 0.058860 0.196028 0.246368
O21   O     O_R   0.453766 0.951335 0.190896 -0.405499
O22   O     O_R   0.499189 0.235407 0.205153 -0.358626
N2    N     N_R   0.493702 0.558880 0.803982 0.246354
O23   O     O_R   0.500805 0.735429 0.794871 -0.358612
O24   O     O_R   0.546234 0.451362 0.809115 -0.405580
N3    N     N_R   0.280653 0.545130 0.387052 0.231315
O25   O     O_R   0.255905 0.382997 0.359987 -0.426353
O26   O     O_R   0.304696 0.576846 0.480884 -0.430493
N4    N     N_R   0.719263 0.045203 0.613021 0.231326
O27   O     O_R   0.743320 0.882502 0.640470 -0.426094
O28   O     O_R   0.695611 0.076922 0.519092 -0.430809
C49   C     C_2   0.681017 0.006556 0.965032 1.016733
O29   O     O_2   0.702426 0.130952 0.920873 -0.570295
O30   O     O_R   0.624922 0.901805 0.917291 -0.732655
H13   H     H_    0.606787 0.943180 0.846355 0.358110
C50   C     C_2   0.318988 0.506513 0.034989 1.016613
O31   O     O_2   0.297571 0.630897 0.079153 -0.570358
O32   O     O_R   0.375091 0.401789 0.082723 -0.732635
H14   H     H_    0.393225 0.443176 0.153659 0.358061
C51   C     C_2   0.581199 0.164721 0.056735 1.140427
O33   O     O_2   0.612719 0.304230 0.045605 -0.560038
O34   O     O_R   0.515785 0.133831 0.997839 -0.711043
H15   H     H_    0.500194 0.236029 0.948226 0.356589
C52   C     C_2   0.418800 0.664701 0.943290 1.140451
O35   O     O_2   0.387277 0.804202 0.954433 -0.560023
O36   O     O_R   0.484216 0.633817 0.002179 -0.711051
H16   H     H_    0.499807 0.736012 0.051798 0.356583
C53   C     C_2   0.695521 0.655881 0.371602 1.020587
O37   O     O_2   0.686882 0.661552 0.456079 -0.601529
O38   O     O_R   0.730917 0.508190 0.342052 -0.772687
H17   H     H_    0.746102 0.414366 0.396759 0.334654
C54   C     C_2   0.304485 0.155883 0.628386 1.020723
O39   O     O_2   0.313123 0.161569 0.543909 -0.601602
O40   O     O_R   0.269090 0.008184 0.657922 -0.772698
H18   H     H_    0.253907 0.914366 0.603208 0.334611
C55   C     C_2   0.808722 0.822755 0.006358 0.974391
O41   O     O_2   0.816756 0.656492 0.003540 -0.615928
O42   O     O_R   0.825405 0.938276 0.935209 -0.767116
H19   H     H_    0.851846 0.873588 0.891174 0.320303
C56   C     C_2   0.191283 0.322719 0.993663 0.974430
O43   O     O_2   0.183273 0.156452 0.996513 -0.615896
O44   O     O_R   0.174580 0.438274 0.064787 -0.767175
H20   H     H_    0.148142 0.373596 0.108825 0.320317

loop_
_geom_bond_atom_site_label_1
_geom_bond_atom_site_label_2
_geom_bond_distance
_ccdc_geom_bond_type
C41   H11   1.082099 S    
C50   O31   1.222925 D    
C35   C37   1.397605 A    
C15   C17   1.417350 A    
O36   H16   1.012448 S    
O1    C3    1.323841 A    
C6    C52   1.485254 S    
O2    C4    1.323828 A    
O16   V4    2.026289 S    
C2    O7    1.322928 A    
C49   O29   1.222926 D    
O42   H19   1.010740 S    
N1    O21   1.301249 A    
O5    C3    1.336985 A    
C51   O34   1.398352 S    
C42   C44   1.403186 A    
C23   C25   1.407821 A    
C12   C14   1.391812 A    
C54   O40   1.398586 S    
C8    C28   1.410584 A    
C11   H5    1.082640 S    
O17   V3    2.047538 S    
O38   H17   1.014001 S    
C18   C26   1.413439 A    
C38   C40   1.425529 A    
C39   C41   1.412836 A    
C40   C42   1.412715 A    
C6    C30   1.404709 A    
C9    C31   1.398191 A    
C10   C32   1.398193 A    
C36   H10   1.083370 S    
C27   C53   1.491377 S    
C46   O17   1.326208 A    
O34   H15   1.012451 S    
C19   C21   1.423082 A    
C13   H3    1.080597 S    
O13   V3    2.053144 S    
C34   C44   1.404665 A    
C14   H4    1.080600 S    
C44   C47   1.499242 S    
O5    V1    2.053412 S    
C28   C54   1.491383 S    
C50   O32   1.395618 S    
C17   C31   1.432609 A    
C18   C32   1.432603 A    
C32   C45   1.475620 S    
C5    C21   1.423577 A    
C49   O30   1.395621 S    
C34   H8    1.065261 S    
C9    H1    1.083885 S    
N1    O22   1.300274 A    
C9    C11   1.389122 A    
C12   H6    1.082638 S    
C41   C43   1.403120 A    
C3    C8    1.467519 S    
C37   C39   1.425765 A    
C15   C19   1.426713 A    
C16   C20   1.426700 A    
O4    C2    1.313088 A    
C52   O35   1.223164 D    
N3    O25   1.300571 A    
O13   C45   1.329524 A    
C33   C35   1.392496 A    
C45   O18   1.326202 A    
O12   C48   1.342054 A    
C36   C38   1.397501 A    
C24   C50   1.485288 S    
C33   H7    1.065310 S    
C42   H12   1.082124 S    
O4    V2    2.026185 S    
C40   N4    1.436273 S    
O12   V3    2.000170 S    
C5    C51   1.485259 S    
N3    O26   1.301257 A    
O30   H13   1.013699 S    
O6    C4    1.336993 A    
C7    C29   1.408477 A    
O1    V2    2.043966 S    
C33   C43   1.404621 A    
N4    O28   1.301393 A    
O2    V1    2.043929 S    
C6    C22   1.423582 A    
C55   O41   1.220819 D    
O14   V4    2.053210 S    
C7    C27   1.410586 A    
C25   C55   1.462409 S    
O14   C46   1.329522 A    
C10   H2    1.083885 S    
N2    O24   1.301249 A    
C35   H9    1.083376 S    
C56   O43   1.220818 D    
C10   C12   1.389118 A    
O11   C47   1.342038 A    
C30   N2    1.437206 S    
O44   H20   1.010736 S    
O19   V4    1.795016 S    
O3    V1    2.026164 S    
C53   O37   1.222464 D    
C1    C38   1.492029 S    
C2    C37   1.492117 S    
C43   C48   1.499231 S    
O16   C48   1.338831 A    
O3    C1    1.313090 A    
C8    C30   1.408471 A    
O40   H18   1.014000 S    
C13   C15   1.413533 A    
C29   N1    1.437207 S    
C51   O33   1.223165 D    
C14   C16   1.413534 A    
C52   O36   1.398350 S    
O7    V1    2.011665 S    
C1    O8    1.322890 A    
O11   V4    2.000186 S    
O8    V2    2.011674 S    
C54   O39   1.222465 D    
C24   C26   1.407828 A    
O15   V3    2.026271 S    
C31   C46   1.475648 S    
C4    C7    1.467524 S    
C16   C18   1.417357 A    
C21   C23   1.420933 A    
C19   C27   1.421746 A    
C22   C24   1.420939 A    
C20   C28   1.421741 A    
N4    O27   1.301120 A    
C5    C29   1.404709 A    
C55   O42   1.392409 S    
O18   V4    2.047575 S    
C11   C13   1.391815 A    
N2    O23   1.300276 A    
C26   C56   1.462440 S    
O6    V2    2.053477 S    
O20   V3    1.795071 S    
O9    V2    1.795608 S    
C17   C25   1.413426 A    
O32   H14   1.013698 S    
C56   O44   1.392394 S    
O10   V1    1.795663 S    
C39   N3    1.436601 S    
C23   C49   1.485290 S    
O15   C47   1.338865 A    
C34   C36   1.392511 A    
C20   C22   1.423076 A    
C53   O38   1.398584 S    
