data_mof_unit_16990.cif
_audit_creation_date              2012-12-11T14:32:55-0500
_audit_creation_method            fapswitch 2.2
_symmetry_space_group_name_H-M    P1
_symmetry_Int_Tables_number       1
_space_group_crystal_system       triclinic
_cell_length_a                    6.952706
_cell_length_b                    13.734448
_cell_length_c                    17.95498
_cell_angle_alpha                 112.289415
_cell_angle_beta                  95.563531
_cell_angle_gamma                 90.37197
_cell_volume                      1577.22137158

loop_
_atom_site_label
_atom_site_type_symbol
_atom_type_description
_atom_site_fract_x
_atom_site_fract_y
_atom_site_fract_z
_atom_type_partial_charge
O1    O     O_R   0.484560 0.544530 0.414330 -0.536239
O2    O     O_R   0.197040 0.638810 0.585080 -0.538871
O3    O     O_R   0.026800 0.455470 0.585670 -0.541688
C1    C     C_R   0.374120 0.678903 0.610314 0.684626
O4    O     O_R   0.155000 0.556150 0.414940 -0.543084
O5    O     O_R   0.984450 0.372220 0.414320 -0.548224
C2    C     C_R   0.317643 0.565035 0.386576 0.758065
O6    O     O_R   0.526900 0.627780 0.585680 -0.539326
O7    O     O_3   0.339170 0.439750 0.499990 -0.374447
V1    V     V_3+5 0.064350 0.511180 0.500000 1.365248
O8    O     O_R   0.654880 0.361190 0.414920 -0.537311
C3    C     C_R   0.816395 0.323884 0.386745 0.738098
O9    O     O_R   0.696930 0.443850 0.585060 -0.541103
C4    C     C_R   0.873177 0.433915 0.612491 0.692823
V2    V     V_3+5 0.564340 0.488820 0.500000 1.373126
O10   O     O_3   0.839390 0.560250 0.500010 -0.374286
C5    C     C_R   0.041686 0.860617 0.822548 -0.051700
C6    C     C_R   0.906168 0.397748 0.679874 -0.051919
C7    C     C_R   0.921619 0.821132 0.682850 -0.127406
C8    C     C_R   0.973849 0.787747 0.745729 -0.145470
C9    C     C_R   0.052757 0.968440 0.836645 -0.211606
C10   C     C_R   0.997853 0.004953 0.773535 0.096601
C11   C     C_R   0.933326 0.928352 0.695849 0.120637
C12   C     C_R   0.002878 0.114156 0.784701 0.066786
C13   C     C_R   0.945201 0.144186 0.717682 0.066664
C14   C     C_R   0.884917 0.064039 0.641773 -0.179335
C15   C     C_R   0.879037 0.958726 0.631404 -0.219105
C16   C     C_R   0.063201 0.194302 0.860608 -0.179291
C17   C     C_R   0.069084 0.299612 0.870980 -0.219107
C18   C     C_R   0.014745 0.329989 0.806540 0.120841
C19   C     C_R   0.950184 0.253392 0.728854 0.096604
C20   C     C_R   0.026419 0.437211 0.819551 -0.127470
C21   C     C_R   0.974074 0.470608 0.756689 -0.145493
C22   C     C_R   0.895189 0.289915 0.665755 -0.212072
H1    H     H_    0.829929 0.900165 0.572026 0.118428
H2    H     H_    0.846862 0.237220 0.604804 0.093101
H3    H     H_    0.988647 0.553593 0.767922 0.091503
H4    H     H_    0.118216 0.358171 0.930357 0.118435
H5    H     H_    0.869652 0.762853 0.623831 0.138748
H6    H     H_    0.959262 0.704767 0.734506 0.091599
H7    H     H_    0.101083 0.021136 0.897590 0.092604
H8    H     H_    0.839664 0.079835 0.588611 0.123854
H9    H     H_    0.108497 0.178508 0.913770 0.123500
H10   H     H_    0.078425 0.495487 0.878570 0.138758
H11   H     H_    0.109532 0.223482 0.308394 0.128267
H12   H     H_    0.843468 0.023866 0.199618 0.169019
C23   C     C_2   0.135202 0.037855 0.183010 -0.367574
C24   C     C_2   0.975295 0.073472 0.219598 -0.125881
C25   C     C_2   0.809087 0.218366 0.319727 -0.003994
C26   C     C_2   0.972797 0.178101 0.286399 -0.135895
H13   H     H_    0.267850 0.085962 0.202047 0.139466
C27   C     C_R   0.409679 0.785048 0.677146 -0.057615
C28   C     C_R   0.538776 0.473192 0.825518 -0.057416
C29   C     C_R   0.531428 0.886546 0.816926 -0.125325
C30   C     C_R   0.479312 0.790113 0.754182 -0.141821
C31   C     C_R   0.397747 0.880143 0.663406 -0.210467
C32   C     C_R   0.452299 0.980714 0.727112 0.097675
C33   C     C_R   0.517937 0.981161 0.804481 0.118060
C34   C     C_R   0.445725 0.080502 0.717420 0.065853
C35   C     C_R   0.502565 0.177746 0.785243 0.066026
C36   C     C_R   0.563685 0.171842 0.860411 -0.179580
C37   C     C_R   0.571402 0.075848 0.869513 -0.217196
C38   C     C_R   0.384569 0.086410 0.642255 -0.179457
C39   C     C_R   0.376849 0.182407 0.633155 -0.216600
C40   C     C_R   0.430348 0.277091 0.698187 0.117936
C41   C     C_R   0.496020 0.277534 0.775552 0.097618
C42   C     C_R   0.416872 0.371708 0.685747 -0.125275
C43   C     C_R   0.469080 0.468133 0.748489 -0.141843
C44   C     C_R   0.550654 0.378097 0.839258 -0.210448
H14   H     H_    0.621246 0.075744 0.928597 0.118606
H15   H     H_    0.600038 0.385404 0.899975 0.092632
H16   H     H_    0.453146 0.539421 0.736764 0.091481
H17   H     H_    0.326986 0.182515 0.574074 0.118900
H18   H     H_    0.584352 0.887130 0.875825 0.143343
H19   H     H_    0.495273 0.718827 0.765910 0.091399
H20   H     H_    0.348430 0.872830 0.602682 0.092603
H21   H     H_    0.608092 0.240621 0.913825 0.123708
H22   H     H_    0.340114 0.017634 0.588847 0.123832
H23   H     H_    0.363919 0.371133 0.626856 0.143399
H24   H     H_    0.334461 0.667459 0.194517 0.154661
H25   H     H_    0.614725 0.590810 0.308173 0.154472
C45   C     C_2   0.314229 0.602310 0.318868 -0.351182
C46   C     C_2   0.476465 0.610977 0.285387 -0.129430
C47   C     C_2   0.634927 0.655980 0.183775 -0.351137
C48   C     C_2   0.472748 0.647302 0.217288 -0.129887
H26   H     H_    0.176302 0.622213 0.295604 0.125840
O11   O     O_R   0.421600 0.630430 0.917010 -0.539425
O12   O     O_R   0.793840 0.702190 0.087630 -0.543210
O13   O     O_R   0.964010 0.886170 0.088190 -0.537052
C49   C     C_R   0.631307 0.693253 0.116057 0.757266
O14   O     O_R   0.751460 0.619510 0.917500 -0.539183
O15   O     O_R   0.921330 0.802900 0.916840 -0.541798
C50   C     C_R   0.574388 0.579344 0.892342 0.684254
O16   O     O_R   0.464290 0.713700 0.088350 -0.536924
O17   O     O_3   0.609200 0.818520 0.002630 -0.374183
V3    V     V_3+5 0.884140 0.747190 0.002530 1.369830
O18   O     O_R   0.251150 0.814630 0.917340 -0.541962
C51   C     C_R   0.074830 0.824468 0.889941 0.692047
O19   O     O_R   0.293530 0.897310 0.087470 -0.541475
C52   C     C_R   0.131686 0.933847 0.115875 0.766075
V4    V     V_3+5 0.384070 0.769710 0.002370 1.371768
O20   O     O_3   0.109180 0.698190 0.002460 -0.375100
C53   C     C_3   0.616764 0.157706 0.288426 -0.812475
H27   H     H_    0.495351 0.201126 0.319782 0.215593
H28   H     H_    0.585351 0.142475 0.223058 0.207361
H29   H     H_    0.621532 0.081887 0.297164 0.209783
H30   H     H_    0.772902 0.636098 0.207013 0.125944

loop_
_geom_bond_atom_site_label_1
_geom_bond_atom_site_label_2
_ccdc_geom_bond_type
C33   C37   A    
O12   V3    S    
C13   C19   A    
V4    O20   S    
C31   H20   S    
V3    O20   S    
C4    C6    S    
O2    C1    A    
O17   V3    S    
C1    O6    A    
C28   C44   A    
C5    C8    A    
C3    C25   S    
O15   C51   A    
C14   C15   A    
H24   C48   S    
C1    C27   S    
C16   C17   A    
O5    C3    A    
C18   C19   A    
C8    H6    S    
C32   C34   A    
C41   C44   A    
V2    O10   S    
O18   C51   A    
O15   V3    S    
C47   H30   S    
C31   C32   A    
C37   H14   S    
C44   H15   S    
C28   C43   A    
O14   V3    S    
C29   H18   S    
O8    V2    S    
C23   C24   D    
O16   V4    S    
C36   H21   S    
C40   C42   A    
C17   H4    S    
C39   H17   S    
O1    V2    S    
C11   C15   A    
C5    C51   S    
C27   C30   A    
C30   H19   S    
C24   C26   S    
C35   C41   A    
C34   C35   A    
O11   V4    S    
O9    C4    A    
C47   C49   S    
H25   C46   S    
C49   O16   A    
H12   C24   S    
O13   C52   A    
C28   C50   S    
C42   C43   A    
C42   H23   S    
C12   C13   A    
O4    C2    A    
C23   H13   S    
C15   H1    S    
C13   C14   A    
C45   H26   S    
C45   C46   D    
C21   H3    S    
C23   C52   S    
C35   C36   A    
C7    C11   A    
O5    V1    S    
C17   C18   A    
O14   C50   A    
O19   C52   A    
C43   H16   S    
C29   C33   A    
C20   H10   S    
C19   C22   A    
C53   H28   S    
C47   C48   D    
C6    C22   A    
O3    C4    A    
C7    H5    S    
C9    H7    S    
C46   C48   S    
O12   C49   A    
C25   C26   D    
O6    V2    S    
O9    V2    S    
C10   C12   A    
O2    V1    S    
C14   H8    S    
O7    V1    S    
C29   C30   A    
O19   V4    S    
O1    C2    A    
C12   C16   A    
C25   C53   S    
O8    C3    A    
C16   H9    S    
C34   C38   A    
C20   C21   A    
C7    C8    A    
O7    V2    S    
O4    V1    S    
O3    V1    S    
V1    O10   S    
C39   C40   A    
C18   C20   A    
C32   C33   A    
H11   C26   S    
O13   V3    S    
O11   C50   A    
C53   H29   S    
C22   H2    S    
C36   C37   A    
C6    C21   A    
C5    C9    A    
C38   C39   A    
C27   C31   A    
C2    C45   S    
C40   C41   A    
C53   H27   S    
C10   C11   A    
C9    C10   A    
O18   V4    S    
O17   V4    S    
C38   H22   S    
