data_mof_unit_11530.cif
_audit_creation_date              2013-03-05T15:55:43-0500
_audit_creation_method            fapswitch 2.2
_symmetry_space_group_name_H-M    P1
_symmetry_Int_Tables_number       1
_space_group_crystal_system       triclinic
_cell_length_a                    6.947177
_cell_length_b                    17.645677
_cell_length_c                    19.537599
_cell_angle_alpha                 108.521899
_cell_angle_beta                  89.506599
_cell_angle_gamma                 90.304395
_cell_volume                      2270.91658478

loop_
_atom_site_label
_atom_site_type_symbol
_atom_site_description
_atom_site_fract_x
_atom_site_fract_y
_atom_site_fract_z
_atom_type_partial_charge
O1    O     O_R   0.494330 0.415710 0.413720 -0.618336
O2    O     O_R   0.819360 0.430070 0.560210 -0.538640
O3    O     O_R   0.994320 0.584290 0.586280 -0.599415
C1    C     C_R   0.649939 0.413804 0.580658 1.048452
O4    O     O_R   0.823740 0.406290 0.412670 -0.554675
O5    O     O_R   0.998730 0.560340 0.437690 -0.612359
C2    C     C_R   0.655249 0.382981 0.384987 1.064081
O6    O     O_R   0.489920 0.439660 0.562310 -0.608105
O7    O     O_3   0.662330 0.550570 0.508380 -0.270020
V1    V     V_3+5 0.935370 0.490620 0.498440 1.299796
O8    O     O_R   0.328720 0.569930 0.439790 -0.538462
C3    C     C_R   0.160570 0.583024 0.416542 1.036678
O9    O     O_R   0.324340 0.593710 0.587330 -0.592909
C4    C     C_R   0.157042 0.614531 0.616916 1.002259
V2    V     V_3+5 0.435940 0.509380 0.501560 1.275388
O10   O     O_3   0.159110 0.449430 0.491620 -0.260113
C5    C     C_R   0.324305 0.724616 0.716887 -0.088594
C6    C     C_R   0.313755 0.791641 0.780071 -0.075489
C7    C     C_R   0.135317 0.811581 0.818572 -0.199833
C8    C     C_R   0.981236 0.758850 0.795331 -0.097476
H1    H     H_    0.854775 0.764387 0.828334 0.182637
C9    C     C_R   0.992288 0.694985 0.731572 -0.018405
H2    H     H_    0.877299 0.653246 0.718700 0.149508
C10   C     C_R   0.156333 0.680462 0.688125 -0.203604
C11   C     C_R   0.008012 0.612748 0.309544 -0.174281
C12   C     C_R   0.151830 0.628617 0.363785 -0.460670
C13   C     C_R   0.289439 0.688355 0.367717 0.798660
C14   C     C_R   0.284691 0.733293 0.319976 -0.025488
C15   C     C_R   0.139968 0.719641 0.267093 -0.007467
C16   C     C_R   0.001431 0.658547 0.260931 -0.106966
C17   C     C_R   0.427982 0.790308 0.323374 -0.131140
C18   C     C_R   0.426580 0.837115 0.277552 -0.090247
C19   C     C_R   0.268739 0.831051 0.229932 0.073367
C20   C     C_R   0.134801 0.767350 0.220458 0.074399
C21   C     C_R   0.995550 0.751850 0.164972 -0.202464
C22   C     C_R   0.861431 0.688779 0.157409 -0.328508
C23   C     C_R   0.863499 0.644057 0.205244 0.675685
C24   C     C_R   0.239151 0.887249 0.192588 -0.201104
C25   C     C_R   0.114174 0.867573 0.132496 -0.420437
C26   C     C_R   0.994705 0.800014 0.119063 0.791223
H3    H     H_    0.546928 0.796365 0.360315 0.215603
C27   C     C_R   0.766104 0.184031 0.867381 0.776236
C28   C     C_R   0.617687 0.128559 0.863942 -0.438974
C29   C     C_R   0.471206 0.117991 0.811091 -0.168716
C30   C     C_R   0.471050 0.165444 0.764239 -0.146139
C31   C     C_R   0.622684 0.220752 0.768507 -0.023258
C32   C     C_R   0.771005 0.229066 0.819602 0.012667
C33   C     C_R   0.324138 0.159430 0.712885 0.759722
C34   C     C_R   0.330554 0.205232 0.666651 -0.286075
C35   C     C_R   0.479743 0.260350 0.669999 -0.028430
C36   C     C_R   0.626902 0.268007 0.721481 0.033008
C37   C     C_R   0.779658 0.322413 0.725800 -0.031893
C38   C     C_R   0.926430 0.329097 0.776317 -0.133896
C39   C     C_R   0.922043 0.283134 0.822620 -0.108689
C40   C     C_R   0.487291 0.306635 0.622236 -0.159461
C41   C     C_R   0.639695 0.362159 0.627896 -0.410943
C42   C     C_R   0.783874 0.369548 0.679900 0.761077
H4    H     H_    0.215379 0.196464 0.628070 0.196914
H5    H     H_    0.045841 0.369961 0.780222 0.192162
H6    H     H_    0.038093 0.290048 0.860835 0.188668
C43   C     C_R   0.781284 0.253196 0.298457 0.662234
C44   C     C_R   0.766953 0.189245 0.233841 0.702883
C45   C     C_R   0.618066 0.186097 0.184137 -0.515014
C46   C     C_R   0.481677 0.249256 0.201781 -0.090616
C47   C     C_R   0.495814 0.312197 0.267279 -0.203977
H7    H     H_    0.390956 0.360074 0.279618 0.173142
C48   C     C_R   0.644816 0.315135 0.316164 -0.396946
O11   O     O_R   0.774940 0.060470 0.937800 -0.562695
O12   O     O_R   0.440880 0.093730 0.087350 -0.570085
O13   O     O_R   0.266130 0.939630 0.062280 -0.567961
C49   C     C_R   0.609145 0.117502 0.115064 1.102977
O14   O     O_R   0.445480 0.069960 0.939820 -0.605672
O15   O     O_R   0.270770 0.915690 0.913690 -0.595781
C50   C     C_R   0.613592 0.082887 0.916489 0.982034
O16   O     O_R   0.770300 0.084410 0.086380 -0.560879
O17   O     O_3   0.602600 0.949510 0.991670 -0.233011
V3    V     V_3+5 0.329470 0.009370 0.001550 1.311248
O18   O     O_R   0.940760 0.906160 0.912560 -0.593748
C51   C     C_R   0.112654 0.882112 0.885474 0.910256
O19   O     O_R   0.936150 0.929930 0.060100 -0.533661
C52   C     C_R   0.104232 0.917160 0.083465 1.102444
V4    V     V_3+5 0.828930 0.990450 0.998310 1.330062
O20   O     O_3   0.105670 0.050490 0.008320 -0.246276
C53   C     C_2   0.513597 0.689675 0.690590 0.992148
O21   O     O_2   0.623602 0.722664 0.659824 -0.572750
O22   O     O_R   0.553456 0.613510 0.694682 -0.798375
H8    H     H_    0.651619 0.583486 0.657489 0.322343
F1    F     F_    0.873313 0.783869 0.062081 -0.678842
C54   C     C_2   0.712464 0.667431 0.100778 1.305332
O23   O     O_2   0.758660 0.635465 0.037656 -0.577119
O24   O     O_R   0.518635 0.680889 0.120334 -0.784669
H9    H     H_    0.429679 0.663429 0.077247 0.329125
F2    F     F_    0.731442 0.584376 0.194510 -0.677154
F3    F     F_    0.903289 0.196113 0.919038 -0.670598
C55   C     C_2   0.325214 0.054137 0.801990 1.180987
O25   O     O_2   0.348888 0.989379 0.755781 -0.582843
O26   O     O_R   0.156900 0.069542 0.843642 -0.716851
H10   H     H_    0.065814 0.022114 0.830779 0.304597
F4    F     F_    0.170020 0.110151 0.706676 -0.678084
C56   C     C_2   0.343377 0.294281 0.563814 1.093052
O27   O     O_2   0.172847 0.307092 0.578717 -0.600055
O28   O     O_R   0.404884 0.270080 0.491786 -0.792672
H11   H     H_    0.294723 0.264979 0.456882 0.355753
F5    F     F_    0.926990 0.424425 0.687099 -0.687294
C57   C     C_2   0.496195 0.832397 0.808948 0.980398
O29   O     O_2   0.559216 0.826574 0.865194 -0.617583
O30   O     O_R   0.599818 0.873661 0.770334 -0.721623
H12   H     H_    0.721753 0.899026 0.795757 0.312559
F6    F     F_    0.925968 0.253077 0.344709 -0.650156
F7    F     F_    0.897145 0.129070 0.220857 -0.631930
C58   C     C_2   0.327289 0.253969 0.152009 1.085570
O31   O     O_2   0.342541 0.300643 0.117522 -0.604337
O32   O     O_R   0.161898 0.207098 0.146320 -0.720525
H13   H     H_    0.065286 0.216470 0.111264 0.333942
C59   C     C_2   0.870233 0.546404 0.302795 1.209055
O33   O     O_2   0.925853 0.477202 0.280074 -0.659158
O34   O     O_R   0.678164 0.563443 0.323647 -0.720916
H14   H     H_    0.597809 0.513385 0.316179 0.306536
F8    F     F_    0.426551 0.704461 0.419752 -0.660782
C60   C     C_2   0.604224 0.883836 0.275240 0.995748
O35   O     O_2   0.659021 0.891956 0.218330 -0.628047
O36   O     O_R   0.714362 0.915231 0.337518 -0.759436
H15   H     H_    0.834257 0.943861 0.328582 0.357456
C61   C     C_2   0.300435 0.971848 0.227358 1.096238
O37   O     O_2   0.380957 0.009547 0.192705 -0.599094
O38   O     O_R   0.268560 0.007714 0.301391 -0.773488
H16   H     H_    0.317194 0.064872 0.319514 0.356074

loop_
_geom_bond_atom_site_label_1
_geom_bond_atom_site_label_2
_geom_bond_distance
_ccdc_geom_bond_type
C22   C54   1.479163 S    
C40   C41   1.419615 A    
O38   H16   1.014065 S    
O12   V3    2.012393 S    
C55   O25   1.221419 D    
C1    O6    1.299485 A    
C43   F6    1.357852 S    
O26   H10   1.013630 S    
C38   H5    1.083392 S    
C39   H6    1.083406 S    
C38   C39   1.393755 A    
C29   C30   1.423404 A    
C57   O30   1.397025 S    
C12   C13   1.403607 A    
C44   C45   1.413636 A    
C14   C15   1.411953 A    
C53   O22   1.400705 S    
C20   C21   1.418714 A    
C11   C59   1.481975 S    
O5    C3    1.298976 A    
C24   C25   1.417104 A    
V3    O20   1.705516 S    
O11   C50   1.305241 A    
C59   O33   1.222773 D    
C41   C42   1.408750 A    
C6    C7    1.430651 A    
C4    C10   1.503566 S    
O12   C49   1.302701 A    
O13   C52   1.298098 A    
C43   C48   1.406489 A    
O14   V3    2.010107 S    
O8    V2    1.999009 S    
C7    C8    1.395393 A    
C59   O34   1.397826 S    
C40   C56   1.486348 S    
O30   H12   1.013216 S    
O1    V2    2.008666 S    
C54   O24   1.397327 S    
O7    V1    2.153903 S    
C28   C50   1.493055 S    
O1    C2    1.299431 A    
O9    C4    1.295364 A    
C1    C41   1.489923 S    
O13   V3    2.007184 S    
O28   H11   1.013947 S    
C18   C60   1.488844 S    
C60   O36   1.398619 S    
C35   C36   1.415994 A    
C9    H2    1.059897 S    
C5    C10   1.417045 A    
C36   C37   1.412169 A    
O17   V3    2.153799 S    
C25   C52   1.490770 S    
O19   V4    1.998928 S    
O17   V4    1.715491 S    
O24   H9    1.013726 S    
O4    C2    1.302420 A    
O18   C51   1.318328 A    
C46   C58   1.474189 S    
C47   C48   1.404077 A    
C11   C12   1.423522 A    
C30   C31   1.417061 A    
C31   C36   1.423475 A    
C34   H4    1.080421 S    
C16   C23   1.416317 A    
C3    C12   1.497282 S    
C21   C22   1.419670 A    
O2    C1    1.299412 A    
C28   C29   1.424885 A    
C15   C16   1.418266 A    
O18   V4    2.007313 S    
C17   C18   1.397776 A    
C44   F7    1.358314 S    
C56   O28   1.398250 S    
C5    C6    1.414147 A    
O15   C51   1.287466 A    
C23   F2    1.359197 S    
C58   O32   1.396529 S    
C53   O21   1.222238 D    
C7    C51   1.499094 S    
O3    C4    1.312736 A    
C32   C39   1.403355 A    
O14   C50   1.295331 A    
C33   C34   1.390655 A    
C45   C49   1.500984 S    
C34   C35   1.405157 A    
O6    V2    2.000800 S    
O9    V2    2.007270 S    
C9    C10   1.390415 A    
C27   C28   1.405149 A    
O2    V1    2.010200 S    
C25   C26   1.404751 A    
C37   C38   1.403506 A    
O22   H8    1.012179 S    
C61   O38   1.398607 S    
O32   H13   1.013899 S    
C30   C33   1.417197 A    
C11   C16   1.430413 A    
C33   F4    1.357404 S    
C31   C32   1.415236 A    
C22   C23   1.401899 A    
C17   H3    1.084193 S    
C58   O31   1.222265 D    
C27   F3    1.360167 S    
C14   C17   1.398429 A    
C19   C24   1.422106 A    
C8    C9    1.391062 A    
O19   C52   1.303838 A    
O5    V1    2.007236 S    
O8    C3    1.304987 A    
C55   O26   1.396369 S    
O16   V4    2.014483 S    
C13   F8    1.360843 S    
C57   O29   1.220783 D    
C35   C40   1.422504 A    
C5    C53   1.472819 S    
O11   V4    2.001376 S    
C18   C19   1.425685 A    
C26   F1    1.357892 S    
C21   C26   1.418218 A    
O7    V2    1.717431 S    
C6    C57   1.478772 S    
O4    V1    2.012386 S    
O3    V1    2.011888 S    
V1    O10   1.705572 S    
O34   H14   1.013629 S    
C46   C47   1.406685 A    
C49   O16   1.302583 A    
C15   C20   1.424227 A    
C56   O27   1.222490 D    
C19   C20   1.422391 A    
C27   C32   1.405194 A    
C47   H7    1.084722 S    
C43   C44   1.404626 A    
C37   C42   1.403582 A    
C2    C48   1.491497 S    
C45   C46   1.421338 A    
C8    H1    1.071587 S    
V4    O20   2.170280 S    
C13   C14   1.403770 A    
C29   C55   1.481047 S    
O15   V3    2.011858 S    
C60   O35   1.222749 D    
O36   H15   1.014169 S    
C54   O23   1.222786 D    
C24   C61   1.491686 S    
V2    O10   2.170190 S    
C61   O37   1.220460 D    
C42   F5    1.360750 S    
