data_mof_unit_34794.cif
_audit_creation_date              2013-03-05T15:52:55-0500
_audit_creation_method            fapswitch 2.2
_symmetry_space_group_name_H-M    P1
_symmetry_Int_Tables_number       1
_space_group_crystal_system       triclinic
_cell_length_a                    14.955153
_cell_length_b                    10.667127
_cell_length_c                    9.892765
_cell_angle_alpha                 91.45204
_cell_angle_beta                  89.397913
_cell_angle_gamma                 93.082271
_cell_volume                      1575.32289982

loop_
_atom_site_label
_atom_site_type_symbol
_atom_site_description
_atom_site_fract_x
_atom_site_fract_y
_atom_site_fract_z
_atom_type_partial_charge
O1    O     O_R   0.500000 0.316780 0.614690 -0.630744
O2    O     O_R   0.499990 0.316750 0.385360 -0.648681
C1    C     C_R   0.499394 0.260316 0.498280 0.810137
O3    O     O_R   0.367850 0.499980 0.614680 -0.650525
O4    O     O_R   0.367840 0.499960 0.385350 -0.645859
C2    C     C_R   0.326441 0.495752 0.500529 0.870244
Zn1   Zn    Zn3+2 0.500010 0.500020 0.653130 0.973737
Zn2   Zn    Zn3+2 0.499990 0.499980 0.346870 0.978102
O5    O     O_R   0.500010 0.683250 0.614640 -0.585152
O6    O     O_R   0.500000 0.683220 0.385310 -0.628141
O7    O     O_R   0.632160 0.500040 0.614650 -0.597349
O8    O     O_R   0.632150 0.500020 0.385320 -0.578668
C3    C     C_R   0.507370 0.739877 0.501811 0.935210
C4    C     C_R   0.672877 0.489909 0.498379 0.986177
C5    C     C_R   0.814848 0.454854 0.369053 0.287976
C6    C     C_R   0.767747 0.465585 0.493747 -0.165387
C7    C     C_R   0.811916 0.454767 0.616599 -0.234740
C8    C     C_R   0.903742 0.445234 0.618594 0.113474
C9    C     C_R   0.951836 0.441981 0.495409 0.015421
C10   C     C_R   0.907216 0.442068 0.370239 0.003883
C11   C     C_R   0.948644 0.445489 0.742264 -0.169944
C12   C     C_R   0.041707 0.449954 0.744194 -0.217568
C13   C     C_R   0.090177 0.453551 0.622441 0.119432
C14   C     C_R   0.045198 0.445752 0.497504 0.092498
C15   C     C_R   0.093694 0.447944 0.374583 0.125204
C16   C     C_R   0.049341 0.439065 0.251002 -0.236889
C17   C     C_R   0.956644 0.436121 0.248636 -0.144555
C18   C     C_R   0.182847 0.469263 0.623168 -0.268834
C19   C     C_R   0.230209 0.477723 0.500651 -0.072824
C20   C     C_R   0.185928 0.463502 0.377014 -0.262271
H1    H     H_    0.775530 0.459973 0.711830 0.193671
H2    H     H_    0.911947 0.446785 0.837336 0.165140
H3    H     H_    0.075702 0.454310 0.840577 0.145817
H4    H     H_    0.217693 0.477260 0.718860 0.166185
H5    H     H_    0.222898 0.466948 0.282134 0.168260
H6    H     H_    0.086356 0.438623 0.156166 0.146643
H7    H     H_    0.924439 0.433134 0.151027 0.191856
H8    H     H_    0.378856 0.103193 0.600518 0.133270
C21   C     C_R   0.650109 0.144255 0.371833 -0.161273
H9    H     H_    0.646514 0.243337 0.356089 0.192176
C22   C     C_R   0.726128 0.088448 0.323537 -0.184857
H10   H     H_    0.777940 0.143665 0.271383 0.195095
C23   C     C_R   0.739048 0.964330 0.351657 -0.166523
H11   H     H_    0.802803 0.926964 0.324142 0.197084
C24   C     C_R   0.674873 0.893268 0.426230 0.304743
C25   C     C_R   0.590331 0.943948 0.456766 -0.026859
C26   C     C_R   0.581369 0.073076 0.438826 0.055171
C27   C     C_R   0.505279 0.128399 0.494331 -0.042683
C28   C     C_R   0.436515 0.058664 0.557439 -0.202334
H12   H     H_    0.383745 0.876122 0.603119 0.147711
C29   C     C_R   0.440097 0.930881 0.561003 -0.191681
C30   C     C_R   0.514855 0.873465 0.508562 -0.069094
H13   H     H_    0.601385 0.643223 0.127825 0.183403
C31   C     C_R   0.381857 0.333063 0.138100 -0.154021
H14   H     H_    0.379273 0.326458 0.245340 0.199501
C32   C     C_R   0.322266 0.252327 0.066662 -0.193449
H15   H     H_    0.276695 0.188417 0.120374 0.154967
C33   C     C_R   0.321183 0.253540 0.926703 -0.198595
H16   H     H_    0.274718 0.190635 0.871326 0.151454
C34   C     C_R   0.379918 0.335148 0.857339 -0.152783
H17   H     H_    0.375317 0.330371 0.749982 0.195164
C35   C     C_R   0.441081 0.418398 0.926449 0.169081
C36   C     C_R   0.441571 0.417872 0.071173 0.165801
N1    N     N_R   0.499150 0.498800 0.142780 -0.129098
C37   C     C_R   0.555958 0.578687 0.072846 -0.031023
H18   H     H_    0.601994 0.642327 0.876618 0.187636
C38   C     C_R   0.556167 0.578350 0.929576 -0.091058
N2    N     N_R   0.499120 0.498720 0.857170 -0.132920
N3    N     N_R   0.771353 0.468594 0.241973 0.205518
O9    O     O_R   0.741998 0.369662 0.173067 -0.446550
O10   O     O_R   0.774976 0.577499 0.185261 -0.375937
N4    N     N_R   0.704063 0.784412 0.491677 0.176408
O11   O     O_R   0.683061 0.768010 0.618225 -0.410194
O12   O     O_R   0.773563 0.729742 0.443149 -0.404190

loop_
_geom_bond_atom_site_label_1
_geom_bond_atom_site_label_2
_geom_bond_distance
_ccdc_geom_bond_type
C8    C11   1.401654 A    
C22   H10   1.082328 S    
C9    C10   1.412834 A    
C21   C22   1.386400 A    
H8    C28   1.084830 S    
C24   C25   1.428039 A    
Zn1   O7    2.008709 S    
C16   C17   1.385401 A    
C35   C36   1.431971 A    
C20   H5    1.084756 S    
C18   C19   1.399819 A    
O4    C2    1.291681 A    
O7    C4    1.300612 A    
C31   C36   1.409025 A    
C33   C34   1.391269 A    
C5    C6    1.419232 A    
C25   C30   1.420568 A    
C1    C27   1.414175 S    
C32   H15   1.082754 S    
C34   C35   1.409867 A    
C8    C9    1.409165 A    
N3    O10   1.301104 A    
O5    C3    1.283475 A    
Zn1   N2    2.018818 S    
C31   H14   1.065178 S    
C6    C7    1.399603 A    
C28   C29   1.368365 A    
C13   C14   1.411840 A    
H13   C37   1.081563 S    
H18   C38   1.081766 S    
C18   H4    1.084672 S    
C11   C12   1.390353 A    
C24   N4    1.434107 S    
C22   C23   1.383820 A    
O3    Zn1   2.016638 S    
H12   C29   1.084913 S    
C5    C10   1.395575 A    
C5    N3    1.435912 S    
C11   H2    1.084100 S    
C31   C32   1.391129 A    
C29   C30   1.392681 A    
C14   C15   1.409382 A    
N4    O12   1.300526 A    
C21   H9    1.076504 S    
C37   C38   1.417219 A    
C15   C16   1.395712 A    
C38   N2    1.366210 A    
C34   H17   1.064758 S    
O1    C1    1.285907 A    
C23   H11   1.082577 S    
C19   C20   1.397997 A    
C3    C30   1.423307 S    
C26   C27   1.409728 A    
Zn2   O8    2.016639 S    
C7    C8    1.382860 A    
C13   C18   1.387083 A    
C23   C24   1.405414 A    
Zn2   N1    2.018902 S    
O3    C2    1.292251 A    
C27   C28   1.388684 A    
O8    C4    1.288826 A    
C7    H1    1.084695 S    
C4    C6    1.456033 S    
C21   C26   1.414144 A    
C16   H6    1.084337 S    
C15   C20   1.380828 A    
Zn1   O5    2.000730 S    
C12   H3    1.084051 S    
C25   C26   1.406941 A    
O1    Zn1   1.981804 S    
O2    Zn2   2.000730 S    
N4    O11   1.301334 A    
O6    C3    1.290700 A    
O4    Zn2   2.008709 S    
C10   C17   1.407172 A    
C35   N2    1.376415 A    
N1    C37   1.366111 A    
O2    C1    1.282052 A    
C33   H16   1.082806 S    
C17   H7    1.082581 S    
C32   C33   1.385248 A    
C9    C14   1.395008 A    
N3    O9    1.300435 A    
C36   N1    1.374928 A    
C2    C19   1.441651 S    
Zn2   O6    1.981804 S    
C12   C13   1.399528 A    
