data_mof_unit_62102.cif
_audit_creation_date              2012-12-10T16:46:33-0500
_audit_creation_method            fapswitch 2.2
_symmetry_space_group_name_H-M    P1
_symmetry_Int_Tables_number       1
_space_group_crystal_system       triclinic
_cell_length_a                    18.520179
_cell_length_b                    18.519356
_cell_length_c                    34.41498
_cell_angle_alpha                 89.999931
_cell_angle_beta                  90.030873
_cell_angle_gamma                 89.99996
_cell_volume                      11803.7096637

loop_
_atom_site_label
_atom_site_type_symbol
_atom_type_description
_atom_site_fract_x
_atom_site_fract_y
_atom_site_fract_z
_atom_type_partial_charge
C1    C     C_R   0.500047 0.000037 0.605755 0.793788
C2    C     C_R   0.089149 0.403019 0.230848 -0.189400
C3    C     C_R   0.554602 0.039199 0.668531 0.020426
C4    C     C_R   0.538450 0.054998 0.168506 0.021466
C5    C     C_R   0.945471 0.538359 0.168516 0.017073
C6    C     C_R   0.461539 0.945410 0.168528 0.016249
C7    C     C_R   0.054602 0.460801 0.168532 0.020423
C8    C     C_R   0.000010 0.499850 0.648339 -0.072030
C9    C     C_R   0.500160 0.000178 0.648340 -0.072051
C10   C     C_R   0.500011 0.000153 0.148338 -0.071947
C11   C     C_R   0.000160 0.499822 0.148340 -0.072047
C12   C     C_R   0.045383 0.451004 0.709350 0.083374
C13   C     C_R   0.595919 0.090140 0.230799 -0.189895
C14   C     C_R   0.548463 0.046111 0.709372 0.083054
C15   C     C_R   0.954346 0.548380 0.709324 0.083980
C16   C     C_R   0.451707 0.954433 0.709305 0.083989
C17   C     C_R   0.454345 0.951627 0.209324 0.083962
C18   C     C_R   0.048462 0.453888 0.209372 0.083053
C19   C     C_R   0.545383 0.049000 0.209349 0.083360
C20   C     C_R   0.951707 0.545568 0.209305 0.083989
C21   C     C_R   0.999808 0.499650 0.729642 -0.001296
C22   C     C_R   0.500157 0.000147 0.729642 -0.001150
C23   C     C_R   0.499806 0.000357 0.229641 -0.001296
C24   C     C_R   0.910821 0.596398 0.230646 -0.189701
C25   C     C_R   0.000156 0.499853 0.229642 -0.001150
C26   C     C_3   0.934281 0.621328 0.646437 -0.394183
C27   C     C_3   0.997461 0.668739 0.632644 -0.375827
C28   C     C_3   0.971174 0.730186 0.606682 -0.799196
C29   C     C_3   0.378665 0.934504 0.646439 -0.402465
C30   C     C_3   0.331466 0.997797 0.632512 -0.365856
C31   C     C_3   0.270283 0.971687 0.606313 -0.789589
C32   C     C_3   0.066805 0.378881 0.646282 -0.413434
C33   C     C_3   0.004590 0.331357 0.631316 -0.352572
C34   C     C_3   0.032718 0.269757 0.606020 -0.815517
C35   C     C_R   0.401586 0.913602 0.271031 -0.206242
C36   C     C_3   0.620371 0.068462 0.646343 -0.403898
C37   C     C_3   0.668628 0.006970 0.631248 -0.363782
C38   C     C_3   0.730235 0.036168 0.606314 -0.822669
C39   C     C_3   0.566807 0.121122 0.146281 -0.413439
C40   C     C_3   0.504595 0.168643 0.131309 -0.352555
C41   C     C_3   0.532734 0.230281 0.106043 -0.815523
C42   C     C_3   0.878666 0.565498 0.146438 -0.402458
C43   C     C_3   0.831466 0.502205 0.132512 -0.365864
C44   C     C_3   0.770293 0.528315 0.106306 -0.789585
C45   C     C_3   0.434302 0.878663 0.146441 -0.394231
C46   C     C_R   0.085995 0.400995 0.271175 -0.205471
C47   C     C_3   0.497495 0.831265 0.132652 -0.375747
C48   C     C_3   0.471203 0.769695 0.106772 -0.799220
C49   C     C_3   0.120370 0.431537 0.146344 -0.403902
C50   C     C_3   0.168626 0.493029 0.131246 -0.363774
C51   C     C_3   0.230245 0.463827 0.106321 -0.822665
C52   C     C_R   0.598069 0.086967 0.271130 -0.205916
C53   C     C_R   0.914033 0.598712 0.270978 -0.206608
C54   C     C_R   0.098066 0.413033 0.771131 -0.205919
C55   C     C_R   0.585998 0.099003 0.771176 -0.205472
C56   C     C_R   0.901594 0.586410 0.771032 -0.206245
C57   C     C_R   0.000019 0.500025 0.605753 0.793836
C58   C     C_R   0.414033 0.901289 0.770978 -0.206608
C59   C     C_R   0.450113 0.957093 0.291245 0.115190
C60   C     C_R   0.042922 0.449945 0.291313 0.114511
C61   C     C_R   0.549527 0.043466 0.291294 0.115005
C62   C     C_R   0.957246 0.549965 0.291221 0.115539
C63   C     C_R   0.049527 0.456537 0.791294 0.115007
C64   C     C_R   0.542923 0.050054 0.791313 0.114511
C65   C     C_R   0.950118 0.542915 0.791246 0.115192
C66   C     C_R   0.457246 0.950036 0.791221 0.115539
C67   C     C_R   0.499798 0.000327 0.270685 0.085125
C68   C     C_R   0.000046 0.499963 0.105755 0.793786
C69   C     C_R   0.000132 0.499942 0.270684 0.085180
C70   C     C_R   0.999800 0.499679 0.770685 0.085122
C71   C     C_R   0.500132 0.000058 0.770684 0.085181
C72   C     C_R   0.449420 0.958413 0.331793 -0.246355
C73   C     C_R   0.041472 0.449263 0.331854 -0.245036
C74   C     C_R   0.550329 0.041955 0.331840 -0.245981
C75   C     C_R   0.958623 0.550746 0.331771 -0.247350
C76   C     C_R   0.050328 0.458046 0.831840 -0.245981
C77   C     C_R   0.541474 0.050736 0.831854 -0.245036
C78   C     C_R   0.949424 0.541594 0.831794 -0.246356
C79   C     C_R   0.500020 0.999976 0.105753 0.793746
C80   C     C_R   0.458623 0.949255 0.831771 -0.247351
C81   C     C_R   0.499917 0.000118 0.351997 -0.032428
C82   C     C_R   0.000027 0.500016 0.351994 -0.032642
C83   C     C_R   0.999918 0.499884 0.851997 -0.032425
C84   C     C_R   0.500027 0.999984 0.851994 -0.032641
C85   C     C_R   0.499979 0.000014 0.394245 0.821282
C86   C     C_R   0.999984 0.500005 0.394243 0.821322
C87   C     C_R   0.999979 0.499986 0.894245 0.821282
C88   C     C_R   0.499984 0.999995 0.894243 0.821319
C89   C     C_R   0.360422 0.137334 0.500884 0.779220
C90   C     C_R   0.095916 0.409861 0.730800 -0.189896
C91   C     C_R   0.862681 0.360419 0.500888 0.774526
C92   C     C_R   0.637472 0.860539 0.499299 0.763441
C93   C     C_R   0.139466 0.637476 0.499298 0.766011
C94   C     C_R   0.637495 0.139451 0.499329 0.751775
C95   C     C_R   0.139458 0.362504 0.499326 0.755272
C96   C     C_R   0.360434 0.862650 0.500898 0.768356
C97   C     C_R   0.862662 0.639568 0.500902 0.763040
C98   C     C_R   0.860433 0.637350 0.000898 0.768352
C99   C     C_R   0.362662 0.860432 0.000902 0.763088
C100  C     C_R   0.137495 0.360549 0.999329 0.751779
C101  C     C_R   0.589151 0.096980 0.730848 -0.189399
C102  C     C_R   0.639458 0.137496 0.999326 0.755282
C103  C     C_R   0.137472 0.639460 0.999299 0.763438
C104  C     C_R   0.639466 0.862524 0.999298 0.766003
C105  C     C_R   0.860423 0.362666 0.000884 0.779221
C106  C     C_R   0.362681 0.139581 0.000888 0.774520
C107  C     C_2   0.192045 0.752695 0.482011 -0.236291
C108  C     C_2   0.253173 0.197956 0.477424 -0.219278
C109  C     C_2   0.802062 0.253154 0.477446 -0.221147
C110  C     C_2   0.752710 0.807978 0.482042 -0.234302
C111  C     C_2   0.802363 0.747180 0.477631 -0.217934
C112  C     C_R   0.903814 0.589574 0.730704 -0.188970
C113  C     C_2   0.752548 0.192231 0.481818 -0.237517
C114  C     C_2   0.192251 0.247465 0.481791 -0.239356
C115  C     C_2   0.252847 0.802339 0.477606 -0.215909
C116  C     C_2   0.692251 0.252535 0.981791 -0.239362
C117  C     C_2   0.752847 0.697661 0.977605 -0.215909
C118  C     C_2   0.302363 0.752820 0.977631 -0.217935
C119  C     C_2   0.252547 0.307768 0.981818 -0.237520
C120  C     C_2   0.302062 0.246846 0.977446 -0.221145
C121  C     C_2   0.252710 0.692022 0.982042 -0.234300
C122  C     C_2   0.692046 0.747305 0.982011 -0.236291
C123  C     C_R   0.410821 0.903604 0.730646 -0.189701
C124  C     C_2   0.753173 0.302044 0.977424 -0.219274
C125  C     C_2   0.201376 0.684461 0.494127 0.347793
C126  C     C_2   0.298770 0.184366 0.506836 0.341496
C127  C     C_2   0.815669 0.298747 0.506850 0.342623
C128  C     C_2   0.684477 0.798635 0.494133 0.348320
C129  C     C_2   0.815397 0.701054 0.506865 0.338095
C130  C     C_2   0.684537 0.201374 0.494298 0.345308
C131  C     C_2   0.201389 0.315486 0.494281 0.344932
C132  C     C_2   0.298957 0.815378 0.506854 0.337134
C133  C     C_2   0.701389 0.184514 0.994281 0.344920
C134  C     C_R   0.403807 0.910438 0.230703 -0.188963
C135  C     C_2   0.798956 0.684621 0.006854 0.337139
C136  C     C_2   0.315396 0.798947 0.006864 0.338045
C137  C     C_2   0.184537 0.298626 0.994298 0.345304
C138  C     C_2   0.315669 0.201253 0.006849 0.342623
C139  C     C_2   0.184476 0.701365 0.994133 0.348328
C140  C     C_2   0.701377 0.815539 0.994128 0.347793
C141  C     C_2   0.798770 0.315634 0.006836 0.341494
C142  C     C_R   0.961535 0.554592 0.668528 0.016262
C143  C     C_R   0.445471 0.961641 0.668516 0.017073
C144  C     C_R   0.038450 0.445005 0.668507 0.021475
Cl1   Cl    Cl    0.287918 0.644609 0.499216 -0.458151
Cl2   Cl    Cl    0.783213 0.715153 0.054957 -0.564222
Cl3   Cl    Cl    0.284842 0.783226 0.054961 -0.564368
Cl4   Cl    Cl    0.144988 0.212115 0.000174 -0.475733
Cl5   Cl    Cl    0.286661 0.218213 0.055090 -0.551699
Cl6   Cl    Cl    0.144649 0.787919 0.999182 -0.473513
Cl7   Cl    Cl    0.787918 0.855390 0.999217 -0.458150
Cl8   Cl    Cl    0.781844 0.286575 0.055074 -0.551586
Cl9   Cl    Cl    0.281844 0.213425 0.555074 -0.551585
Cl10  Cl    Cl    0.786661 0.281787 0.555090 -0.551699
Cl11  Cl    Cl    0.644651 0.712081 0.499184 -0.473516
Cl12  Cl    Cl    0.784847 0.716777 0.554962 -0.564376
Cl13  Cl    Cl    0.644988 0.287885 0.500173 -0.475734
Cl14  Cl    Cl    0.287889 0.355076 0.500156 -0.460033
Cl15  Cl    Cl    0.283214 0.784845 0.554956 -0.564213
Cl16  Cl    Cl    0.787889 0.144924 0.000156 -0.460033
H1    H     H_    0.138544 0.772763 0.474841 0.151552
H2    H     H_    0.759564 0.671255 0.949649 0.151768
H3    H     H_    0.328779 0.759520 0.949682 0.151236
H4    H     H_    0.272441 0.361125 0.974230 0.151209
H5    H     H_    0.327724 0.239469 0.949342 0.153104
H6    H     H_    0.272766 0.638516 0.974892 0.150153
H7    H     H_    0.638545 0.727237 0.974841 0.151552
H8    H     H_    0.760536 0.327734 0.949321 0.153722
H9    H     H_    0.136833 0.377086 0.717280 0.152634
H10   H     H_    0.621551 0.138235 0.717368 0.152604
H11   H     H_    0.863018 0.622430 0.717105 0.153554
H12   H     H_    0.260536 0.172266 0.449321 0.153722
H13   H     H_    0.378227 0.862655 0.716985 0.153698
H14   H     H_    0.363007 0.877588 0.217102 0.153557
H15   H     H_    0.121547 0.361762 0.217368 0.152603
H16   H     H_    0.636838 0.122912 0.217280 0.152633
H17   H     H_    0.878227 0.637347 0.216984 0.153697
H18   H     H_    0.361998 0.881422 0.286465 0.154711
H19   H     H_    0.117784 0.361141 0.286668 0.155035
H20   H     H_    0.637692 0.119075 0.286605 0.154783
H21   H     H_    0.882113 0.638542 0.286390 0.154415
H22   H     H_    0.137687 0.380922 0.786605 0.154784
H23   H     H_    0.827725 0.260530 0.449343 0.153104
H24   H     H_    0.617788 0.138856 0.786668 0.155035
H25   H     H_    0.862009 0.618594 0.786466 0.154711
H26   H     H_    0.382112 0.861460 0.786390 0.154415
H27   H     H_    0.410835 0.925732 0.347699 0.155693
H28   H     H_    0.073814 0.410428 0.347806 0.157533
H29   H     H_    0.588965 0.074550 0.347783 0.156807
H30   H     H_    0.926214 0.589583 0.347662 0.155351
H31   H     H_    0.088962 0.425447 0.847783 0.156805
H32   H     H_    0.573816 0.089571 0.847806 0.157532
H33   H     H_    0.910841 0.574276 0.847700 0.155691
H34   H     H_    0.772766 0.861484 0.474891 0.150156
H35   H     H_    0.426213 0.910418 0.847662 0.155350
H36   H     H_    0.945893 0.708067 0.579933 0.266437
H37   H     H_    0.931306 0.764196 0.622372 0.276898
H38   H     H_    0.017680 0.764503 0.598111 0.248854
H39   H     H_    0.025360 0.691953 0.658388 0.237391
H40   H     H_    0.037609 0.636749 0.616078 0.230021
H41   H     H_    0.899863 0.605011 0.621607 0.252869
H42   H     H_    0.899382 0.656917 0.663872 0.205012
H43   H     H_    0.292667 0.946422 0.579638 0.264599
H44   H     H_    0.236016 0.931849 0.621865 0.273917
H45   H     H_    0.828777 0.740478 0.449681 0.151234
H46   H     H_    0.236172 0.018291 0.597628 0.256595
H47   H     H_    0.308005 0.025647 0.658191 0.237778
H48   H     H_    0.363636 0.038000 0.616084 0.237447
H49   H     H_    0.394913 0.899908 0.621679 0.253264
H50   H     H_    0.342937 0.899862 0.663952 0.205343
H51   H     H_    0.061203 0.291643 0.580164 0.254441
H52   H     H_    0.070353 0.235067 0.622856 0.270704
H53   H     H_    0.986710 0.236163 0.595934 0.260189
H54   H     H_    0.974961 0.308265 0.656507 0.238597
H55   H     H_    0.965579 0.363143 0.613872 0.235580
H56   H     H_    0.772442 0.138874 0.474231 0.151209
H57   H     H_    0.102172 0.396030 0.622024 0.244125
H58   H     H_    0.101077 0.343008 0.663917 0.204260
H59   H     H_    0.708367 0.064948 0.580533 0.256950
H60   H     H_    0.764385 0.073806 0.623466 0.273745
H61   H     H_    0.764386 0.990685 0.596110 0.252038
H62   H     H_    0.691732 0.977114 0.656376 0.237796
H63   H     H_    0.637390 0.967997 0.613500 0.227433
H64   H     H_    0.602813 0.103858 0.622170 0.244400
H65   H     H_    0.655880 0.102994 0.664036 0.203739
H66   H     H_    0.570321 0.264977 0.122907 0.270679
H67   H     H_    0.138893 0.227551 0.474204 0.152660
H68   H     H_    0.561275 0.208435 0.080194 0.254491
H69   H     H_    0.486725 0.263859 0.095944 0.260184
H70   H     H_    0.465615 0.136863 0.113842 0.235553
H71   H     H_    0.474929 0.191700 0.156498 0.238610
H72   H     H_    0.601073 0.156997 0.163918 0.204282
H73   H     H_    0.602180 0.103973 0.122026 0.244114
H74   H     H_    0.736025 0.568160 0.121853 0.273927
H75   H     H_    0.792687 0.553572 0.079631 0.264588
H76   H     H_    0.736180 0.481712 0.097621 0.256593
H77   H     H_    0.863637 0.461996 0.116089 0.237451
H78   H     H_    0.259563 0.828746 0.449649 0.151768
H79   H     H_    0.807995 0.474363 0.158190 0.237775
H80   H     H_    0.842938 0.600141 0.163952 0.205336
H81   H     H_    0.894915 0.600094 0.121679 0.253268
H82   H     H_    0.431444 0.735669 0.122537 0.276746
H83   H     H_    0.445789 0.791690 0.080027 0.266600
H84   H     H_    0.517732 0.735421 0.098185 0.248872
H85   H     H_    0.537565 0.863242 0.116021 0.229963
H86   H     H_    0.525485 0.808171 0.158400 0.237410
H87   H     H_    0.399415 0.843071 0.163882 0.205078
H88   H     H_    0.399883 0.894962 0.121608 0.252822
H89   H     H_    0.638893 0.272449 0.974204 0.152660
H90   H     H_    0.264400 0.426207 0.123483 0.273734
H91   H     H_    0.208390 0.435026 0.080544 0.256968
H92   H     H_    0.264390 0.509310 0.096112 0.252036
H93   H     H_    0.137389 0.531990 0.113489 0.227424
H94   H     H_    0.191718 0.522899 0.156372 0.237798
H95   H     H_    0.155882 0.397009 0.164038 0.203748
H96   H     H_    0.102813 0.396139 0.122172 0.244395
O1    O     O_3   0.500000 0.000000 0.500000 -0.503690
O2    O     O_R   0.560130 0.000000 0.087440 -0.647070
O3    O     O_R   0.000000 0.560130 0.087440 -0.644091
O4    O     O_R   0.439870 0.000000 0.087440 -0.639276
O5    O     O_R   0.439940 0.000000 0.412560 -0.639875
O6    O     O_R   0.000000 0.439940 0.412560 -0.639452
O7    O     O_R   0.560060 0.000000 0.412560 -0.637863
O8    O     O_R   0.000000 0.560060 0.412560 -0.638504
O9    O     O_R   0.939940 0.500000 0.912560 -0.639875
O10   O     O_R   0.500000 0.939940 0.912560 -0.638505
O11   O     O_R   0.060060 0.500000 0.912560 -0.637863
O12   O     O_3   1.000000 0.500000 0.500000 -0.503452
O13   O     O_R   0.500000 0.060060 0.912560 -0.639453
O14   O     O_R   0.415450 0.144560 0.522930 -0.573138
O15   O     O_R   0.855440 0.415450 0.522930 -0.576998
O16   O     O_R   0.584550 0.855440 0.522930 -0.580642
O17   O     O_R   0.144560 0.584550 0.522930 -0.577758
O18   O     O_R   0.584550 0.144560 0.522930 -0.585564
O19   O     O_R   0.144560 0.415450 0.522930 -0.582254
O20   O     O_R   0.415450 0.855440 0.522930 -0.577177
O21   O     O_R   0.855440 0.584550 0.522930 -0.581310
O22   O     O_R   0.915450 0.644560 0.022930 -0.577177
O23   O     O_3   0.000000 0.500000 0.000000 -0.503690
O24   O     O_R   0.355440 0.915450 0.022930 -0.581303
O25   O     O_R   0.084550 0.355440 0.022930 -0.585564
O26   O     O_R   0.644560 0.084550 0.022930 -0.582250
O27   O     O_R   0.084550 0.644560 0.022930 -0.580643
O28   O     O_R   0.644560 0.915450 0.022930 -0.577767
O29   O     O_R   0.915450 0.355440 0.022930 -0.573137
O30   O     O_R   0.355440 0.084550 0.022930 -0.577001
O31   O     O_R   0.644640 0.915430 0.477080 -0.669187
O32   O     O_R   0.084570 0.644640 0.477080 -0.668793
O33   O     O_R   0.355360 0.084570 0.477080 -0.672202
O34   O     O_3   0.500000 0.000000 0.000000 -0.503454
O35   O     O_R   0.915430 0.355360 0.477080 -0.672197
O36   O     O_R   0.355360 0.915430 0.477080 -0.673308
O37   O     O_R   0.915430 0.644640 0.477080 -0.673695
O38   O     O_R   0.644640 0.084570 0.477080 -0.669972
O39   O     O_R   0.084570 0.355360 0.477080 -0.669339
O40   O     O_R   0.144640 0.415430 0.977080 -0.669971
O41   O     O_R   0.584570 0.144640 0.977080 -0.669336
O42   O     O_R   0.855360 0.584570 0.977080 -0.673308
O43   O     O_R   0.415430 0.855360 0.977080 -0.673694
O44   O     O_R   0.855360 0.415430 0.977080 -0.672203
O45   O     O_R   0.500000 0.939870 0.587440 -0.644090
O46   O     O_R   0.415430 0.144640 0.977080 -0.672196
O47   O     O_R   0.144640 0.584570 0.977080 -0.669187
O48   O     O_R   0.584570 0.855360 0.977080 -0.668790
O49   O     O_R   0.060130 0.500000 0.587440 -0.647062
O50   O     O_R   0.500000 0.060130 0.587440 -0.642388
O51   O     O_R   0.939870 0.500000 0.587440 -0.639286
O52   O     O_R   0.000000 0.439870 0.087440 -0.642387
Zn1   Zn    Zn3+2 0.414160 0.000000 0.467250 0.974809
Zn2   Zn    Zn3+2 0.914220 0.500000 0.532750 1.044372
Zn3   Zn    Zn3+2 0.500000 0.914220 0.532750 1.044404
Zn4   Zn    Zn3+2 0.085780 0.500000 0.532750 1.044325
Zn5   Zn    Zn3+2 0.000000 0.585780 0.032750 1.044402
Zn6   Zn    Zn3+2 0.414220 0.000000 0.032750 1.044383
Zn7   Zn    Zn3+2 1.000000 0.414220 0.032750 1.044832
Zn8   Zn    Zn3+2 0.585780 0.000000 0.032750 1.044317
Zn9   Zn    Zn3+2 1.000000 0.414160 0.467250 0.975279
Zn10  Zn    Zn3+2 0.585840 0.000000 0.467250 0.974992
Zn11  Zn    Zn3+2 1.000000 0.585840 0.467250 0.974347
Zn12  Zn    Zn3+2 0.914160 0.500000 0.967250 0.974808
Zn13  Zn    Zn3+2 0.500000 0.914160 0.967250 0.974357
Zn14  Zn    Zn3+2 0.085840 0.500000 0.967250 0.974993
Zn15  Zn    Zn3+2 0.500000 0.085840 0.967250 0.975282
Zn16  Zn    Zn3+2 0.500000 0.085780 0.532750 1.044831

loop_
_geom_bond_atom_site_label_1
_geom_bond_atom_site_label_2
_ccdc_geom_bond_type
C58   H26   S    
C64   C77   A    
O22   Zn5   S    
C9    C143  A    
C29   H50   S    
C121  H6    S    
C91   O35   A    
C91   C127  S    
O5    Zn1   S    
C52   C61   A    
C44   H76   S    
C49   H95   S    
O2    Zn8   S    
C54   C63   A    
C45   H88   S    
C57   O51   A    
C110  C111  S    
C114  H67   S    
C124  H8    S    
C109  C127  D    
O29   Zn7   S    
C36   H64   S    
O11   Zn14  S    
C100  O40   A    
C35   H18   S    
C104  O48   A    
C18   C25   A    
C85   O7    A    
C48   H83   S    
C76   C83   A    
C86   O8    A    
C45   C47   S    
C102  O41   A    
C96   O36   A    
C75   H30   S    
C39   H73   S    
O12   Zn11  S    
C42   H80   S    
C116  C133  D    
C89   O14   A    
C78   H33   S    
C131  Cl14  S    
C19   C23   A    
C43   C44   S    
C6    C10   A    
C37   C38   S    
C8    C57   S    
C129  Cl12  S    
C15   C142  A    
O43   Zn13  S    
C135  Cl2   S    
C58   C123  A    
C101  H10   S    
C107  C125  D    
O12   Zn4   S    
C34   H52   S    
C62   C75   A    
C25   C69   A    
C74   C81   A    
C117  C135  D    
C47   H85   S    
C73   H28   S    
C118  C136  D    
O13   Zn15  S    
C41   H66   S    
C122  H7    S    
C134  H14   S    
C46   C60   A    
C77   H32   S    
C46   H19   S    
C84   C88   S    
O32   Zn11  S    
C34   H53   S    
O34   Zn15  S    
C93   O32   A    
C61   C74   A    
O49   Zn4   S    
C139  Cl6   S    
C28   H37   S    
C133  Cl16  S    
O46   Zn15  S    
C50   H93   S    
C30   H47   S    
O30   Zn6   S    
C99   C136  S    
C32   C144  S    
C99   O43   A    
C100  C137  S    
C88   O13   A    
C56   H25   S    
O24   Zn6   S    
C63   C76   A    
C108  C126  D    
O50   Zn16  S    
C86   O6    A    
C32   H58   S    
C110  C128  D    
C36   H65   S    
C137  Cl4   S    
C33   H55   S    
O41   Zn15  S    
C5    C20   A    
C17   C23   A    
C130  Cl13  S    
O23   Zn14  S    
C12   C90   A    
C36   C37   S    
C54   C90   A    
C103  C139  S    
C112  H11   S    
C116  H89   S    
C65   C70   A    
C53   C62   A    
C23   C67   A    
C97   O21   A    
C43   H77   S    
C59   C67   A    
C55   H24   S    
C63   C70   A    
O48   Zn13  S    
C41   H68   S    
O31   Zn10  S    
C92   O31   A    
C127  Cl10  S    
O37   Zn11  S    
C115  C132  D    
C138  Cl5   S    
O33   Zn1   S    
O39   Zn9   S    
C132  Cl15  S    
C113  C130  D    
C80   C84   A    
O15   Zn2   S    
C26   H41   S    
C27   H39   S    
C37   H63   S    
C48   H82   S    
C39   C40   S    
O34   Zn13  S    
C77   C84   A    
C98   C135  S    
C105  O29   A    
C117  C122  S    
O7    Zn10  S    
C93   O17   A    
C29   C30   S    
C3    C9    A    
O52   Zn7   S    
C2    H15   S    
C61   C67   A    
C51   H92   S    
C31   H44   S    
C89   O33   A    
O23   Zn12  S    
C108  H12   S    
C96   O20   A    
C124  C141  D    
C17   C134  A    
C11   C68   S    
O10   Zn13  S    
C6    C17   A    
C33   H54   S    
C15   C112  A    
C68   O52   A    
C119  H4    S    
C75   C82   A    
C29   H49   S    
C117  H2    S    
C66   C80   A    
O51   Zn2   S    
C14   C22   A    
C106  O46   A    
O16   Zn3   S    
C122  C140  D    
C39   H72   S    
C125  Cl1   S    
C60   C69   A    
C90   H9    S    
C28   H36   S    
C72   H27   S    
C49   C50   S    
O4    Zn6   S    
C113  H56   S    
C40   H70   S    
C81   C85   S    
C141  Cl8   S    
C87   O11   A    
O38   Zn10  S    
C98   O42   A    
C83   C87   S    
C5    C42   S    
C6    C45   S    
O9    Zn12  S    
C114  C131  D    
C48   H84   S    
O44   Zn12  S    
O23   Zn7   S    
C26   C27   S    
C97   O37   A    
O6    Zn9   S    
C5    C11   A    
O20   Zn3   S    
C30   C31   S    
C92   O16   A    
C20   C25   A    
C29   C143  S    
C60   C73   A    
O1    Zn16  S    
C95   O19   A    
C35   C134  A    
C35   C59   A    
C64   C71   A    
C108  C114  S    
C51   H90   S    
O36   Zn1   S    
C78   C83   A    
C111  C129  D    
C107  H1    S    
C100  O25   A    
C105  O44   A    
C111  H45   S    
C72   C81   A    
C59   C72   A    
C109  H23   S    
C95   C131  S    
C38   H59   S    
C123  H13   S    
C120  H5    S    
C89   C126  S    
C118  H3    S    
C13   C19   A    
C16   C143  A    
C1    C9    S    
O27   Zn5   S    
C44   H75   S    
C49   H96   S    
C14   C101  A    
C24   C53   A    
C82   C86   S    
C28   H38   S    
C62   C69   A    
C95   O39   A    
C50   H94   S    
C13   C52   A    
C66   C71   A    
C30   H48   S    
C50   C51   S    
C94   C130  S    
C40   H71   S    
C140  Cl7   S    
C3    C14   A    
C87   O9    A    
O3    Zn5   S    
C98   O22   A    
C42   C43   S    
O42   Zn12  S    
C73   C82   A    
C38   H61   S    
O23   Zn5   S    
C80   H35   S    
C16   C22   A    
C65   C78   A    
C116  C124  S    
C106  O30   A    
C94   O18   A    
C68   O3    A    
C10   C79   S    
C42   H81   S    
C32   C33   S    
C94   O38   A    
C104  O28   A    
C121  C139  D    
C93   C125  S    
C102  C133  S    
C34   H51   S    
C126  Cl9   S    
C104  C140  S    
C24   H17   S    
O34   Zn6   S    
C8    C142  A    
C47   H86   S    
O19   Zn4   S    
C13   H16   S    
C2    C18   A    
C102  O26   A    
O1    Zn10  S    
C45   H87   S    
C2    C46   A    
C7    C11   A    
C79   O4    A    
C26   H42   S    
C16   C123  A    
C37   H62   S    
C91   O15   A    
C105  C141  S    
O21   Zn2   S    
C106  C138  S    
O18   Zn16  S    
C56   C65   A    
C74   H29   S    
O1    Zn1   S    
C128  Cl11  S    
C4    C19   A    
C58   C66   A    
C20   C24   A    
C110  H34   S    
C54   H22   S    
C51   H91   S    
O47   Zn14  S    
C31   H43   S    
C32   H57   S    
C109  C113  S    
C96   C132  S    
C103  O47   A    
O40   Zn14  S    
C1    O45   A    
C92   C128  S    
C103  O27   A    
O28   Zn8   S    
C119  C137  D    
C38   H60   S    
C7    C49   S    
C31   H46   S    
O8    Zn11  S    
C12   C21   A    
C12   C144  A    
C118  C121  S    
C52   H20   S    
C44   H74   S    
C99   O24   A    
C47   C48   S    
C4    C39   S    
C7    C18   A    
C55   C64   A    
C33   C34   S    
C8    C144  A    
C119  C120  S    
C57   O49   A    
O17   Zn4   S    
C107  C115  S    
C43   H79   S    
C40   C41   S    
C41   H69   S    
C4    C10   A    
O35   Zn9   S    
C22   C71   A    
C79   O2    A    
C27   H40   S    
C85   O5    A    
C115  H78   S    
C53   H21   S    
C1    O50   A    
C55   C101  A    
C21   C70   A    
O1    Zn3   S    
C97   C129  S    
C76   H31   S    
O12   Zn9   S    
C88   O10   A    
C3    C36   S    
O34   Zn8   S    
C136  Cl3   S    
C15   C21   A    
C120  C138  D    
O45   Zn3   S    
C27   C28   S    
O14   Zn16  S    
O25   Zn7   S    
C26   C142  S    
O26   Zn8   S    
C56   C112  A    
O12   Zn2   S    
