data_mof_unit_28285.cif
_audit_creation_date              2012-12-11T15:49:32-0500
_audit_creation_method            fapswitch 2.2
_symmetry_space_group_name_H-M    P1
_symmetry_Int_Tables_number       1
_space_group_crystal_system       triclinic
_cell_length_a                    8.244423
_cell_length_b                    18.998061
_cell_length_c                    27.041545
_cell_angle_alpha                 94.84008
_cell_angle_beta                  92.863643
_cell_angle_gamma                 85.526108
_cell_volume                      4203.48850255

loop_
_atom_site_label
_atom_site_type_symbol
_atom_type_description
_atom_site_fract_x
_atom_site_fract_y
_atom_site_fract_z
_atom_type_partial_charge
Ba1   Ba    Ba6+2 0.854000 0.466860 0.523710 1.641735
Ba2   Ba    Ba6+2 0.335820 0.533080 0.476290 1.639755
C1    C     C_3   0.706484 0.204157 0.657944 -0.365181
C2    C     C_R   0.914661 0.571629 0.177069 0.574072
C3    C     C_2   0.760402 0.549635 0.272165 -0.084493
C4    C     C_3   0.127804 0.312726 0.659943 0.336107
C5    C     C_3   0.743178 0.571933 0.326577 -0.049395
C6    C     C_1   0.981489 0.490491 0.343317 0.033439
C7    C     C_2   0.020849 0.487211 0.295726 -0.105094
C8    C     C_2   0.902326 0.516242 0.256598 0.194153
C9    C     C_R   0.017998 0.505413 0.102319 -0.079575
C10   C     C_R   0.044603 0.445140 0.129526 -0.035921
C11   C     C_R   0.109859 0.381927 0.105399 -0.060547
C12   C     C_3   0.666203 0.276565 0.638525 0.357555
C13   C     C_R   0.952226 0.568897 0.126461 -0.024404
C14   C     C_2   0.849891 0.527264 0.360290 -0.291206
C15   C     C_2   0.348589 0.479626 0.640911 -0.280613
C16   C     C_3   0.113883 0.290664 0.712210 -0.318928
C17   C     C_R   0.161227 0.434519 0.975738 0.020143
C18   C     C_R   0.067083 0.560670 0.972887 0.020394
C19   C     C_R   0.133150 0.496049 0.948932 0.049521
C20   C     C_R   0.227260 0.371668 0.949969 -0.101584
C21   C     C_R   0.264144 0.369323 0.900170 -0.060644
C22   C     C_R   0.237349 0.429416 0.873364 -0.024547
C23   C     C_3   0.520170 0.632435 0.625771 0.294791
C24   C     C_R   0.171775 0.492905 0.897562 -0.079589
C25   C     C_R   0.145389 0.553238 0.870414 -0.035719
C26   C     C_R   0.185213 0.549389 0.819716 0.596784
C27   C     C_R   0.274876 0.426756 0.822734 0.574680
C28   C     C_3   0.187274 0.317825 0.419042 0.315302
C29   C     C_2   0.429266 0.449420 0.727519 -0.085930
C30   C     C_3   0.447321 0.429642 0.672790 -0.047632
C31   C     C_1   0.210836 0.511747 0.657075 0.029386
C32   C     C_2   0.169060 0.512439 0.704318 -0.103795
C33   C     C_2   0.287055 0.482440 0.743277 0.194671
C34   C     C_3   0.523566 0.648869 0.681803 -0.356723
C35   C     C_R   0.122836 0.437631 0.027011 0.020332
C36   C     C_R   0.056655 0.502244 0.050950 0.049514
C37   C     C_R   0.028506 0.563757 0.024130 0.020206
C38   C     C_R   0.148146 0.378138 0.055553 -0.098997
C39   C     C_R   0.925234 0.628948 0.099627 -0.060740
C40   C     C_3   0.196538 0.237981 0.407017 -0.383426
C41   C     C_R   0.042099 0.620221 0.944398 -0.099097
C42   C     C_R   0.080422 0.616469 0.894574 -0.060564
C43   C     C_R   0.962174 0.626583 0.049849 -0.101712
C44   C     C_R   0.400574 0.299171 0.523376 -0.292628
C45   C     C_3   0.064074 0.685837 0.339100 0.337824
C46   C     C_R   0.538046 0.276515 0.496859 0.067488
C47   C     C_R   0.589756 0.204438 0.491725 -0.124293
C48   C     C_R   0.501784 0.154225 0.512347 -0.018024
C49   C     C_R   0.358373 0.177770 0.537223 -0.137625
C50   C     C_R   0.306656 0.250078 0.541637 0.011335
C51   C     C_R   0.547672 0.033969 0.545031 -0.076639
C52   C     C_3   0.007563 0.682055 0.579989 0.313600
C53   C     C_R   0.598342 0.961868 0.539023 -0.077054
C54   C     C_R   0.657488 0.931192 0.493560 0.059862
C55   C     C_R   0.666956 0.974758 0.454489 -0.077316
C56   C     C_3   0.078789 0.706603 0.286523 -0.317312
C57   C     C_R   0.616499 0.046993 0.460537 -0.075864
C58   C     C_R   0.555723 0.077439 0.505859 0.063030
C59   C     C_R   0.846072 0.827481 0.461520 -0.134018
C60   C     C_R   0.891378 0.754398 0.457405 0.015063
C61   C     C_R   0.658691 0.733152 0.503448 0.040462
C62   C     C_R   0.612432 0.805592 0.507931 -0.118768
C63   C     C_R   0.704874 0.853780 0.486789 -0.010636
C64   C     C_3   0.995065 0.761871 0.592301 -0.384934
C65   C     C_R   0.793315 0.707680 0.476478 -0.284998
C66   C     C_3   0.671280 0.381966 0.376005 0.299975
C67   C     C_3   0.525104 0.723517 0.360936 0.362308
C68   C     C_3   0.666381 0.365403 0.319964 -0.357204
C69   C     C_3   0.484276 0.795691 0.341189 -0.365159
C70   C     C_R   0.004748 0.449063 0.180246 0.597055
H1    H     H_    0.710041 0.274952 0.600202 0.075298
H2    H     H_    0.795757 0.394431 0.388768 0.009940
H3    H     H_    0.584563 0.428454 0.384850 0.079653
H4    H     H_    0.839184 0.189455 0.656890 0.149406
H5    H     H_    0.757205 0.320906 0.309799 0.133760
H6    H     H_    0.694830 0.412442 0.301362 0.071512
H7    H     H_    0.542966 0.350615 0.306708 0.133307
H8    H     H_    0.531378 0.286555 0.637462 -0.063204
H9    H     H_    0.641270 0.163728 0.634350 0.067527
H10   H     H_    0.394325 0.621311 0.612888 0.018617
H11   H     H_    0.604214 0.584798 0.617356 0.070243
H12   H     H_    0.276417 0.223015 0.375357 0.127065
H13   H     H_    0.437495 0.695277 0.691650 0.134084
H14   H     H_    0.487337 0.602628 0.700004 0.074830
H15   H     H_    0.648423 0.660661 0.695680 0.132874
H16   H     H_    0.667728 0.204694 0.696729 0.120745
H17   H     H_    0.116950 0.338012 0.738947 0.124417
H18   H     H_    0.140968 0.635820 0.343450 0.090807
H19   H     H_    0.934825 0.677357 0.344374 -0.052554
H20   H     H_    0.195937 0.730165 0.282673 0.146403
H21   H     H_    0.075430 0.658731 0.260281 0.123297
H22   H     H_    0.977199 0.745657 0.276911 0.117535
H23   H     H_    0.246912 0.210515 0.439514 0.063369
H24   H     H_    0.659835 0.713362 0.361375 -0.066964
H25   H     H_    0.483553 0.725635 0.399542 0.076740
H26   H     H_    0.549960 0.836346 0.364431 0.067494
H27   H     H_    0.351627 0.810421 0.342414 0.150729
H28   H     H_    0.047759 0.361961 0.655915 0.090637
H29   H     H_    0.522160 0.794717 0.302284 0.119732
H30   H     H_    0.140173 0.464587 0.285052 0.129577
H31   H     H_    0.132026 0.334530 0.125119 0.122012
H32   H     H_    0.521324 0.428873 0.753734 0.118667
H33   H     H_    0.314417 0.319535 0.882621 0.121632
H34   H     H_    0.072841 0.220424 0.397092 0.127452
H35   H     H_    0.252540 0.322653 0.967049 0.068587
H36   H     H_    0.197677 0.327141 0.040657 0.068723
H37   H     H_    0.668102 0.569389 0.245720 0.118698
H38   H     H_    0.874735 0.678723 0.117135 0.121671
H39   H     H_    0.992904 0.671259 0.959318 0.068704
H40   H     H_    0.256207 0.323188 0.655085 -0.054212
H41   H     H_    0.058502 0.663915 0.874895 0.122089
H42   H     H_    0.049499 0.534775 0.714973 0.129897
H43   H     H_    0.936589 0.675563 0.032748 0.068558
H44   H     H_    0.834542 0.537796 0.399908 0.083923
H45   H     H_    0.885837 0.664401 0.568983 0.000715
H46   H     H_    0.380242 0.480210 0.602482 0.078660
H47   H     H_    0.506256 0.824189 0.528651 0.075639
H48   H     H_    0.592503 0.930189 0.570256 0.063849
H49   H     H_    0.504020 0.055943 0.580607 0.063326
H50   H     H_    0.697447 0.187689 0.471220 0.084680
H51   H     H_    0.709974 0.952646 0.418868 0.063771
H52   H     H_    0.997046 0.266731 0.715804 0.144687
H53   H     H_    0.622093 0.078753 0.429336 0.062088
H54   H     H_    0.923851 0.863581 0.447106 0.077246
H55   H     H_    0.283783 0.140039 0.551192 0.079151
H56   H     H_    0.090163 0.669193 0.548860 0.071196
H57   H     H_    0.829453 0.651537 0.473895 0.062678
H58   H     H_    0.359517 0.354804 0.526401 0.071293
H59   H     H_    0.216000 0.251586 0.721330 0.118221
H60   H     H_    0.311245 0.334635 0.427827 0.003335
H61   H     H_    0.110333 0.331218 0.451540 0.064825
H62   H     H_    0.906261 0.776401 0.621695 0.130447
H63   H     H_    0.954305 0.789560 0.558990 0.063874
H64   H     H_    0.116010 0.779679 0.605578 0.126536
N1    N     N_R   0.941159 0.512087 0.203906 -0.421809
N2    N     N_R   0.248388 0.486355 0.795967 -0.421786
O1    O     O_2   0.913240 0.537010 0.617740 -0.457660
O2    O     O_2   0.228839 0.750108 0.464547 -0.483346
O3    O     O_3   0.116949 0.740102 0.373016 -0.602426
O4    O     O_3   0.145240 0.536960 0.557560 -0.492144
O5    O     O_3   0.557280 0.416300 0.475860 -0.488986
O6    O     O_2   0.376710 0.670070 0.522470 -0.457005
O7    O     O_3   0.568787 0.690949 0.603404 -0.641428
O8    O     O_2   0.414172 0.534175 0.322164 -0.498112
O9    O     O_3   0.446264 0.671327 0.330628 -0.594353
O10   O     O_2   0.024509 0.395938 0.203002 -0.597199
O11   O     O_2   0.330436 0.370774 0.802471 -0.620662
O12   O     O_3   0.628995 0.322515 0.398266 -0.635435
O13   O     O_2   0.859075 0.627657 0.197267 -0.620756
O14   O     O_2   0.165844 0.602612 0.797053 -0.597544
O15   O     O_3   0.669960 0.410470 0.588880 -0.481039
O16   O     O_2   0.777141 0.465749 0.677629 -0.495387
O17   O     O_3   0.067259 0.649795 0.622397 -0.625290
O18   O     O_3   0.743050 0.328566 0.669567 -0.597374
O19   O     O_2   0.812980 0.329910 0.477500 -0.460245
O20   O     O_3   0.078660 0.374870 0.564770 -0.493561
O21   O     O_2   0.969835 0.248997 0.533362 -0.483965
O22   O     O_3   0.079209 0.258255 0.625429 -0.602470
O23   O     O_2   0.276450 0.462960 0.382230 -0.461855
O24   O     O_3   0.044470 0.462980 0.442430 -0.494312
O25   O     O_3   0.519740 0.589470 0.411120 -0.476029
O26   O     O_3   0.120825 0.350171 0.377365 -0.623662
O27   O     O_3   0.632420 0.583650 0.524140 -0.476741
O28   O     O_3   0.111040 0.625070 0.435230 -0.492039
P1    P     P_3+3 0.082480 0.557670 0.610090 0.995003
P2    P     P_3+3 0.635220 0.340300 0.462910 0.985775
P3    P     P_3+3 0.108026 0.282529 0.565737 0.942930
P4    P     P_3+3 0.107220 0.442270 0.389900 0.994312
P5    P     P_3+3 0.087333 0.717633 0.433098 0.944307
P6    P     P_3+3 0.660941 0.411459 0.653193 0.947180
P7    P     P_3+3 0.561272 0.671609 0.538917 0.949763
P8    P     P_3+3 0.529747 0.588579 0.346831 0.943849

loop_
_geom_bond_atom_site_label_1
_geom_bond_atom_site_label_2
_ccdc_geom_bond_type
C53   C54   A    
C68   H6    S    
Ba2   O6    S    
O26   P4    S    
C28   O26   S    
C19   C24   A    
C67   H24   S    
Ba2   O24   S    
C56   H20   S    
O9    P8    S    
C31   P1    S    
C66   H3    S    
C27   N2    Am   
C24   C25   A    
C62   H47   S    
C60   P5    S    
C60   C65   A    
Ba1   O20   S    
C17   C19   A    
C56   H21   S    
C22   C24   A    
C32   C33   S    
C35   C38   A    
C33   N2    S    
C36   C37   A    
C28   H60   S    
C64   H63   S    
C55   C57   A    
Ba1   P1    S    
C66   H2    S    
C20   H35   S    
C21   H33   S    
C5    P8    S    
C44   C50   A    
O3    P5    S    
C54   C55   A    
O19   P2    D    
Ba1   Ba2   S    
C67   C69   S    
C22   C27   A    
C11   C38   A    
Ba1   O4    S    
C17   C35   A    
O4    P1    S    
C64   H62   S    
C9    C13   A    
C25   C42   A    
O17   P1    S    
C6    C7    D    
O24   P4    S    
O6    P7    D    
C1    H9    S    
O22   P3    S    
C59   H54   S    
C8    N1    S    
C12   H8    S    
C11   H31   S    
C7    C8    S    
Ba2   O28   S    
Ba1   O1    S    
C37   C43   A    
C30   P6    S    
O28   P5    S    
C6    C14   D    
C68   H5    S    
Ba2   O5    S    
C16   H59   S    
C65   H57   S    
C15   C31   D    
C14   H44   S    
Ba2   O23   S    
C51   C58   A    
C6    P4    S    
C61   P7    S    
C44   C46   A    
C53   H48   S    
C51   C53   A    
C34   H15   S    
C4    C16   S    
C69   H26   S    
C61   C65   A    
O16   P6    D    
C40   H23   S    
C12   H1    S    
C17   C20   A    
C26   N2    Am   
C13   C39   A    
C52   O17   S    
C3    C5    S    
C18   C37   A    
C7    H30   S    
Ba1   P2    S    
C34   H14   S    
C70   O10   D    
C52   H56   S    
O18   P6    S    
C49   C50   A    
C4    H28   S    
C50   P3    S    
C9    C36   A    
O1    P1    D    
C41   C42   A    
C35   C36   A    
Ba1   O5    S    
C55   H51   S    
C43   H43   S    
C29   C30   S    
C46   P2    S    
Ba1   O27   S    
C21   C22   A    
C28   H61   S    
O12   P2    S    
C48   C49   A    
C40   H12   S    
C18   C19   A    
Ba1   O15   S    
C1    H4    S    
C40   H34   S    
Ba2   O27   S    
C1    C12   S    
C15   H46   S    
Ba2   P4    S    
C64   H64   S    
O23   P4    D    
C70   N1    Am   
O7    P7    S    
C42   H41   S    
C26   O14   D    
O2    P5    D    
C39   H38   S    
C23   H10   S    
C67   O9    S    
C45   H18   S    
C29   C33   D    
C57   H53   S    
C18   C41   A    
C2    O13   D    
C46   C47   A    
O21   P3    D    
C12   O18   S    
C1    H16   S    
C16   H17   S    
C45   H19   S    
C23   O7    S    
C5    C14   S    
C2    N1    Am   
C69   H29   S    
Ba2   O25   S    
C44   H58   S    
C4    O22   S    
C9    C10   A    
O20   P3    S    
C52   C64   S    
C34   H13   S    
C32   H42   S    
C45   O3    S    
C38   H36   S    
C49   H55   S    
C29   H32   S    
C2    C13   A    
Ba1   O19   S    
C56   H22   S    
C48   C58   S    
C3    C8    D    
C51   H49   S    
C62   C63   A    
C45   C56   S    
C68   H7    S    
C3    H37   S    
Ba2   O4    S    
C47   H50   S    
O8    P8    D    
O15   P6    S    
C31   C32   D    
C69   H27   S    
C59   C60   A    
C10   C70   A    
O5    P2    S    
C66   O12   S    
Ba1   O24   S    
C23   C34   S    
C27   O11   D    
C61   C62   A    
C41   H39   S    
C59   C63   A    
C57   C58   A    
C10   C11   A    
C66   C68   S    
C47   C48   A    
C52   H45   S    
C25   C26   A    
C23   H11   S    
C15   C30   S    
C39   C43   A    
C20   C21   A    
C28   C40   S    
C4    H40   S    
O25   P8    S    
O27   P7    S    
C54   C63   S    
C16   H52   S    
C67   H25   S    
