data_mof_unit_42799.cif
_audit_creation_date              2012-12-10T16:58:30-0500
_audit_creation_method            fapswitch 2.2
_symmetry_space_group_name_H-M    P1
_symmetry_Int_Tables_number       1
_space_group_crystal_system       triclinic
_cell_length_a                    7.774267
_cell_length_b                    8.613258
_cell_length_c                    23.405683
_cell_angle_alpha                 92.083224
_cell_angle_beta                  84.98985
_cell_angle_gamma                 93.138043
_cell_volume                      1558.1711649

loop_
_atom_site_label
_atom_site_type_symbol
_atom_type_description
_atom_site_fract_x
_atom_site_fract_y
_atom_site_fract_z
_atom_type_partial_charge
C1    C     C_R   0.544663 0.794087 0.498619 0.935483
C2    C     C_R   0.339233 0.462387 0.303434 -0.205521
C3    C     C_R   0.671790 0.538377 0.755453 0.152906
C4    C     C_R   0.328297 0.461463 0.244539 0.152903
C5    C     C_R   0.523534 0.498019 0.791378 0.233232
C6    C     C_R   0.476511 0.502019 0.208625 0.233220
C7    C     C_2   0.565385 0.956242 0.506034 -0.106119
C8    C     C_2   0.434616 0.043758 0.493965 -0.106119
C9    C     C_R   0.500360 0.498329 0.610720 0.869420
C10   C     C_R   0.499640 0.501672 0.389281 0.869395
C11   C     C_R   0.512639 0.365152 0.117787 0.496405
C12   C     C_R   0.455337 0.205913 0.501381 0.935505
C13   C     C_R   0.487460 0.634895 0.882215 0.496433
C14   C     C_R   0.438294 0.631606 0.122031 0.500276
C15   C     C_R   0.561781 0.368435 0.877971 0.500251
C16   C     C_R   0.448323 0.635001 0.062273 -0.012245
C17   C     C_R   0.551776 0.365044 0.937729 -0.012240
C18   C     C_R   0.493066 0.499394 0.030091 -0.021149
C19   C     C_R   0.507041 0.500654 0.969911 -0.021149
C20   C     C_R   0.524492 0.362694 0.057949 -0.010956
C21   C     C_R   0.475617 0.637354 0.942053 -0.010966
C22   C     C_R   0.417228 0.770528 0.034126 -0.166207
C23   C     C_R   0.367193 0.455635 0.768668 -0.092977
C24   C     C_R   0.582881 0.229519 0.965876 -0.166209
C25   C     C_R   0.430816 0.771711 0.974469 -0.173341
C26   C     C_R   0.569300 0.228339 0.025534 -0.173343
C27   C     C_R   0.632784 0.544602 0.231347 -0.092965
C28   C     C_R   0.354834 0.454337 0.709869 0.070746
C29   C     C_R   0.645119 0.545890 0.290147 0.070698
C30   C     C_R   0.503436 0.496913 0.673092 -0.131281
C31   C     C_R   0.496570 0.503100 0.326912 -0.131224
C32   C     C_R   0.660836 0.537434 0.696560 -0.205517
H1    H     H_    0.382481 0.875869 0.058051 0.195999
H2    H     H_    0.140747 0.500052 0.670850 0.212022
H3    H     H_    0.790223 0.685045 0.341366 0.204415
H4    H     H_    0.859284 0.500466 0.329174 0.212052
H5    H     H_    0.816373 0.676694 0.806346 0.215434
H6    H     H_    0.868847 0.488275 0.801407 0.207440
H7    H     H_    0.131186 0.511368 0.198579 0.207357
H8    H     H_    0.183913 0.323017 0.193628 0.215523
H9    H     H_    0.719593 0.965362 0.572054 0.181950
H10   H     H_    0.825907 0.990411 0.506524 0.182701
H11   H     H_    0.280410 0.034637 0.427944 0.181946
H12   H     H_    0.617627 0.124178 0.941951 0.196001
H13   H     H_    0.174093 0.009591 0.493474 0.182702
H14   H     H_    0.997378 0.362214 0.408004 0.159029
H15   H     H_    0.975464 0.238441 0.462005 0.174679
H16   H     H_    0.002629 0.637827 0.591990 0.158991
H17   H     H_    0.024537 0.761569 0.537980 0.174686
H18   H     H_    0.405531 0.877764 0.953897 0.192043
H19   H     H_    0.594590 0.122287 0.046105 0.192041
H20   H     H_    0.254328 0.423917 0.797193 0.153022
H21   H     H_    0.745613 0.576485 0.202832 0.153045
H22   H     H_    0.775728 0.570102 0.669209 0.166927
H23   H     H_    0.224384 0.429554 0.330779 0.166881
H24   H     H_    0.209443 0.315338 0.658685 0.204469
N1    N     N_R   0.471344 0.498436 0.148110 -0.360872
N2    N     N_3   0.284364 0.981174 0.467191 -0.435022
N3    N     N_3   0.031393 0.346218 0.449474 -0.323323
N4    N     N_3   0.968610 0.653798 0.550519 -0.323315
N5    N     N_R   0.528730 0.501605 0.851892 -0.360871
N6    N     N_2   0.950330 0.457950 0.484560 -0.000171
N7    N     N_2   0.049670 0.542050 0.515440 -0.000172
N8    N     N_3   0.191465 0.405782 0.689280 -0.439150
N9    N     N_3   0.808399 0.594669 0.310754 -0.439136
N10   N     N_3   0.833710 0.581005 0.778059 -0.450971
N11   N     N_3   0.166435 0.418671 0.221922 -0.450951
N12   N     N_3   0.715638 0.018827 0.532807 -0.435019
O1    O     O_R   0.389250 0.738570 0.503790 -0.596824
O2    O     O_2   0.456275 0.763598 0.854352 -0.537632
O3    O     O_2   0.397889 0.760233 0.153985 -0.535663
O4    O     O_2   0.602161 0.239801 0.846017 -0.535673
O5    O     O_R   0.610750 0.261430 0.496210 -0.596824
O6    O     O_R   0.678390 0.711620 0.493890 -0.626802
O7    O     O_R   0.321610 0.288380 0.506110 -0.626797
O8    O     O_R   0.355400 0.513520 0.588790 -0.639793
O9    O     O_R   0.644600 0.486480 0.411210 -0.639783
O10   O     O_R   0.644550 0.486570 0.578900 -0.603502
O11   O     O_R   0.355450 0.513430 0.421100 -0.603490
O12   O     O_2   0.543837 0.236452 0.145650 -0.537651
Zn1   Zn    Zn3+2 0.306930 0.518000 0.506610 0.965353
Zn2   Zn    Zn3+2 0.693070 0.482000 0.493390 0.965356

loop_
_geom_bond_atom_site_label_1
_geom_bond_atom_site_label_2
_ccdc_geom_bond_type
H14   N3    S    
C27   C29   A    
C14   O3    S    
C7    C8    D    
C15   O4    S    
H17   N4    S    
N7    Zn1   S    
N4    N7    S    
C1    O6    A    
C19   C21   A    
C24   C26   A    
C2    H23   S    
C13   O2    S    
H3    N9    S    
C18   C19   A    
C22   H1    S    
C25   H18   S    
H11   N2    S    
C8    N2    S    
C7    N12   S    
C10   C31   S    
H6    N10   S    
C22   C25   A    
H24   N8    S    
C9    O8    A    
N6    Zn2   S    
C12   O5    A    
H10   N12   S    
C6    N1    S    
O6    Zn2   S    
C32   H22   S    
C10   O9    A    
H16   N4    S    
H9    N12   S    
C11   C20   A    
H13   N2    S    
C17   C24   A    
C5    N5    S    
C4    C6    A    
O11   Zn1   S    
H4    N9    S    
O7    Zn1   S    
H8    N11   S    
C1    O1    A    
C2    C31   A    
C2    C4    A    
N6    N7    D    
O10   Zn2   S    
C6    C27   A    
C5    C23   A    
C8    C12   S    
H5    N10   S    
H2    N8    S    
C15   N5    A    
C13   C21   A    
C23   C28   A    
C9    C30   S    
C29   N9    S    
C28   N8    S    
C24   H12   S    
C14   C16   A    
C3    N10   S    
O5    Zn2   S    
C15   C17   A    
C14   N1    A    
C21   C25   A    
N3    N6    S    
C16   C22   A    
C1    C7    S    
H7    N11   S    
C3    C5    A    
O8    Zn1   S    
C4    N11   S    
C10   O11   A    
C27   H21   S    
C28   C30   A    
C29   C31   A    
C26   H19   S    
C30   C32   A    
C23   H20   S    
C20   C26   A    
O9    Zn2   S    
C17   C19   A    
C18   C20   A    
C9    O10   A    
C3    C32   A    
O1    Zn1   S    
C11   O12   S    
H15   N3    S    
C13   N5    A    
C16   C18   A    
C12   O7    A    
C11   N1    A    
