data_mof_unit_11865.cif
_audit_creation_date              2012-10-26T19:40:07-0400
_audit_creation_method            fapswitch 2.2
_symmetry_space_group_name_H-M    P1
_symmetry_Int_Tables_number       1
_space_group_crystal_system       triclinic
_cell_length_a                    14.994377
_cell_length_b                    8.754542
_cell_length_c                    7.607711
_cell_angle_alpha                 103.292461
_cell_angle_beta                  96.20158
_cell_angle_gamma                 96.489499
_cell_volume                      956.35475877

loop_
_atom_site_label
_atom_site_type_symbol
_atom_type_description
_atom_site_fract_x
_atom_site_fract_y
_atom_site_fract_z
_atom_type_partial_charge
C1    C     C_R   0.495152 0.200264 0.453925 0.558486
C2    C     C_R   0.174588 0.374205 0.406356 -0.113203
C3    C     C_R   0.766334 0.487481 0.500571 0.012680
C4    C     C_R   0.233281 0.510631 0.498228 0.020822
C5    C     C_R   0.799213 0.350309 0.407744 -0.010040
C6    C     C_R   0.200087 0.646889 0.591920 0.002569
C7    C     C_R   0.894457 0.347563 0.427629 0.025261
C8    C     C_R   0.104891 0.649284 0.570783 0.033032
C9    C     C_R   0.952701 0.493989 0.501266 0.023785
C10   C     C_R   0.046714 0.503036 0.496973 0.029582
C11   C     C_R   0.917123 0.631982 0.579815 -0.017708
C12   C     C_R   0.504789 0.799727 0.546090 0.562020
C13   C     C_R   0.082366 0.365888 0.416481 -0.003673
C14   C     C_R   0.934480 0.206919 0.373841 0.069822
C15   C     C_R   0.065086 0.789995 0.622026 0.061727
C16   C     C_3   0.733039 0.219773 0.274330 -0.345500
C17   C     C_3   0.265801 0.777566 0.726157 -0.344658
C18   C     C_2   0.887898 0.045597 0.364879 0.554129
C19   C     C_2   0.112197 0.948703 0.623114 0.560339
C20   C     C_3   0.406087 0.938642 0.281336 -0.362659
C21   C     C_3   0.593610 0.061410 0.719109 -0.357127
C22   C     C_2   0.401109 0.332656 0.951210 0.729095
C23   C     C_R   0.026568 0.219994 0.355565 -0.092939
C24   C     C_2   0.599188 0.667035 0.049021 0.720884
C25   C     C_R   0.972908 0.777931 0.639060 -0.105291
C26   C     C_2   0.479328 0.031678 0.434860 -0.022130
C27   C     C_2   0.520527 0.968326 0.565268 -0.019440
C28   C     C_R   0.329663 0.504439 0.499799 0.545358
C29   C     C_R   0.670168 0.494525 0.499883 0.549386
C30   C     C_R   0.824958 0.624882 0.588577 -0.112767
Cu1   Cu    Cu3+1 0.510010 0.517380 0.684380 1.046084
Cu2   Cu    Cu3+1 0.489990 0.482620 0.315620 1.047278
H1    H     H_    0.797580 0.730265 0.652736 0.155650
H2    H     H_    0.311294 0.841214 0.652333 0.146906
H3    H     H_    0.874661 0.810423 0.252207 0.343749
H4    H     H_    0.200010 0.075674 0.510156 0.319208
H5    H     H_    0.366196 0.018294 0.221432 0.169415
H6    H     H_    0.437024 0.867331 0.169739 0.159198
H7    H     H_    0.356921 0.860895 0.333070 0.146669
H8    H     H_    0.633420 0.981814 0.779297 0.172201
H9    H     H_    0.642871 0.139197 0.667639 0.143643
H10   H     H_    0.562522 0.132683 0.830488 0.156172
H11   H     H_    0.323751 0.187640 0.730692 0.311880
H12   H     H_    0.201971 0.270525 0.337736 0.130440
H13   H     H_    0.678606 0.808893 0.270281 0.326188
H14   H     H_    0.056560 0.113829 0.306682 0.180742
H15   H     H_    0.942917 0.884720 0.684871 0.184410
H16   H     H_    0.766608 0.135912 0.180478 0.152814
H17   H     H_    0.688868 0.154630 0.349048 0.149756
H18   H     H_    0.690247 0.270592 0.180853 0.145455
H19   H     H_    0.231844 0.863040 0.817157 0.152065
H20   H     H_    0.307268 0.726706 0.821754 0.147279
N1    N     N_2   0.474890 0.456420 0.038520 -0.167532
N2    N     N_2   0.525110 0.543580 0.961480 -0.166093
O1    O     O_R   0.506510 0.286130 0.619770 -0.479491
O2    O     O_R   0.909950 0.913694 0.243576 -0.695674
O3    O     O_2   0.094994 0.067836 0.726098 -0.514262
O4    O     O_R   0.173745 0.961894 0.500049 -0.720078
O5    O     O_2   0.358993 0.266787 0.048103 -0.512378
O6    O     O_R   0.374841 0.279821 0.765158 -0.664434
O7    O     O_2   0.641539 0.732570 0.952187 -0.517558
O8    O     O_R   0.625536 0.719926 0.235249 -0.662723
O9    O     O_R   0.493490 0.713870 0.380230 -0.477394
O10   O     O_R   0.489600 0.256770 0.308360 -0.496110
O11   O     O_R   0.510400 0.743230 0.691640 -0.495391
O12   O     O_R   0.378710 0.514640 0.655720 -0.477863
O13   O     O_R   0.621290 0.485360 0.344280 -0.478735
O14   O     O_R   0.361800 0.485290 0.344300 -0.476726
O15   O     O_R   0.638200 0.514710 0.655700 -0.477154
O16   O     O_2   0.832761 0.027308 0.468257 -0.559449

loop_
_geom_bond_atom_site_label_1
_geom_bond_atom_site_label_2
_ccdc_geom_bond_type
C14   C23   A    
C18   O16   D    
Cu1   O12   S    
C2    C4    A    
C5    C7    A    
C25   H15   S    
C24   O7    D    
C3    C30   A    
C20   H6    S    
C9    C10   A    
C14   C18   S    
H4    O4    S    
Cu1   Cu2   S    
C18   O2    S    
Cu2   O14   S    
Cu2   O10   S    
C16   H16   S    
Cu2   N1    S    
C1    O1    A    
C19   O4    S    
C23   H14   S    
N1    N2    D    
C19   O3    D    
C15   C19   S    
C20   H5    S    
C9    C11   A    
C17   H19   S    
C26   C27   D    
C21   H8    S    
C20   C26   S    
H11   O6    S    
C11   C30   A    
Cu2   O13   S    
C21   H9    S    
C17   H20   S    
C4    C6    A    
C28   O14   A    
C16   H18   S    
C22   N1    S    
C29   O15   A    
C12   O9    A    
Cu1   N2    S    
C22   O6    S    
C1    C26   S    
C21   C27   S    
C20   H7    S    
C15   C25   A    
Cu1   O1    S    
C17   H2    S    
C11   C25   A    
C12   C27   S    
C24   N2    S    
C21   H10   S    
C6    C17   S    
C1    O10   A    
C7    C9    A    
H13   O8    S    
Cu1   O15   S    
C16   H17   S    
C13   C23   A    
C8    C10   A    
C12   O11   A    
C22   O5    D    
C3    C29   S    
C2    C13   A    
Cu1   O11   S    
C28   O12   A    
C5    C16   S    
C6    C8    A    
C8    C15   A    
C30   H1    S    
C4    C28   S    
H3    O2    S    
C29   O13   A    
C24   O8    S    
C7    C14   A    
Cu2   O9    S    
C2    H12   S    
C3    C5    A    
C10   C13   A    
