data_mof_unit_53995.cif
_audit_creation_date              2012-12-11T17:43:34-0500
_audit_creation_method            fapswitch 2.2
_symmetry_space_group_name_H-M    P1
_symmetry_Int_Tables_number       1
_space_group_crystal_system       triclinic
_cell_length_a                    15.12024
_cell_length_b                    15.262753
_cell_length_c                    17.058424
_cell_angle_alpha                 108.654641
_cell_angle_beta                  105.495428
_cell_angle_gamma                 109.542337
_cell_volume                      3191.5065247

loop_
_atom_site_label
_atom_site_type_symbol
_atom_type_description
_atom_site_fract_x
_atom_site_fract_y
_atom_site_fract_z
_atom_type_partial_charge
Br1   Br    Br    0.617444 0.837531 0.529679 -0.492615
Br2   Br    Br    0.130292 0.834713 0.408067 -0.414455
Br3   Br    Br    0.652340 0.113420 0.847888 -0.555859
Br4   Br    Br    0.296075 0.917121 0.173867 -0.497058
Br5   Br    Br    0.429709 0.237910 0.545878 -0.495738
Br6   Br    Br    0.637844 0.844266 0.203219 -0.472893
Br7   Br    Br    0.429141 0.231652 0.877293 -0.458076
Br8   Br    Br    0.755254 0.653928 0.214593 -0.383240
Br9   Br    Br    0.287943 0.388485 0.869117 -0.450373
Br10  Br    Br    0.757915 0.422719 0.292998 -0.432849
Br11  Br    Br    0.263823 0.493613 0.719229 -0.474797
Br12  Br    Br    0.803551 0.151150 0.592713 -0.488326
C1    C     C_R   0.090310 0.277888 0.040795 -0.101724
C2    C     C_R   0.075882 0.059315 0.948811 -0.118414
C3    C     C_R   0.996941 0.890364 0.942812 0.074112
C4    C     C_R   0.000416 0.080675 0.971726 0.067185
C5    C     C_R   0.075284 0.963654 0.934105 0.068850
C6    C     C_R   0.919960 0.004233 0.975969 0.066051
C7    C     C_R   0.731030 0.961309 0.932114 -0.127871
C8    C     C_R   0.260239 0.001724 0.953807 -0.097933
C9    C     C_R   0.676004 0.018681 0.052625 -0.019924
C10   C     C_R   0.286226 0.885290 0.836294 -0.045352
C11   C     C_R   0.616179 0.817052 0.355745 -0.231069
C12   C     C_R   0.912820 0.708869 0.921817 -0.129536
C13   C     C_R   0.439993 0.258905 0.722126 -0.242618
C14   C     C_R   0.596123 0.763229 0.264638 0.350885
C15   C     C_R   0.460271 0.312602 0.813363 0.377406
C16   C     C_R   0.938546 0.456763 0.736122 -0.090524
C17   C     C_R   0.062540 0.494551 0.258466 -0.090200
C18   C     C_R   0.550545 0.653306 0.221791 -0.022773
C19   C     C_R   0.496447 0.421641 0.853804 -0.031875
C20   C     C_R   0.525145 0.598157 0.272752 -0.168674
C21   C     C_R   0.510116 0.475419 0.799844 -0.150660
C22   C     C_R   0.543025 0.655015 0.363418 -0.213180
C23   C     C_R   0.030451 0.468716 0.726497 0.094547
C24   C     C_R   0.491798 0.419227 0.708985 -0.196821
C25   C     C_R   0.588746 0.763330 0.404689 0.373200
C26   C     C_R   0.457232 0.312034 0.670537 0.364506
C27   C     C_R   0.621587 0.588228 0.112972 0.407336
C28   C     C_R   0.426496 0.482055 0.964423 0.370299
C29   C     C_R   0.606530 0.529475 0.024065 -0.061794
C30   C     C_R   0.443502 0.549569 0.051337 -0.130526
C31   C     C_R   0.510054 0.477096 0.948998 -0.008180
C32   C     C_R   0.538647 0.598386 0.127266 -0.004508
C33   C     C_R   0.652673 0.963302 0.961059 -0.043247
C34   C     C_R   0.970572 0.445111 0.264071 0.104193
C35   C     C_R   0.325966 0.974033 0.918150 -0.045332
C36   C     C_R   0.958576 0.416327 0.335630 -0.031285
C37   C     C_R   0.036794 0.423812 0.638260 0.029035
C38   C     C_R   0.128129 0.424970 0.540350 -0.182904
C39   C     C_R   0.858462 0.366389 0.417314 -0.111907
C40   C     C_R   0.735429 0.206431 0.814120 0.352726
C41   C     C_R   0.229488 0.796723 0.189395 0.331516
C42   C     C_R   0.129984 0.442030 0.626346 0.400345
C43   C     C_R   0.867015 0.395556 0.349708 0.356106
C44   C     C_R   0.943802 0.373235 0.559987 -0.175652
C45   C     C_R   0.700968 0.203314 0.729531 0.009250
C46   C     C_R   0.041759 0.413253 0.393595 -0.192268
C47   C     C_R   0.945107 0.374276 0.479975 0.119700
C48   C     C_R   0.038047 0.400631 0.469731 0.143647
C49   C     C_R   0.629289 0.116045 0.643805 0.064512
C50   C     C_R   0.306226 0.886908 0.360711 0.036736
C51   C     C_R   0.346479 0.966102 0.520986 -0.219535
C52   C     C_R   0.586626 0.040120 0.483621 -0.233449
C53   C     C_R   0.273186 0.903019 0.431331 0.360952
C54   C     C_R   0.660621 0.097532 0.572234 0.368870
C55   C     C_R   0.409871 0.935794 0.378492 -0.187565
C56   C     C_R   0.241685 0.798569 0.273490 0.023224
C57   C     C_R   0.525796 0.070303 0.627913 -0.186373
C58   C     C_R   0.482629 0.996792 0.466848 0.142047
C59   C     C_R   0.451387 0.010609 0.539111 0.127866
C60   C     C_R   0.778542 0.073853 0.118518 -0.142632
C61   C     C_R   0.179299 0.821929 0.786787 -0.138891
C62   C     C_R   0.857972 0.073865 0.090533 -0.211714
C63   C     C_R   0.112723 0.849461 0.821103 -0.204737
C64   C     C_R   0.303217 0.598887 0.009192 -0.155565
C65   C     C_R   0.721818 0.445741 0.032060 -0.083800
C66   C     C_R   0.835387 0.016972 0.998608 0.041403
C67   C     C_R   0.358506 0.564333 0.060235 0.001301
C68   C     C_R   0.151442 0.938878 0.903700 0.034916
C69   C     C_R   0.745141 0.301939 0.738402 -0.161564
C70   C     C_R   0.216814 0.699515 0.263880 -0.158953
C71   C     C_R   0.292858 0.499219 0.080917 -0.002331
C72   C     C_R   0.737472 0.549454 0.962350 -0.087621
C73   C     C_R   0.110177 0.536934 0.812871 -0.028789
C74   C     C_R   0.891679 0.407920 0.180859 -0.063529
C75   C     C_R   0.918018 0.194706 0.960001 -0.059708
C76   C     C_R   0.083851 0.792422 0.994338 0.012441
C77   C     C_R   0.004203 0.180775 0.987509 0.037737
C78   C     C_R   0.689734 0.513838 0.011593 0.055533
C79   C     C_R   0.998829 0.798293 0.947060 -0.009308
C80   C     C_2   0.701067 0.904799 0.832178 1.036815
C81   C     C_2   0.308921 0.092946 0.044898 1.046486
C82   C     C_2   0.482857 0.482696 0.236145 1.073918
C83   C     C_2   0.538923 0.588465 0.833595 1.058768
C84   C     C_2   0.800588 0.129808 0.216115 1.070387
C85   C     C_2   0.138647 0.725904 0.700714 1.044267
C86   C     C_2   0.346111 0.694331 0.997036 1.059093
C87   C     C_2   0.665189 0.364524 0.054088 1.087099
C88   C     C_R   0.920101 0.910742 0.961904 -0.137441
H1    H     H_    0.169299 0.294721 0.076433 0.126406
H2    H     H_    0.788341 0.351046 0.428005 0.163608
H3    H     H_    0.861592 0.416078 0.683937 0.109790
H4    H     H_    0.139623 0.518233 0.305455 0.096530
H5    H     H_    0.572371 0.922000 0.912641 0.174940
H6    H     H_    0.409152 0.019915 0.954851 0.164938
H7    H     H_    0.503300 0.086078 0.684006 0.175907
H8    H     H_    0.435044 0.918135 0.324024 0.172030
H9    H     H_    0.321926 0.977452 0.576026 0.171424
H10   H     H_    0.610226 0.030421 0.428122 0.173437
H11   H     H_    0.613116 0.017347 0.072031 0.167105
H12   H     H_    0.834637 0.683403 0.875465 0.110862
H13   H     H_    0.339607 0.866069 0.811721 0.164071
H14   H     H_    0.937896 0.116629 0.139785 0.129818
H15   H     H_    0.029992 0.800537 0.784742 0.133467
H16   H     H_    0.721053 0.327875 0.688295 0.136900
H17   H     H_    0.227719 0.676579 0.317902 0.143036
H18   H     H_    0.310393 0.461314 0.122037 0.089491
H19   H     H_    0.725408 0.598251 0.931347 0.124693
H20   H     H_    0.191511 0.566545 0.832545 0.165262
H21   H     H_    0.815635 0.346566 0.156424 0.149531
H22   H     H_    0.840380 0.135266 0.917922 0.152009
H23   H     H_    0.655350 0.901051 0.389075 0.194365
H24   H     H_    0.161734 0.840162 0.007261 0.172845
H25   H     H_    0.861278 0.854931 0.970434 0.136678
H26   H     H_    0.134358 0.116708 0.941453 0.143625
H27   H     H_    0.586898 0.824308 0.704725 0.377031
H28   H     H_    0.436760 0.225514 0.140539 0.363947
H29   H     H_    0.420213 0.355669 0.254884 0.342870
H30   H     H_    0.538493 0.704528 0.802141 0.354335
H31   H     H_    0.931412 0.117400 0.267292 0.307623
H32   H     H_    0.002934 0.725860 0.640530 0.308082
H33   H     H_    0.483581 0.696158 0.007878 0.334612
H34   H     H_    0.408292 0.175166 0.690620 0.168390
H35   H     H_    0.621255 0.217842 0.038933 0.359695
H36   H     H_    0.524285 0.615657 0.403842 0.212042
H37   H     H_    0.502865 0.458339 0.666855 0.205695
H38   H     H_    0.112559 0.429178 0.384349 0.132766
H39   H     H_    0.869635 0.347472 0.562640 0.150600
H40   H     H_    0.199600 0.442618 0.531815 0.176363
N1    N     N_R   0.055660 0.348550 0.045620 -0.055032
N2    N     N_R   0.185200 0.638170 0.176300 -0.074699
N3    N     N_R   0.201680 0.494570 0.045620 -0.048638
N4    N     N_R   0.798320 0.505430 0.954380 -0.060794
N5    N     N_R   0.068420 0.560530 0.871650 -0.053009
N6    N     N_R   0.931580 0.439470 0.128350 -0.048566
N7    N     N_R   0.948070 0.295860 0.997670 -0.050888
N8    N     N_R   0.051930 0.704140 0.002330 -0.047184
N9    N     N_R   0.944340 0.651450 0.954380 -0.046315
N10   N     N_R   0.960830 0.507850 0.823700 -0.057651
N11   N     N_R   0.039170 0.492150 0.176300 -0.048510
N12   N     N_R   0.811290 0.303410 0.871650 -0.071680
N13   N     N_R   0.188710 0.696590 0.128350 -0.080808
N14   N     N_R   0.205200 0.552990 0.997670 -0.045512
N15   N     N_R   0.794800 0.447010 0.002330 -0.060561
N16   N     N_R   0.814800 0.361830 0.823700 -0.060251
Ni1   Ni    Ni4+2 0.119340 0.493420 0.109960 0.222131
Ni2   Ni    Ni4+2 0.880660 0.506580 0.890040 0.224332
Ni3   Ni    Ni4+2 0.872590 0.372590 0.000000 0.290601
Ni4   Ni    Ni4+2 0.127410 0.627410 0.000000 0.295090
O1    O     O_2   0.765732 0.899928 0.803016 -0.609333
O2    O     O_R   0.890166 0.152981 0.287269 -0.751604
O3    O     O_2   0.193862 0.684919 0.688495 -0.587703
O4    O     O_R   0.038998 0.680716 0.632232 -0.755818
O5    O     O_2   0.293031 0.737885 0.984324 -0.618843
O6    O     O_R   0.444959 0.737295 0.999966 -0.718125
O7    O     O_2   0.614402 0.379492 0.097043 -0.525174
O8    O     O_R   0.664525 0.267966 0.021000 -0.777578
O9    O     O_R   0.597870 0.859703 0.770382 -0.768127
O10   O     O_2   0.262637 0.100386 0.093555 -0.621313
O11   O     O_R   0.410349 0.169112 0.076635 -0.733703
O12   O     O_2   0.476969 0.429579 0.162271 -0.583399
O13   O     O_R   0.448746 0.434069 0.286873 -0.788752
O14   O     O_2   0.578743 0.647169 0.915046 -0.672950
O15   O     O_R   0.520343 0.628296 0.771131 -0.750874
O16   O     O_2   0.737710 0.154921 0.235510 -0.584310

loop_
_geom_bond_atom_site_label_1
_geom_bond_atom_site_label_2
_ccdc_geom_bond_type
C80   O1    D    
C36   C43   A    
C20   C82   S    
C8    C81   S    
C51   C53   A    
C41   N13   A    
Br4   C41   S    
C7    C66   A    
C22   C25   A    
C61   C63   A    
C12   H12   S    
C64   C67   A    
C3    C88   A    
C76   H24   S    
Br2   C53   S    
N7    Ni3   S    
C57   H7    S    
C27   C29   A    
C39   C43   A    
C39   H2    S    
C61   C85   S    
C38   C42   A    
C69   N16   A    
C75   N7    A    
C50   C55   A    
N11   Ni1   S    
C71   H18   S    
C83   O14   D    
C73   N5    A    
C60   C84   S    
C38   H40   S    
C55   H8    S    
C72   N4    A    
C64   C86   S    
C37   C42   A    
C62   H14   S    
C74   N6    A    
C21   C24   A    
Br7   C15   S    
C69   H16   S    
N8    Ni4   S    
C11   C14   A    
C57   C59   A    
C41   C56   A    
C83   O15   S    
H27   O9    S    
C10   C61   A    
C7    C80   S    
C82   O12   D    
C49   C54   A    
C10   H13   S    
N12   N16   A    
C16   C23   A    
C85   O3    D    
C23   C37   S    
H35   O8    S    
C19   C21   A    
C58   C59   A    
Br8   C27   S    
C1    N1    A    
N10   Ni2   S    
N9    Ni2   S    
C9    C33   A    
N5    N10   A    
Br1   C25   S    
C46   H38   S    
C28   C30   A    
C29   C78   S    
N12   Ni3   S    
C4    C77   S    
Br5   C26   S    
C29   C31   A    
C2    C5    A    
C18   C32   S    
C30   C32   A    
C21   C83   S    
C9    H11   S    
C35   H6    S    
C33   H5    S    
N3    Ni1   S    
C87   O7    D    
C28   C31   A    
C65   C78   A    
C34   C36   S    
C81   O10   D    
C8    C68   A    
C9    C60   A    
N15   Ni3   S    
C88   H25   S    
C86   O5    D    
N8    N9    A    
C60   C62   A    
C12   N9    A    
N5    Ni4   S    
N3    N14   A    
C11   H23   S    
N6    Ni3   S    
H31   O2    S    
C11   C25   A    
Br12  C54   S    
C6    C88   A    
Br9   C28   S    
N6    N11   A    
C17   H4    S    
C52   C54   A    
C51   H9    S    
C73   H20   S    
H32   O4    S    
C47   C48   A    
N14   Ni4   S    
C13   H34   S    
C13   C26   A    
C17   N11   A    
C52   H10   S    
C76   C79   A    
C22   H36   S    
C80   O9    S    
C40   N12   A    
C85   O4    S    
C71   N3    A    
C74   H21   S    
C76   N8    A    
C45   C49   S    
Br10  C43   S    
C86   O6    S    
Br11  C42   S    
C19   C31   S    
C24   H37   S    
N1    Ni1   S    
C6    C66   S    
C51   C59   A    
C14   C18   A    
C52   C58   A    
C75   C77   A    
C15   C19   A    
C45   C69   A    
C63   H15   S    
N2    Ni1   S    
N4    Ni2   S    
C24   C26   A    
C12   C79   A    
C1    H1    S    
C87   O8    S    
C63   C68   A    
C72   C78   A    
C49   C57   A    
C3    C5    A    
C16   N10   A    
C81   O11   S    
C84   O16   D    
C50   C53   A    
C1    C77   A    
C75   H22   S    
Br3   C40   S    
C7    C33   A    
C36   C46   A    
C27   C32   A    
H30   O15   S    
C13   C15   A    
C37   C44   A    
C2    H26   S    
C44   C47   A    
C50   C56   S    
C17   C34   A    
C55   C58   A    
C56   C70   A    
N4    N15   A    
N16   Ni2   S    
C44   H39   S    
C38   C48   A    
H33   O6    S    
C65   N15   A    
C18   C20   A    
C23   C73   A    
C16   H3    S    
Br6   C14   S    
N13   Ni4   S    
C72   H19   S    
H29   O13   S    
C64   N14   A    
C84   O2    S    
C65   C87   S    
C2    C4    A    
C5    C68   S    
N2    N13   A    
C10   C35   A    
C8    C35   A    
C40   C45   A    
N1    N7    A    
C82   O13   S    
C3    C79   S    
C70   N2    A    
C67   C71   A    
C30   C67   S    
C39   C47   A    
H28   O11   S    
C4    C6    A    
C62   C66   A    
C70   H17   S    
C46   C48   A    
C20   C22   A    
C34   C74   A    
