data_mof_unit_55183.cif
_audit_creation_date              2012-12-11T15:23:58-0500
_audit_creation_method            fapswitch 2.2
_symmetry_space_group_name_H-M    P1
_symmetry_Int_Tables_number       1
_space_group_crystal_system       triclinic
_cell_length_a                    17.338985
_cell_length_b                    24.369813
_cell_length_c                    14.9062
_cell_angle_alpha                 90.224995
_cell_angle_beta                  125.484585
_cell_angle_gamma                 88.976938
_cell_volume                      5127.77960788

loop_
_atom_site_label
_atom_site_type_symbol
_atom_type_description
_atom_site_fract_x
_atom_site_fract_y
_atom_site_fract_z
_atom_type_partial_charge
Br1   Br    Br    0.078525 0.635378 0.775720 -0.499830
Br2   Br    Br    0.442777 0.389948 0.641433 -0.529775
Br3   Br    Br    0.132400 0.884970 0.356350 -0.604506
Br4   Br    Br    0.942705 0.889961 0.641386 -0.530022
Br5   Br    Br    0.932164 0.429665 0.218083 -0.437669
Br6   Br    Br    0.153135 0.396282 0.454631 -0.409820
Br7   Br    Br    0.432030 0.929631 0.217964 -0.437727
Br8   Br    Br    0.652382 0.895655 0.455058 -0.410320
Br9   Br    Br    0.866520 0.660636 0.147853 -0.491282
Br10  Br    Br    0.578520 0.135378 0.775715 -0.499820
Br11  Br    Br    0.366492 0.160495 0.147515 -0.491217
Br12  Br    Br    0.679085 0.603595 0.745818 -0.442047
Br13  Br    Br    0.705080 0.601157 0.542042 -0.427630
Br14  Br    Br    0.179089 0.103579 0.745837 -0.442092
Br15  Br    Br    0.205042 0.101168 0.542040 -0.427801
Br16  Br    Br    0.632405 0.384973 0.356360 -0.604644
C1    C     C_R   0.312977 0.373955 0.909721 -0.100031
C2    C     C_R   0.539900 0.497762 0.712222 0.039490
C3    C     C_R   0.077082 0.998023 0.372552 0.056437
C4    C     C_R   0.039872 0.997760 0.712195 0.039539
C5    C     C_R   0.203749 0.500478 0.629889 0.179055
C6    C     C_R   0.825957 0.496937 0.301805 0.188508
C7    C     C_R   0.703788 0.000404 0.629829 0.179030
C8    C     C_R   0.325965 0.996963 0.301791 0.188362
C9    C     C_2   0.983400 0.466830 0.355782 0.341156
C10   C     C_2   0.085971 0.462598 0.443327 0.326344
C11   C     C_2   0.483352 0.966808 0.355671 0.340998
C12   C     C_R   0.649823 0.348044 0.092362 -0.070585
C13   C     C_2   0.585894 0.962428 0.443270 0.326547
C14   C     C_2   0.927705 0.494938 0.376556 -0.348230
C15   C     C_2   0.127295 0.504942 0.512797 -0.318497
C16   C     C_2   0.427733 0.994994 0.376446 -0.347794
C17   C     C_2   0.627426 0.004807 0.512647 -0.318528
C18   C     C_R   0.146297 0.678476 0.907455 0.336023
C19   C     C_R   0.784409 0.723026 0.069004 0.357718
C20   C     C_R   0.646292 0.178474 0.907452 0.336018
C21   C     C_R   0.284447 0.222929 0.068830 0.357853
C22   C     C_R   0.603012 0.226939 0.908407 -0.183287
C23   C     C_R   0.812943 0.873998 0.909730 -0.099955
C24   C     C_R   0.326092 0.270640 0.072008 -0.205954
C25   C     C_R   0.103019 0.726943 0.908408 -0.183260
C26   C     C_R   0.826029 0.770755 0.072201 -0.205871
C27   C     C_R   0.645665 0.257700 0.005416 0.068821
C28   C     C_R   0.269956 0.315805 0.008412 0.077123
C29   C     C_R   0.145672 0.757703 0.005418 0.068783
C30   C     C_R   0.769881 0.815889 0.008453 0.077130
C31   C     C_R   0.719851 0.234150 0.104983 -0.109728
C32   C     C_R   0.171518 0.313919 0.940998 -0.118824
C33   C     C_R   0.219855 0.734152 0.104987 -0.109633
C34   C     C_R   0.149827 0.848046 0.092363 -0.070474
C35   C     C_R   0.671443 0.813952 0.940898 -0.118793
C36   C     C_R   0.263522 0.686563 0.104175 -0.167371
C37   C     C_R   0.628690 0.766224 0.938767 -0.176455
C38   C     C_R   0.763519 0.186562 0.104170 -0.167445
C39   C     C_R   0.128745 0.266206 0.938871 -0.176599
C40   C     C_R   0.399240 0.621154 0.090879 -0.106461
C41   C     C_R   0.569861 0.646300 0.908625 -0.080844
C42   C     C_R   0.899236 0.121152 0.090876 -0.106513
C43   C     C_R   0.069873 0.146288 0.908617 -0.080776
C44   C     C_R   0.235239 0.662900 0.003471 0.023954
C45   C     C_R   0.308367 0.633980 0.999274 0.082052
C46   C     C_R   0.685420 0.721247 0.002870 0.015986
C47   C     C_R   0.735234 0.162898 0.003466 0.023988
C48   C     C_R   0.185459 0.221202 0.002845 0.015967
C49   C     C_R   0.628620 0.543394 0.643389 0.268912
C50   C     C_R   0.639699 0.542577 0.556814 0.268470
C51   C     C_R   0.128613 0.043387 0.643389 0.268924
C52   C     C_R   0.139696 0.042574 0.556818 0.268471
C53   C     C_R   0.609327 0.496002 0.488127 -0.007837
C54   C     C_R   0.591230 0.496531 0.660493 -0.015922
C55   C     C_R   0.109329 0.996000 0.488127 -0.007798
C56   C     C_R   0.641790 0.672360 0.000953 0.097793
C57   C     C_R   0.091205 0.996526 0.660472 -0.015934
C58   C     C_R   0.597040 0.447031 0.526729 -0.133116
C59   C     C_R   0.597475 0.446854 0.618760 -0.143208
C60   C     C_R   0.097030 0.947029 0.526715 -0.133204
C61   C     C_R   0.097440 0.946850 0.618729 -0.143241
C62   C     C_R   0.560975 0.453063 0.307053 0.262655
C63   C     C_R   0.503725 0.452572 0.734177 0.293994
C64   C     C_R   0.060981 0.953064 0.307055 0.262566
C65   C     C_R   0.003703 0.952571 0.734158 0.293814
C66   C     C_R   0.248183 0.545424 0.694872 -0.106715
C67   C     C_R   0.808362 0.133975 0.999269 0.082038
C68   C     C_R   0.769668 0.544044 0.267843 -0.057210
C69   C     C_R   0.748197 0.045381 0.694795 -0.106882
C70   C     C_R   0.269659 0.044057 0.267827 -0.057190
C71   C     C_R   0.551448 0.543995 0.305390 -0.170772
C72   C     C_R   0.514053 0.544313 0.744186 -0.115615
C73   C     C_R   0.051452 0.043995 0.305391 -0.170809
C74   C     C_R   0.014035 0.044312 0.744165 -0.115682
C75   C     C_R   0.248157 0.454400 0.695597 -0.072156
C76   C     C_R   0.768257 0.451860 0.264051 -0.013628
C77   C     C_R   0.748199 0.954362 0.695633 -0.072074
C78   C     C_R   0.141808 0.172340 0.000943 0.097778
C79   C     C_R   0.268272 0.951875 0.264052 -0.013551
C80   C     C_R   0.308312 0.623374 0.907102 -0.094310
C81   C     C_R   0.661166 0.645863 0.093012 -0.068769
C82   C     C_R   0.808307 0.123367 0.907097 -0.094290
C83   C     C_R   0.161184 0.145855 0.093009 -0.068818
C84   C     C_R   0.404021 0.376918 0.094161 -0.106470
C85   C     C_R   0.557754 0.346912 0.909984 -0.086981
C86   C     C_R   0.903969 0.876996 0.094151 -0.106490
C87   C     C_R   0.057761 0.846914 0.909982 -0.086952
C88   C     C_R   0.317666 0.361030 0.003143 0.045685
C89   C     C_R   0.577073 0.498023 0.372549 0.056427
C90   C     C_R   0.620894 0.315604 0.002399 0.044632
C91   C     C_R   0.817600 0.861110 0.003149 0.045661
C92   C     C_R   0.120901 0.815606 0.002398 0.044645
H1    H     H_    0.956809 0.516141 0.453834 0.158617
H2    H     H_    0.789727 0.409096 0.281067 0.136854
H3    H     H_    0.737932 0.912090 0.670631 0.160940
H4    H     H_    0.289758 0.909112 0.281056 0.136936
H5    H     H_    0.257571 0.364017 0.825246 0.121095
H6    H     H_    0.687253 0.334782 0.177135 0.121030
H7    H     H_    0.757530 0.864055 0.825261 0.121165
H8    H     H_    0.187260 0.834785 0.177136 0.121055
H9    H     H_    0.538995 0.241323 0.832361 0.172204
H10   H     H_    0.402733 0.271399 0.119877 0.171606
H11   H     H_    0.039002 0.741326 0.832361 0.172224
H12   H     H_    0.092136 0.545035 0.487733 0.151490
H13   H     H_    0.902677 0.771540 0.120184 0.171641
H14   H     H_    0.751078 0.254718 0.182859 0.133630
H15   H     H_    0.128830 0.348703 0.889972 0.142680
H16   H     H_    0.251081 0.754720 0.182863 0.133683
H17   H     H_    0.628741 0.848706 0.889752 0.142675
H18   H     H_    0.326018 0.672961 0.182164 0.137704
H19   H     H_    0.552087 0.764165 0.887432 0.143801
H20   H     H_    0.826015 0.172960 0.182157 0.137666
H21   H     H_    0.052140 0.264181 0.887652 0.143825
H22   H     H_    0.426255 0.624040 0.176382 0.105166
H23   H     H_    0.456925 0.016247 0.453691 0.158605
H24   H     H_    0.529826 0.661063 0.824477 0.110467
H25   H     H_    0.926250 0.124039 0.176378 0.105148
H26   H     H_    0.029845 0.161050 0.824469 0.110455
H27   H     H_    0.238802 0.587303 0.665854 0.117629
H28   H     H_    0.792895 0.585914 0.288209 0.139313
H29   H     H_    0.738812 0.087248 0.665720 0.117601
H30   H     H_    0.292869 0.085930 0.288164 0.139224
H31   H     H_    0.561629 0.586306 0.330211 0.166842
H32   H     H_    0.519736 0.586474 0.728620 0.155727
H33   H     H_    0.061629 0.086306 0.330207 0.166834
H34   H     H_    0.592454 0.044960 0.487360 0.151388
H35   H     H_    0.019711 0.086472 0.728589 0.155700
H36   H     H_    0.252323 0.630651 0.821674 0.151890
H37   H     H_    0.703982 0.660161 0.177105 0.127440
H38   H     H_    0.752315 0.130631 0.821664 0.151930
H39   H     H_    0.204014 0.160156 0.177100 0.127358
H40   H     H_    0.432173 0.370118 0.179696 0.152827
H41   H     H_    0.510391 0.331479 0.827875 0.159036
H42   H     H_    0.932101 0.870226 0.179687 0.152732
H43   H     H_    0.010407 0.831485 0.827868 0.159056
H44   H     H_    0.577424 0.409248 0.481756 0.198485
H45   H     H_    0.592108 0.407934 0.648120 0.193030
H46   H     H_    0.077414 0.909249 0.481737 0.198482
H47   H     H_    0.092044 0.907930 0.648064 0.193057
H48   H     H_    0.237778 0.412145 0.670443 0.160703
N1    N     N_R   0.395440 0.396300 0.944370 -0.049569
N2    N     N_R   0.474910 0.470990 0.794360 -0.068240
N3    N     N_R   0.025090 0.970990 0.205640 -0.069493
N4    N     N_R   0.974910 0.970990 0.794360 -0.068241
N5    N     N_R   0.320240 0.527820 0.794510 -0.054823
N6    N     N_R   0.679760 0.527820 0.205490 -0.060219
N7    N     N_R   0.820240 0.027820 0.794510 -0.054793
N8    N     N_R   0.179760 0.027820 0.205490 -0.060206
N9    N     N_R   0.524580 0.527810 0.205160 -0.064253
N10   N     N_R   0.475420 0.527810 0.794840 -0.068591
N11   N     N_R   0.024580 0.027810 0.205160 -0.064249
N12   N     N_R   0.604560 0.396300 0.055630 -0.045242
N13   N     N_R   0.975420 0.027810 0.794840 -0.068588
N14   N     N_R   0.320750 0.470990 0.794990 -0.058866
N15   N     N_R   0.679250 0.470990 0.205010 -0.053468
N16   N     N_R   0.820750 0.970990 0.794990 -0.058933
N17   N     N_R   0.179250 0.970990 0.205010 -0.053466
N18   N     N_R   0.393580 0.602500 0.942610 -0.057814
N19   N     N_R   0.606420 0.602500 0.057390 -0.049512
N20   N     N_R   0.893580 0.102500 0.942610 -0.057811
N21   N     N_R   0.106420 0.102500 0.057390 -0.049497
N22   N     N_R   0.451750 0.396300 0.057540 -0.039928
N23   N     N_R   0.895440 0.896300 0.944370 -0.049576
N24   N     N_R   0.548250 0.396300 0.942460 -0.050333
N25   N     N_R   0.951750 0.896300 0.057540 -0.039907
N26   N     N_R   0.048250 0.896300 0.942460 -0.050324
N27   N     N_R   0.104560 0.896300 0.055630 -0.045248
N28   N     N_R   0.449890 0.602500 0.055780 -0.048586
N29   N     N_R   0.550110 0.602500 0.944220 -0.049736
N30   N     N_R   0.949890 0.102500 0.055780 -0.048582
N31   N     N_R   0.050110 0.102500 0.944220 -0.049725
N32   N     N_R   0.525090 0.470990 0.205640 -0.069478
Ni1   Ni    Ni4+2 0.435420 0.434250 0.870220 0.266574
Ni2   Ni    Ni4+2 0.564580 0.434250 0.129780 0.271782
Ni3   Ni    Ni4+2 0.935420 0.934250 0.870220 0.266568
Ni4   Ni    Ni4+2 0.064580 0.934250 0.129780 0.271833
Ni5   Ni    Ni4+2 0.563400 0.564580 0.128670 0.244680
Ni6   Ni    Ni4+2 0.436600 0.564580 0.871330 0.223484
Ni7   Ni    Ni4+2 0.063400 0.064580 0.128670 0.244672
Ni8   Ni    Ni4+2 0.936600 0.064580 0.871330 0.223444

loop_
_geom_bond_atom_site_label_1
_geom_bond_atom_site_label_2
_ccdc_geom_bond_type
C2    C54   S    
C32   C39   A    
C24   H10   S    
C77   N16   A    
C81   N19   A    
C69   H29   S    
N31   Ni8   S    
C42   N30   A    
C87   N26   A    
C41   H24   S    
C3    C55   S    
C34   N27   A    
N29   Ni6   S    
C84   N22   A    
N27   Ni4   S    
C63   N2    A    
C28   C88   S    
C45   C80   A    
N12   Ni2   S    
C71   N9    A    
C23   C91   A    
C5    C15   S    
N14   Ni1   S    
C80   N18   A    
C62   C89   A    
Br8   C13   S    
N7    Ni8   S    
C1    C88   A    
C83   N21   A    
C21   C24   A    
C79   H4    S    
C55   C60   A    
N22   Ni2   S    
N25   Ni4   S    
C37   H19   S    
C50   C53   A    
C11   C13   S    
C38   C47   A    
C76   N15   A    
N28   Ni5   S    
C13   C17   D    
C84   C88   A    
Br7   C11   S    
C74   N13   A    
N32   Ni2   S    
C26   C30   A    
C60   H46   S    
C66   H27   S    
Br11  C21   S    
C19   C26   A    
N26   N27   A    
C73   N11   A    
Br2   C63   S    
C36   C44   A    
C22   H9    S    
C72   H32   S    
N6    N15   A    
C12   C90   A    
C2    C63   A    
C7    C17   S    
C67   C82   A    
C4    C57   S    
Br14  C51   S    
C43   N31   A    
C87   C92   A    
C51   C57   A    
C43   C78   A    
C20   C47   A    
C1    N1    A    
C24   C28   A    
C41   N29   A    
C74   H35   S    
C29   C92   S    
C87   H43   S    
C56   C81   A    
C12   N12   A    
C10   C15   D    
C42   H25   S    
C65   N4    A    
C4    C65   A    
C30   C91   S    
C18   C44   A    
C58   H44   S    
C18   C25   A    
N11   Ni7   S    
C32   H15   S    
Br3   C64   S    
Br1   C18   S    
N13   Ni8   S    
Br13  C50   S    
N16   Ni3   S    
N8    Ni7   S    
N9    N32   A    
C58   C59   A    
Br4   C65   S    
C14   H1    S    
C1    H5    S    
C51   C52   A    
C35   H17   S    
N30   Ni7   S    
N8    N17   A    
C60   C61   A    
N2    Ni1   S    
N18   N28   A    
C53   C89   S    
C64   N3    A    
C40   N28   A    
C39   H21   S    
C9    C10   S    
N12   N24   A    
C33   H16   S    
C38   H20   S    
C30   C35   A    
C25   H11   S    
C7    C77   A    
N15   Ni2   S    
C47   C67   S    
C44   C45   S    
C35   C37   A    
C27   C90   S    
C6    C68   A    
C8    C16   S    
C3    C73   A    
N19   N29   A    
C82   N20   A    
C37   C46   A    
C59   H45   S    
C71   C89   A    
C29   C33   A    
N4    N13   A    
C33   C36   A    
C39   C48   A    
C46   C56   S    
C53   C58   A    
N20   Ni8   S    
N7    N16   A    
C12   H6    S    
C86   H42   S    
C31   C38   A    
Br5   C9    S    
N5    N14   A    
C77   H3    S    
N21   Ni7   S    
N18   Ni6   S    
C72   N10   A    
C70   N8    A    
C69   N7    A    
C8    C79   A    
C62   N32   A    
N26   Ni3   S    
C86   C91   A    
C85   C90   A    
C21   C48   A    
C68   N6    A    
N2    N10   A    
Br16  C62   S    
C5    C75   A    
C9    C14   D    
C83   H39   S    
C68   H28   S    
C36   H18   S    
C6    C14   S    
C75   N14   A    
C11   C16   D    
C86   N25   A    
C81   H37   S    
N3    Ni4   S    
C34   C92   A    
C6    C76   A    
N10   Ni6   S    
N4    Ni3   S    
C71   H31   S    
C27   C31   A    
C31   H14   S    
N9    Ni5   S    
C23   N23   A    
N20   N30   A    
C66   N5    A    
C17   H34   S    
C82   H38   S    
Br12  C49   S    
N17   Ni4   S    
C23   H7    S    
N21   N31   A    
N24   Ni1   S    
C20   C22   A    
C79   N17   A    
C48   C78   S    
C22   C27   A    
C85   N24   A    
C25   C29   A    
C42   C67   A    
C61   H47   S    
C76   H2    S    
Br6   C10   S    
C4    C74   A    
C78   C83   A    
C84   H40   S    
C52   C55   A    
C73   H33   S    
Br15  C52   S    
N6    Ni5   S    
C85   H41   S    
N3    N11   A    
N5    Ni6   S    
C19   C46   A    
C34   H8    S    
N1    N22   A    
C41   C56   A    
C3    C64   A    
N1    Ni1   S    
C15   H12   S    
C2    C72   A    
C70   H30   S    
C80   H36   S    
C28   C32   A    
C75   H48   S    
N23   Ni3   S    
C5    C66   A    
C49   C50   A    
C7    C69   A    
C54   C59   A    
Br9   C19   S    
C57   C61   A    
C40   C45   A    
Br10  C20   S    
C8    C70   A    
N19   Ni5   S    
C16   H23   S    
C40   H22   S    
C49   C54   A    
C26   H13   S    
N23   N25   A    
C43   H26   S    
