data_mof_unit_48544.cif
_audit_creation_date              2012-12-11T17:08:26-0500
_audit_creation_method            fapswitch 2.2
_symmetry_space_group_name_H-M    P1
_symmetry_Int_Tables_number       1
_space_group_crystal_system       triclinic
_cell_length_a                    6.995714
_cell_length_b                    14.548141
_cell_length_c                    16.035984
_cell_angle_alpha                 90.014024
_cell_angle_beta                  89.804864
_cell_angle_gamma                 89.619014
_cell_volume                      1632.01079284

loop_
_atom_site_label
_atom_site_type_symbol
_atom_type_description
_atom_site_fract_x
_atom_site_fract_y
_atom_site_fract_z
_atom_type_partial_charge
O1    O     O_R   0.505700 0.583890 0.413310 -0.539105
O2    O     O_R   0.175960 0.594920 0.586080 -0.532069
O3    O     O_R   0.005660 0.416110 0.586690 -0.536774
C1    C     C_R   0.344379 0.617087 0.614638 0.763856
O4    O     O_R   0.175980 0.594920 0.413930 -0.546224
O5    O     O_R   0.005680 0.416110 0.413310 -0.543619
C2    C     C_R   0.344596 0.617034 0.385392 0.685606
O6    O     O_R   0.505680 0.583890 0.586690 -0.544676
O7    O     O_3   0.339200 0.441330 0.500000 -0.367997
V1    V     V_3+5 0.064350 0.510880 0.500000 1.408040
O8    O     O_R   0.675960 0.405080 0.413920 -0.541650
C3    C     C_R   0.845412 0.383249 0.385219 0.684090
O9    O     O_R   0.675940 0.405080 0.586070 -0.517841
C4    C     C_R   0.844218 0.382953 0.614607 0.743342
V2    V     V_3+5 0.564340 0.489120 0.500000 1.423985
O10   O     O_3   0.839360 0.558670 0.500000 -0.378981
C5    C     C_R   0.994382 0.245877 0.684286 -0.119821
C6    C     C_R   0.849715 0.312796 0.681800 -0.179973
C7    C     C_R   0.708292 0.309737 0.745386 0.484703
C8    C     C_R   0.724095 0.245851 0.811506 -0.183616
H1    H     H_    0.624163 0.249089 0.862800 0.184717
C9    C     C_R   0.875796 0.182685 0.815569 -0.181606
C10   C     C_R   0.007990 0.183406 0.750346 -0.040827
C11   C     C_3   0.221416 0.193113 0.752155 0.681997
C12   C     C_3   0.205163 0.258246 0.677407 -0.342438
H2    H     H_    0.261810 0.229390 0.617985 0.143751
H3    H     H_    0.245347 0.330615 0.687987 0.218554
C13   C     C_R   0.715463 0.192807 0.233540 0.111916
C14   C     C_R   0.878934 0.184569 0.183666 -0.066346
C15   C     C_R   0.033137 0.241979 0.202203 -0.196453
H4    H     H_    0.155473 0.241284 0.161823 0.133610
C16   C     C_R   0.023938 0.305351 0.268398 -0.180100
H5    H     H_    0.141654 0.351923 0.277593 0.128884
C17   C     C_R   0.858803 0.313157 0.318331 -0.086209
C18   C     C_R   0.706838 0.254129 0.300768 0.054331
C19   C     C_3   0.506379 0.281122 0.281718 -0.408639
C20   C     C_3   0.518584 0.218260 0.206168 0.022645
H6    H     H_    0.491676 0.355565 0.266956 0.173229
H7    H     H_    0.406469 0.255752 0.330448 0.149398
H8    H     H_    0.418575 0.159114 0.207288 0.115436
C21   C     C_R   0.452603 0.768452 0.673867 0.029718
C22   C     C_R   0.351311 0.686149 0.682757 -0.200750
C23   C     C_R   0.245325 0.674377 0.757335 0.444129
C24   C     C_R   0.261493 0.739142 0.823302 -0.274128
H9    H     H_    0.188792 0.726288 0.881889 0.134292
C25   C     C_R   0.379420 0.816589 0.815980 -0.157029
C26   C     C_R   0.466333 0.831709 0.738552 0.105505
C27   C     C_3   0.666442 0.856240 0.715710 -0.402314
C28   C     C_3   0.650790 0.787544 0.644210 -0.401894
H10   H     H_    0.771654 0.835402 0.764082 0.171607
H11   H     H_    0.677868 0.928635 0.694199 0.176593
H12   H     H_    0.748175 0.727488 0.650509 0.175686
H13   H     H_    0.651894 0.820707 0.581770 0.166276
C29   C     C_R   0.500982 0.751222 0.313488 0.043902
C30   C     C_R   0.352041 0.687519 0.318759 -0.092239
C31   C     C_R   0.204274 0.695399 0.259526 -0.186567
H14   H     H_    0.084102 0.649078 0.261755 0.123380
C32   C     C_R   0.216831 0.758847 0.193188 -0.188039
H15   H     H_    0.105240 0.759939 0.146645 0.130589
C33   C     C_R   0.376905 0.816595 0.184451 -0.135929
C34   C     C_R   0.512270 0.814431 0.248493 0.110368
C35   C     C_3   0.725108 0.807508 0.245334 0.036933
C36   C     C_3   0.712565 0.738287 0.316889 -0.440961
H16   H     H_    0.779635 0.778612 0.185616 0.132377
H17   H     H_    0.773588 0.762638 0.376831 0.172501
H18   H     H_    0.756313 0.667573 0.298464 0.156594
O11   O     O_R   0.229000 0.916070 0.913330 -0.543209
O12   O     O_R   0.558770 0.905070 0.086080 -0.534112
O13   O     O_R   0.729000 0.083900 0.086690 -0.535974
C37   C     C_R   0.389866 0.882914 0.114569 0.702054
O14   O     O_R   0.558720 0.905070 0.913930 -0.541238
O15   O     O_R   0.728960 0.083900 0.913310 -0.531104
C38   C     C_R   0.390674 0.884020 0.884712 0.709989
O16   O     O_R   0.229050 0.916070 0.086710 -0.537399
O17   O     O_3   0.395460 0.058650 0.000020 -0.371107
V3    V     V_3+5 0.670340 0.989120 0.000000 1.432268
O18   O     O_R   0.058670 0.094960 0.913900 -0.531027
C39   C     C_R   0.889546 0.116434 0.885168 0.721541
O19   O     O_R   0.058720 0.094960 0.086050 -0.549291
C40   C     C_R   0.889189 0.117653 0.114041 0.710319
V4    V     V_3+5 0.170330 0.010930 0.999970 1.417795
O20   O     O_3   0.895340 0.941350 0.999980 -0.373505
O21   O     O_3   0.549265 0.366019 0.742266 -0.547617
C41   C     C_3   0.582923 0.447395 0.786881 -0.284155
H19   H     H_    0.649651 0.497883 0.744657 0.139159
H20   H     H_    0.669176 0.436720 0.844474 0.104168
H21   H     H_    0.443433 0.476889 0.806466 0.195297
N1    N     N_3   0.522945 0.269240 0.127199 -0.655023
H22   H     H_    0.488937 0.223754 0.079140 0.244428
H23   H     H_    0.416658 0.320042 0.127371 0.219165
O22   O     O_3   0.151004 0.592741 0.771015 -0.565038
C42   C     C_3   0.953427 0.609686 0.779661 -0.281432
H24   H     H_    0.895913 0.558913 0.824353 0.147443
H25   H     H_    0.884474 0.600196 0.718168 0.152114
H26   H     H_    0.913874 0.678813 0.804467 0.125108
N2    N     N_3   0.815803 0.894258 0.268506 -0.657118
H27   H     H_    0.960636 0.880930 0.279147 0.243142
H28   H     H_    0.758064 0.918936 0.324582 0.228140
N3    N     N_3   0.320138 0.107139 0.730383 -0.656360
H29   H     H_    0.307950 0.062104 0.780896 0.228501
H30   H     H_    0.252824 0.075562 0.679790 0.186257
O23   O     O_3   0.300921 0.231345 0.826267 -0.535435
C43   C     C_3   0.203157 0.307991 0.861246 -0.184387
H31   H     H_    0.127911 0.352187 0.815484 0.130964
H32   H     H_    0.309103 0.351558 0.893531 0.149840
H33   H     H_    0.101638 0.284784 0.909948 0.119111

loop_
_geom_bond_atom_site_label_1
_geom_bond_atom_site_label_2
_ccdc_geom_bond_type
C30   C31   A    
C36   H17   S    
O17   V3    S    
C35   N2    S    
C11   N3    S    
C21   C22   A    
C4    C6    S    
C20   N1    S    
C7    C8    A    
C41   H21   S    
C2    C30   S    
C1    O6    A    
V4    O20   S    
O18   C39   A    
C35   C36   S    
C19   C20   S    
C41   H20   S    
C6    C7    A    
C20   H8    S    
O5    C3    A    
C15   H4    S    
C29   C36   S    
C32   C33   A    
V2    O10   S    
C31   H14   S    
O13   V3    S    
C17   C18   A    
C35   H16   S    
C29   C30   A    
O8    V2    S    
C27   H11   S    
C26   C27   S    
C13   C18   A    
N2    H28   S    
C37   O16   A    
O15   C39   A    
C10   C11   S    
O11   C38   A    
O18   V4    S    
O7    V1    S    
O15   V3    S    
C27   H10   S    
C36   H18   S    
O9    C4    A    
C34   C35   S    
C7    O21   S    
C21   C28   S    
C24   C25   A    
C11   C12   S    
C9    C39   S    
V3    O20   S    
O22   C42   S    
O19   V4    S    
O17   V4    S    
C32   H15   S    
C42   H26   S    
C23   O22   S    
C33   C34   A    
C18   C19   S    
C16   C17   A    
O2    C1    A    
C23   C24   A    
C14   C15   A    
O21   C41   S    
C33   C37   S    
C28   H12   S    
N2    H27   S    
C8    H1    S    
C42   H25   S    
C5    C6    A    
C21   C26   A    
C43   H32   S    
C5    C10   A    
C41   H19   S    
O3    C4    A    
O1    V2    S    
C27   C28   S    
N3    H30   S    
C8    C9    A    
O11   V4    S    
O6    V2    S    
O9    V2    S    
O12   V3    S    
C22   C23   A    
O16   V4    S    
C3    C17   S    
O2    V1    S    
C24   H9    S    
O4    C2    A    
C25   C26   A    
C13   C14   A    
O1    C2    A    
C19   H7    S    
N1    H23   S    
O5    V1    S    
O8    C3    A    
C29   C34   A    
C12   H3    S    
N3    H29   S    
C5    C12   S    
C16   H5    S    
C19   H6    S    
C12   H2    S    
O4    V1    S    
O3    V1    S    
V1    O10   S    
C15   C16   A    
O14   V3    S    
C14   C40   S    
C1    C22   S    
C13   C20   S    
C28   H13   S    
C42   H24   S    
C31   C32   A    
C43   H33   S    
C11   O23   S    
O7    V2    S    
O23   C43   S    
O19   C40   A    
N1    H22   S    
O12   C37   A    
O14   C38   A    
C43   H31   S    
C9    C10   A    
O13   C40   A    
C25   C38   S    
