data_mof_unit_32316.cif
_audit_creation_date              2012-12-11T21:09:52-0500
_audit_creation_method            fapswitch 2.2
_symmetry_space_group_name_H-M    P1
_symmetry_Int_Tables_number       1
_space_group_crystal_system       triclinic
_cell_length_a                    8.300743
_cell_length_b                    19.122946
_cell_length_c                    26.900378
_cell_angle_alpha                 99.934802
_cell_angle_beta                  92.296472
_cell_angle_gamma                 88.259539
_cell_volume                      4201.4202142

loop_
_atom_site_label
_atom_site_type_symbol
_atom_type_description
_atom_site_fract_x
_atom_site_fract_y
_atom_site_fract_z
_atom_type_partial_charge
Ba1   Ba    Ba6+2 0.160260 0.465850 0.521400 1.642798
Ba2   Ba    Ba6+2 0.649930 0.534160 0.478640 1.643013
C1    C     C_3   0.338242 0.153722 0.637292 -0.405372
C2    C     C_R   0.990925 0.727592 0.516743 0.063562
C3    C     C_R   0.134462 0.812989 0.457864 -0.152741
C4    C     C_3   0.913031 0.288141 0.635728 0.316643
C5    C     C_R   0.200510 0.745876 0.461782 0.003211
C6    C     C_R   0.687326 0.189781 0.544832 -0.167436
C7    C     C_R   0.617286 0.255775 0.539341 0.035748
C8    C     C_R   0.860291 0.199194 0.476509 -0.151552
C9    C     C_R   0.823278 0.272879 0.483395 0.052117
C10   C     C_R   0.022835 0.846942 0.493319 -0.000414
C11   C     C_R   0.117450 0.701065 0.486435 -0.249049
C12   C     C_3   0.333703 0.232952 0.633839 0.450772
C13   C     C_R   0.802467 0.155914 0.510293 0.003854
C14   C     C_R   0.696742 0.299405 0.513121 -0.230666
C15   C     C_R   0.231034 0.965761 0.469138 -0.077162
C16   C     C_3   0.915806 0.219586 0.657859 -0.365988
C17   C     C_R   0.322868 0.016538 0.453138 -0.080370
C18   C     C_R   0.279799 0.087225 0.466173 -0.073490
C19   C     C_R   0.138936 0.106086 0.491738 -0.074808
C20   C     C_R   0.021671 0.055093 0.495262 0.013384
C21   C     C_R   0.072977 0.981237 0.486646 0.037038
C22   C     C_R   0.860422 0.077305 0.508729 -0.015334
C23   C     C_3   0.479295 0.317230 0.395971 0.305026
C24   C     C_R   0.756031 0.022450 0.517786 0.040484
C25   C     C_R   0.807724 0.948961 0.508950 0.014677
C26   C     C_R   0.968382 0.926456 0.495829 -0.017248
C27   C     C_R   0.596552 0.037063 0.534451 -0.085260
C28   C     C_3   0.878347 0.631308 0.638807 0.289067
C29   C     C_R   0.504760 0.985618 0.549823 -0.084147
C30   C     C_R   0.548837 0.915167 0.536011 -0.062322
C31   C     C_R   0.690475 0.897926 0.510709 -0.079006
C32   C     C_R   0.297070 0.448361 0.172742 0.587812
C33   C     C_R   0.181239 0.565617 0.176148 0.579359
C34   C     C_3   0.479299 0.236880 0.380775 -0.362927
C35   C     C_2   0.032324 0.522932 0.268780 -0.069243
C36   C     C_3   0.996170 0.517474 0.322887 -0.053979
C37   C     C_1   0.280553 0.491209 0.336109 0.014434
C38   C     C_2   0.315816 0.493614 0.288935 -0.097524
C39   C     C_2   0.184544 0.509384 0.252087 0.207259
C40   C     C_3   0.955150 0.651628 0.691604 -0.346898
C41   C     C_R   0.302902 0.505632 0.098421 -0.078955
C42   C     C_R   0.340482 0.446824 0.122343 -0.032512
C43   C     C_R   0.421205 0.387585 0.095546 -0.061697
C44   C     C_R   0.221552 0.565201 0.125545 -0.030351
C45   C     C_3   0.860704 0.717080 0.373402 0.355744
C46   C     C_2   0.148950 0.522929 0.355672 -0.287568
C47   C     C_2   0.657281 0.482907 0.639484 -0.285354
C48   C     C_R   0.471684 0.443313 0.969564 0.020783
C49   C     C_R   0.354585 0.564497 0.973200 0.020477
C50   C     C_R   0.435370 0.503635 0.946255 0.049244
C51   C     C_R   0.550493 0.383927 0.940728 -0.099717
C52   C     C_3   0.980211 0.368068 0.364447 0.300790
C53   C     C_R   0.593014 0.383952 0.891265 -0.061366
C54   C     C_R   0.559376 0.443083 0.868013 -0.030657
C55   C     C_R   0.480556 0.503121 0.895389 -0.078686
C56   C     C_3   0.848888 0.789039 0.356515 -0.362399
C57   C     C_R   0.447091 0.562680 0.871901 -0.033185
C58   C     C_R   0.493220 0.561625 0.821800 0.589492
C59   C     C_R   0.602323 0.443134 0.817736 0.582372
C60   C     C_2   0.764527 0.486902 0.727975 -0.070933
C61   C     C_3   0.806040 0.489382 0.673854 -0.064385
C62   C     C_1   0.523175 0.514363 0.657246 0.050524
C63   C     C_2   0.484433 0.516522 0.704788 -0.107230
C64   C     C_3   0.012217 0.338423 0.309355 -0.361789
C65   C     C_2   0.611129 0.501316 0.743067 0.204552
C66   C     C_R   0.428422 0.444157 0.020546 0.020584
C67   C     C_3   0.365387 0.695642 0.346264 0.302690
C68   C     C_R   0.346693 0.504859 0.047389 0.048904
C69   C     C_R   0.308390 0.564818 0.023854 0.020724
C70   C     C_R   0.464508 0.386191 0.045994 -0.100039
C71   C     C_R   0.182686 0.623378 0.101689 -0.061888
C72   C     C_R   0.323513 0.623341 0.948306 -0.099960
C73   C     C_R   0.368723 0.622309 0.898962 -0.062141
C74   C     C_R   0.224523 0.623286 0.052124 -0.099733
C75   C     C_3   0.332267 0.681038 0.589265 0.319027
C76   C     C_3   0.328750 0.761509 0.603993 -0.382476
C77   C     C_3   0.482364 0.337909 0.674241 -0.248066
C78   C     C_3   0.415406 0.707851 0.294795 -0.354021
C79   C     C_R   0.961038 0.802188 0.525792 -0.151200
H1    H     H_    0.244763 0.258673 0.661255 0.070606
H2    H     H_    0.208468 0.662800 0.579304 -0.009882
H3    H     H_    0.409487 0.666382 0.556148 0.084999
H4    H     H_    0.360055 0.146475 0.677292 0.087216
H5    H     H_    0.246113 0.778103 0.635578 0.123054
H6    H     H_    0.286174 0.786347 0.571395 0.057987
H7    H     H_    0.451845 0.780446 0.615897 0.131564
H8    H     H_    0.435811 0.125420 0.614089 0.105153
H9    H     H_    0.606040 0.334248 0.401856 0.022363
H10   H     H_    0.415369 0.331699 0.431868 0.084436
H11   H     H_    0.543336 0.220637 0.344999 0.125309
H12   H     H_    0.890028 0.698412 0.712669 0.127449
H13   H     H_    0.541583 0.211775 0.410747 0.061963
H14   H     H_    0.353374 0.218183 0.375496 0.128884
H15   H     H_    0.221027 0.129764 0.623224 0.115528
H16   H     H_    0.817448 0.220406 0.684668 0.124457
H17   H     H_    0.765738 0.715335 0.400981 0.102935
H18   H     H_    0.980383 0.710892 0.391366 -0.044935
H19   H     H_    0.860151 0.832067 0.389774 0.070514
H20   H     H_    0.946628 0.793532 0.330326 0.122151
H21   H     H_    0.730266 0.795483 0.337020 0.141900
H22   H     H_    0.236493 0.712141 0.350700 -0.018524
H23   H     H_    0.951342 0.607405 0.713155 0.065121
H24   H     H_    0.380387 0.638030 0.347408 0.052664
H25   H     H_    0.339104 0.676313 0.264815 0.125536
H26   H     H_    0.543291 0.690948 0.288862 0.155060
H27   H     H_    0.998791 0.282019 0.604530 0.084343
H28   H     H_    0.400544 0.764990 0.292086 0.115577
H29   H     H_    0.883666 0.823822 0.556349 0.078214
H30   H     H_    0.171100 0.836885 0.426724 0.066305
H31   H     H_    0.651261 0.166453 0.576126 0.063369
H32   H     H_    0.938850 0.177332 0.446334 0.074551
H33   H     H_    0.158091 0.646426 0.484598 0.061720
H34   H     H_    0.083400 0.665137 0.688818 0.137621
H35   H     H_    0.650740 0.352810 0.512415 0.059787
H36   H     H_    0.294605 0.916847 0.470349 0.076017
H37   H     H_    0.438883 0.001822 0.436847 0.080347
H38   H     H_    0.362032 0.127054 0.459534 0.102570
H39   H     H_    0.789960 0.297675 0.620605 -0.012826
H40   H     H_    0.122670 0.161168 0.508067 0.133743
H41   H     H_    0.531412 0.085319 0.532446 0.072319
H42   H     H_    0.387729 0.999578 0.565588 0.078007
H43   H     H_    0.466983 0.874325 0.541230 0.093832
H44   H     H_    0.708855 0.844344 0.492324 0.127119
H45   H     H_    0.094940 0.386867 0.383795 0.026787
H46   H     H_    0.438648 0.483774 0.276715 0.115933
H47   H     H_    0.452394 0.341619 0.112975 0.122384
H48   H     H_    0.860128 0.478095 0.755130 0.105986
H49   H     H_    0.653050 0.336895 0.871166 0.121248
H50   H     H_    0.581241 0.335799 0.954949 0.068503
H51   H     H_    0.904443 0.172674 0.627039 0.072311
H52   H     H_    0.527309 0.338402 0.028985 0.068875
H53   H     H_    0.933618 0.531583 0.242655 0.102561
H54   H     H_    0.119223 0.669820 0.121407 0.121332
H55   H     H_    0.265014 0.671856 0.965829 0.069031
H56   H     H_    0.890915 0.412732 0.366623 0.032625
H57   H     H_    0.341568 0.668986 0.881976 0.122129
H58   H     H_    0.361318 0.528552 0.716151 0.122823
H59   H     H_    0.187981 0.670350 0.037213 0.068553
H60   H     H_    0.149674 0.550205 0.394606 0.066052
H61   H     H_    0.660713 0.453672 0.601098 0.073057
H62   H     H_    0.028862 0.213324 0.680242 0.116229
H63   H     H_    0.748788 0.620878 0.641856 0.006152
H64   H     H_    0.941298 0.582839 0.619542 0.061850
H65   H     H_    0.566013 0.234013 0.667037 0.178234
H66   H     H_    0.601534 0.362146 0.672193 0.114009
H67   H     H_    0.093070 0.290677 0.306931 0.147356
H68   H     H_    0.454877 0.340421 0.714915 0.145521
H69   H     H_    0.389417 0.368778 0.655720 0.145926
H70   H     H_    0.071437 0.378032 0.291197 0.079685
H71   H     H_    0.896830 0.323472 0.288446 0.117314
N1    N     N_R   0.220259 0.507739 0.199371 -0.426689
N2    N     N_R   0.569277 0.502124 0.795155 -0.426021
N3    N     N_2   0.489017 0.264831 0.648516 -0.468537
O1    O     O_2   0.103290 0.325410 0.465600 -0.444839
O2    O     O_2   0.666881 0.555756 0.332326 -0.485803
O3    O     O_3   0.842908 0.663542 0.331286 -0.594335
O4    O     O_3   0.857760 0.414170 0.470020 -0.489641
O5    O     O_3   0.459840 0.537690 0.560170 -0.487266
O6    O     O_2   0.582520 0.462630 0.379680 -0.460912
O7    O     O_3   0.401977 0.348445 0.357582 -0.635519
O8    O     O_2   0.528434 0.754533 0.481694 -0.508991
O9    O     O_3   0.462693 0.735738 0.383956 -0.600338
O10   O     O_2   0.326544 0.396469 0.192828 -0.597099
O11   O     O_2   0.667788 0.390360 0.793889 -0.598115
O12   O     O_3   0.393070 0.651417 0.630427 -0.625066
O13   O     O_2   0.112938 0.617833 0.199684 -0.600951
O14   O     O_2   0.467203 0.614089 0.802053 -0.597140
O15   O     O_3   0.374170 0.371120 0.556000 -0.460649
O16   O     O_2   0.330083 0.255087 0.494124 -0.502513
O17   O     O_3   0.917304 0.313892 0.385911 -0.638690
O18   O     O_3   0.273129 0.240942 0.584870 -0.599230
O19   O     O_2   0.227790 0.537410 0.620340 -0.477048
O20   O     O_3   0.969630 0.407570 0.582610 -0.489746
O21   O     O_2   0.132049 0.450097 0.669266 -0.487797
O22   O     O_3   0.954716 0.344721 0.674114 -0.584515
O23   O     O_2   0.707020 0.674640 0.534420 -0.456258
O24   O     O_3   0.952550 0.585840 0.530020 -0.498351
O25   O     O_3   0.436140 0.628890 0.444040 -0.466259
O26   O     O_3   0.891090 0.689194 0.614066 -0.633429
O27   O     O_3   0.350480 0.462320 0.439870 -0.478758
O28   O     O_3   0.840680 0.592440 0.417430 -0.488987
P1    P     P_3+3 0.926760 0.336170 0.451740 0.980861
P2    P     P_3+3 0.399470 0.558680 0.614150 0.996241
P3    P     P_3+3 0.964336 0.423282 0.649014 0.960055
P4    P     P_3+3 0.883550 0.663840 0.548300 0.983451
P5    P     P_3+3 0.836984 0.581195 0.351209 0.970877
P6    P     P_3+3 0.403197 0.279150 0.547705 0.962416
P7    P     P_3+3 0.400842 0.440756 0.376492 0.959440
P8    P     P_3+3 0.404897 0.718183 0.442175 0.920638

loop_
_geom_bond_atom_site_label_1
_geom_bond_atom_site_label_2
_ccdc_geom_bond_type
C76   H6    S    
C53   C54   A    
C47   C61   S    
C12   N3    S    
C1    H4    S    
C40   H12   S    
C30   H43   S    
C16   H51   S    
C17   C18   A    
O2    P5    D    
C59   N2    Am   
O26   P4    S    
C28   H63   S    
C75   C76   S    
C25   C31   A    
C52   H45   S    
O15   P6    S    
C23   H9    S    
C35   C36   S    
C45   H17   S    
Ba2   O25   S    
C60   C65   D    
C10   C26   S    
C65   N2    S    
C58   O14   D    
C2    P4    S    
C16   H62   S    
C7    C14   A    
C22   C24   A    
Ba1   Ba2   S    
C12   O18   S    
C8    C13   A    
C6    H31   S    
O19   P2    D    
C69   C74   A    
C55   C57   A    
C52   H56   S    
O24   P4    S    
C75   H2    S    
C43   H47   S    
O12   P2    S    
C78   H25   S    
Ba1   O15   S    
C45   H18   S    
C54   C55   A    
O16   P6    D    
C59   O11   D    
Ba2   O27   S    
C2    C11   A    
Ba2   P4    S    
C15   C17   A    
Ba1   O20   S    
C2    C79   A    
C71   H54   S    
C17   H37   S    
Ba2   O4    S    
C63   C65   S    
C72   H55   S    
C78   H28   S    
C46   H60   S    
C48   C50   A    
C67   O9    S    
C1    H15   S    
C56   H21   S    
C16   H16   S    
O4    P1    S    
C32   O10   D    
C64   H67   S    
C62   P2    S    
C15   H36   S    
C77   H68   S    
C76   H5    S    
C67   H22   S    
C57   C58   A    
C47   C62   D    
C19   C20   A    
C27   H41   S    
C43   C70   A    
C35   C39   D    
C60   H48   S    
C5    P8    S    
C49   C69   A    
O5    P2    S    
C7    P6    S    
C14   H35   S    
Ba2   O6    S    
C4    H39   S    
Ba1   P1    S    
C39   N1    S    
C51   C53   A    
O1    P1    D    
C4    C16   S    
Ba1   O19   S    
C23   H10   S    
C48   C51   A    
C72   C73   A    
H65   N3    S    
C49   C50   A    
C52   O17   S    
Ba1   O4    S    
C32   C42   A    
C3    C10   A    
C8    C9    A    
C37   C38   D    
C3    C5    A    
C37   P7    S    
C67   H24   S    
C6    C7    A    
C77   H66   S    
C3    H30   S    
C75   H3    S    
C38   H46   S    
C73   H57   S    
O22   P3    S    
C49   C72   A    
O3    P5    S    
Ba1   O1    S    
C41   C42   A    
C64   H71   S    
C60   C61   S    
C33   N1    Am   
C9    C14   A    
O17   P1    S    
C29   C30   A    
C78   H26   S    
C23   O7    S    
C66   C70   A    
C53   H49   S    
C47   H61   S    
C31   H44   S    
C33   O13   D    
C24   C25   A    
C56   H19   S    
C54   C59   A    
C56   H20   S    
C15   C21   A    
C21   C26   A    
C79   H29   S    
C8    H32   S    
C68   C69   A    
C1    C12   S    
C77   H69   S    
C51   H50   S    
O23   P4    D    
C66   C68   A    
C13   C22   S    
C6    C13   A    
C4    O22   S    
C28   O26   S    
C20   C22   A    
C75   O12   S    
Ba2   O24   S    
C12   H1    S    
C74   H59   S    
O9    P8    S    
C57   C73   A    
O7    P7    S    
C42   C43   A    
C28   H64   S    
C32   N1    Am   
C76   H7    S    
C38   C39   S    
C20   C21   A    
C36   C46   S    
Ba1   O5    S    
C9    P1    S    
C11   H33   S    
O6    P7    D    
O25   P8    S    
C40   H23   S    
Ba1   O27   S    
O21   P3    D    
C52   C64   S    
Ba1   P2    S    
C41   C68   A    
O27   P7    S    
C1    H8    S    
C62   C63   D    
C29   H42   S    
C64   H70   S    
C27   C29   A    
O28   P5    S    
C30   C31   A    
O20   P3    S    
Ba1   O24   S    
C34   H14   S    
C34   H11   S    
C70   H52   S    
C36   P5    S    
O18   P6    S    
C71   C74   A    
C10   C79   A    
Ba2   O28   S    
C18   H38   S    
C19   H40   S    
C41   C44   A    
C58   N2    Am   
C50   C55   A    
C23   C34   S    
C77   N3    S    
C63   H58   S    
C34   H13   S    
C40   H34   S    
C5    C11   A    
C61   P3    S    
C18   C19   A    
C24   C27   A    
Ba2   O5    S    
C25   C26   A    
C4    H27   S    
C35   H53   S    
C28   C40   S    
C67   C78   S    
O8    P8    D    
Ba2   O23   S    
C33   C44   A    
C48   C66   A    
C44   C71   A    
C37   C46   D    
C45   C56   S    
C45   O3    S    
