data_mof_unit_18348.cif
_audit_creation_date              2012-12-11T14:13:06-0500
_audit_creation_method            fapswitch 2.2
_symmetry_space_group_name_H-M    P1
_symmetry_Int_Tables_number       1
_space_group_crystal_system       monoclinic
_cell_length_a                    11.503261
_cell_length_b                    18.602044
_cell_length_c                    10.039288
_cell_angle_alpha                 90.0
_cell_angle_beta                  109.855483
_cell_angle_gamma                 90.0
_cell_volume                      2020.54025501

loop_
_atom_site_label
_atom_site_type_symbol
_atom_type_description
_atom_site_fract_x
_atom_site_fract_y
_atom_site_fract_z
_atom_type_partial_charge
C1    C     C_R   0.068813 0.648189 0.138493 0.549046
C2    C     C_R   0.931187 0.351811 0.861506 0.549046
C3    C     C_R   0.931187 0.148189 0.861506 0.549046
C4    C     C_R   0.068813 0.851811 0.138493 0.549046
C5    C     C_R   0.410715 0.465687 0.545596 -0.017745
C6    C     C_R   0.589284 0.534313 0.454404 -0.017745
C7    C     C_R   0.589284 0.965687 0.454404 -0.017745
C8    C     C_R   0.410715 0.034313 0.545596 -0.017745
C9    C     C_2   0.414088 0.921170 0.917428 -0.098924
C10   C     C_2   0.585912 0.078830 0.082572 -0.098923
C11   C     C_2   0.585912 0.421170 0.082572 -0.098924
C12   C     C_2   0.414088 0.578830 0.917428 -0.098924
C13   C     C_2   0.479829 0.965995 0.018046 -0.156198
C14   C     C_2   0.520171 0.034005 0.981954 -0.156198
C15   C     C_2   0.520171 0.465995 0.981954 -0.156199
C16   C     C_2   0.479829 0.534005 0.018046 -0.156198
C17   C     C_2   0.000257 0.919186 0.104182 -0.116140
C18   C     C_2   0.999743 0.080814 0.895818 -0.116140
C19   C     C_2   0.999743 0.419186 0.895818 -0.116140
C20   C     C_2   0.000257 0.580814 0.104182 -0.116140
C21   C     C_2   0.028069 0.964661 0.015320 -0.175915
C22   C     C_2   0.971931 0.035339 0.984679 -0.175915
C23   C     C_2   0.971931 0.464661 0.984679 -0.175915
C24   C     C_2   0.028069 0.535339 0.015320 -0.175915
C25   C     C_R   0.438064 0.637544 0.373854 0.535290
C26   C     C_R   0.561936 0.362456 0.626146 0.535290
C27   C     C_R   0.561936 0.137544 0.626146 0.535290
C28   C     C_R   0.438064 0.862456 0.373854 0.535290
C29   C     C_R   0.377647 0.646054 0.962861 0.546584
C30   C     C_R   0.622353 0.353946 0.037139 0.546585
C31   C     C_R   0.622353 0.146054 0.037139 0.546585
C32   C     C_R   0.377647 0.853946 0.962861 0.546584
C33   C     C_R   0.534213 0.438752 0.585392 -0.029893
C34   C     C_R   0.465787 0.561248 0.414607 -0.029893
C35   C     C_R   0.465787 0.938752 0.414607 -0.029893
C36   C     C_R   0.534213 0.061248 0.585392 -0.029893
C37   C     C_R   0.318021 0.438096 0.596226 -0.061022
C38   C     C_R   0.681979 0.561904 0.403774 -0.061022
C39   C     C_R   0.681979 0.938096 0.403774 -0.061022
C40   C     C_R   0.318021 0.061904 0.596226 -0.061022
C41   C     C_R   0.193361 0.449128 0.520523 0.253205
C42   C     C_R   0.806639 0.550872 0.479477 0.253205
C43   C     C_R   0.806639 0.949128 0.479477 0.253205
C44   C     C_R   0.193361 0.050872 0.520523 0.253205
C45   C     C_R   0.159851 0.492012 0.400570 -0.027817
C46   C     C_R   0.840149 0.507988 0.599430 -0.027817
C47   C     C_R   0.840149 0.992012 0.599430 -0.027817
C48   C     C_R   0.159851 0.007988 0.400570 -0.027817
C49   C     C_R   0.250895 0.528851 0.365336 -0.106862
C50   C     C_R   0.749105 0.471149 0.634664 -0.106862
C51   C     C_R   0.749105 0.028851 0.634664 -0.106862
C52   C     C_R   0.250895 0.971149 0.365336 -0.106862
C53   C     C_R   0.375790 0.520218 0.444164 -0.015683
C54   C     C_R   0.624210 0.479782 0.555836 -0.015683
C55   C     C_R   0.624210 0.020218 0.555836 -0.015683
C56   C     C_R   0.375790 0.979782 0.444164 -0.015683
Cr1   Cr    Cr6+3 0.187610 0.750000 0.979860 1.068872
Cr2   Cr    Cr6+3 0.812390 0.250000 0.020140 1.068872
Cr3   Cr    Cr6+3 0.245810 0.750000 0.341640 1.108375
Cr4   Cr    Cr6+3 0.754190 0.250000 0.658360 1.108375
Cr5   Cr    Cr6+3 0.485760 0.750000 0.219910 1.040771
Cr6   Cr    Cr6+3 0.514240 0.250000 0.780090 1.040771
H1    H     H_    0.063935 0.496146 0.335527 0.176289
H2    H     H_    0.936065 0.503854 0.664473 0.176289
H3    H     H_    0.936065 0.996146 0.664473 0.176289
H4    H     H_    0.063935 0.003854 0.335527 0.176289
H5    H     H_    0.339566 0.405830 0.690941 0.166012
H6    H     H_    0.660433 0.594170 0.309059 0.166012
H7    H     H_    0.660433 0.905830 0.309059 0.166012
H8    H     H_    0.339567 0.094170 0.690941 0.166012
H9    H     H_    0.227930 0.559124 0.269607 0.115322
H10   H     H_    0.772069 0.440875 0.730393 0.115322
H11   H     H_    0.772069 0.059124 0.730393 0.115322
H12   H     H_    0.227930 0.940876 0.269607 0.115322
H13   H     H_    0.498661 0.047049 0.870921 0.131691
H14   H     H_    0.501339 0.952951 0.129079 0.131691
H15   H     H_    0.501339 0.547049 0.129079 0.131691
H16   H     H_    0.498661 0.452950 0.870921 0.131691
H17   H     H_    0.617536 0.064289 0.194079 0.119734
H18   H     H_    0.382464 0.935711 0.805921 0.119734
H19   H     H_    0.382464 0.564289 0.805921 0.119734
H20   H     H_    0.617536 0.435711 0.194079 0.119734
H21   H     H_    0.902849 0.049488 0.032141 0.170085
H22   H     H_    0.097151 0.950512 0.967859 0.170085
H23   H     H_    0.097151 0.549488 0.967859 0.170085
H24   H     H_    0.902849 0.450512 0.032141 0.170085
H25   H     H_    0.064858 0.066238 0.843576 0.153004
H26   H     H_    0.935142 0.933762 0.156424 0.153004
H27   H     H_    0.935142 0.566237 0.156424 0.153004
H28   H     H_    0.064858 0.433762 0.843576 0.153004
O1    O     O_R   0.267710 0.668200 0.902110 -0.489872
O2    O     O_R   0.732290 0.331800 0.097890 -0.489872
O3    O     O_R   0.732290 0.168200 0.097890 -0.489872
O4    O     O_R   0.267710 0.831800 0.902110 -0.489872
O5    O     O_R   0.099480 0.674460 0.038850 -0.500230
O6    O     O_R   0.900520 0.325540 0.961150 -0.500230
O7    O     O_R   0.900520 0.174460 0.961150 -0.500230
O8    O     O_R   0.099480 0.825540 0.038850 -0.500230
O9    O     O_R   0.116720 0.669210 0.267660 -0.468663
O10   O     O_R   0.883280 0.330790 0.732340 -0.468663
O11   O     O_R   0.883280 0.169210 0.732340 -0.468663
O12   O     O_R   0.116720 0.830790 0.267660 -0.468663
O13   O     O_R   0.366710 0.675440 0.427590 -0.465091
O14   O     O_R   0.633290 0.324560 0.572410 -0.465091
O15   O     O_R   0.633290 0.175440 0.572410 -0.465091
O16   O     O_R   0.366710 0.824560 0.427590 -0.465091
O17   O     O_R   0.534870 0.669390 0.371760 -0.501700
O18   O     O_R   0.465130 0.330610 0.628240 -0.501700
O19   O     O_R   0.465130 0.169390 0.628240 -0.501700
O20   O     O_R   0.534870 0.830610 0.371760 -0.501700
O21   O     O_R   0.453080 0.674480 0.075160 -0.522490
O22   O     O_R   0.546920 0.325520 0.924840 -0.522490
O23   O     O_R   0.546920 0.174480 0.924840 -0.522490
O24   O     O_R   0.453080 0.825520 0.075160 -0.522490
O25   O     O_3   0.306390 0.750000 0.180470 -0.322222
O26   O     O_3   0.693610 0.250000 0.819530 -0.322222
Cl1   Cl    Cl    0.080255 0.402544 0.566768 -0.609918
Cl2   Cl    Cl    0.919745 0.597456 0.433232 -0.609918
Cl3   Cl    Cl    0.919745 0.902544 0.433232 -0.609918
Cl4   Cl    Cl    0.080255 0.097456 0.566768 -0.609918

loop_
_geom_bond_atom_site_label_1
_geom_bond_atom_site_label_2
_ccdc_geom_bond_type
C32   O4    A    
C4    O8    A    
C12   C29   S    
C17   H26   S    
Cr3   O9    S    
C7    C55   A    
C1    O9    A    
Cr1   O25   S    
C50   C54   A    
C40   H8    S    
C5    C53   A    
Cr2   O3    S    
C38   C42   A    
C5    C37   A    
C42   C46   A    
C15   H16   S    
Cr6   O18   S    
C27   O15   A    
C15   C16   S    
C3    C18   S    
C16   H15   S    
C8    C36   A    
C44   Cl4   S    
Cr2   O6    S    
C9    C13   D    
C9    C32   S    
C26   O14   A    
C11   C15   D    
C10   C31   S    
C20   C24   D    
C11   C30   S    
C28   O16   A    
C23   H24   S    
C4    O12   A    
Cr5   O25   S    
C23   C24   S    
C6    C38   A    
C24   H23   S    
C40   C44   A    
C25   C34   S    
C50   H10   S    
C3    O11   A    
C35   C56   A    
C2    O10   A    
C13   C14   S    
Cr2   O26   S    
C8    C56   A    
Cr2   O7    S    
C6    C54   A    
Cr5   O20   S    
C11   H20   S    
Cr3   O16   S    
C12   C16   D    
C28   C35   S    
Cr6   O23   S    
C30   O2    A    
C10   C14   D    
C26   O18   A    
C42   Cl2   S    
C39   C43   A    
C28   O20   A    
C31   O3    A    
C45   H1    S    
C17   C21   D    
C6    C34   A    
C30   O22   A    
C9    H18   S    
C41   Cl1   S    
C19   C23   D    
Cr6   O26   S    
C3    O7    A    
C26   C33   S    
C21   H22   S    
C45   C49   A    
C1    O5    A    
C39   H7    S    
C4    C17   S    
C38   H6    S    
Cr1   O4    S    
Cr1   O5    S    
Cr4   O26   S    
Cr4   O11   S    
Cr5   O21   S    
C29   O1    A    
C25   O17   A    
C33   C54   A    
C1    C20   S    
C41   C45   A    
Cr1   O1    S    
C2    C19   S    
C18   C22   D    
Cr3   O12   S    
C7    C35   A    
C29   O21   A    
C25   O13   A    
C51   H11   S    
Cr4   O10   S    
C47   C51   A    
C10   H17   S    
C27   C36   S    
C13   H14   S    
C20   H27   S    
C46   C50   A    
C52   H12   S    
C18   H25   S    
C48   H4    S    
C14   H13   S    
C2    O6    A    
Cr3   O13   S    
C19   H28   S    
Cr4   O14   S    
C22   H21   S    
Cr6   O19   S    
Cr2   O2    S    
C49   C53   A    
Cr1   O8    S    
C37   H5    S    
C47   H3    S    
C12   H19   S    
C51   C55   A    
C5    C33   A    
C37   C41   A    
Cr5   O17   S    
C44   C48   A    
C48   C52   A    
Cr6   O22   S    
C27   O19   A    
C34   C53   A    
Cr3   O25   S    
C49   H9    S    
C46   H2    S    
Cr5   O24   S    
C36   C55   A    
C7    C39   A    
C8    C40   A    
C32   O24   A    
C21   C22   S    
C43   C47   A    
C31   O23   A    
Cr4   O15   S    
C52   C56   A    
C43   Cl3   S    
