data_mof_unit_29045.cif
_audit_creation_date              2012-10-26T21:06:34-0400
_audit_creation_method            fapswitch 2.2
_symmetry_space_group_name_H-M    P1
_symmetry_Int_Tables_number       1
_space_group_crystal_system       triclinic
_cell_length_a                    15.865863
_cell_length_b                    10.825233
_cell_length_c                    9.556319
_cell_angle_alpha                 90.154918
_cell_angle_beta                  90.043409
_cell_angle_gamma                 90.916386
_cell_volume                      1641.09723716

loop_
_atom_site_label
_atom_site_type_symbol
_atom_type_description
_atom_site_fract_x
_atom_site_fract_y
_atom_site_fract_z
_atom_type_partial_charge
C1    C     C_R   0.500893 0.262294 0.499513 0.572680
C2    C     C_R   0.554458 0.575276 0.075073 0.184887
C3    C     C_R   0.339859 0.499863 0.499935 0.549307
C4    C     C_R   0.660141 0.500137 0.500065 0.549307
C5    C     C_3   0.971453 0.423119 0.602089 -0.134063
C6    C     C_3   0.028547 0.576881 0.397911 -0.134056
C7    C     C_3   0.026688 0.387410 0.475995 0.308333
C8    C     C_3   0.973311 0.612590 0.524005 0.308332
C9    C     C_1   0.250151 0.500328 0.499883 -0.007708
C10   C     C_1   0.749849 0.499672 0.500117 -0.007708
C11   C     C_3   0.028380 0.539440 0.626714 -0.132610
C12   C     C_R   0.499107 0.737706 0.500487 0.572679
C13   C     C_3   0.971620 0.460560 0.373286 -0.132603
C14   C     C_3   0.082924 0.501532 0.500156 0.025250
C15   C     C_3   0.917075 0.498468 0.499844 0.025250
C16   C     C_1   0.174603 0.500874 0.499962 -0.017336
C17   C     C_1   0.825397 0.499126 0.500038 -0.017337
C18   C     C_R   0.535951 0.063606 0.384649 0.255007
C19   C     C_R   0.464049 0.936395 0.615350 0.255006
C20   C     C_3   0.995978 0.182112 0.434994 -0.116181
C21   C     C_3   0.004022 0.817882 0.565043 -0.116177
C22   C     C_3   0.551049 0.085388 0.145099 -0.114108
C23   C     C_R   0.535349 0.934739 0.389146 -0.173551
C24   C     C_3   0.448968 0.914599 0.854900 -0.114092
C25   C     C_R   0.464651 0.065261 0.610854 -0.173547
C26   C     C_R   0.498616 0.871670 0.501692 -0.010863
C27   C     C_R   0.501384 0.128330 0.498307 -0.010862
C28   C     C_R   0.445493 0.424776 0.074698 0.188562
C29   C     C_R   0.554507 0.575223 0.925302 0.188558
C30   C     C_R   0.445543 0.424723 0.924927 0.184889
Cu1   Cu    Cu3+1 0.500000 0.500020 0.640660 1.035102
Cu2   Cu    Cu3+1 0.500000 0.499980 0.359340 1.035106
H1    H     H_    0.946868 0.359657 0.684033 0.107361
H2    H     H_    0.041124 0.827910 0.466949 0.111514
H3    H     H_    0.045992 0.795036 0.654260 0.118162
H4    H     H_    0.975730 0.908737 0.588064 0.136708
H5    H     H_    0.562550 0.160197 0.067969 0.142084
H6    H     H_    0.482513 0.061406 0.140847 0.089224
H7    H     H_    0.589148 0.005172 0.112340 0.100628
H8    H     H_    0.517510 0.938559 0.859139 0.089222
H9    H     H_    0.437463 0.839786 0.932025 0.142086
H10   H     H_    0.410883 0.994827 0.887676 0.100615
H11   H     H_    0.326721 0.368305 0.122628 0.209463
H12   H     H_    0.053132 0.640344 0.315968 0.107367
H13   H     H_    0.399147 0.254550 0.122487 0.201000
H14   H     H_    0.673280 0.631686 0.877365 0.209465
H15   H     H_    0.600860 0.745448 0.877519 0.200986
H16   H     H_    0.398892 0.254421 0.879049 0.184490
H17   H     H_    0.326950 0.368611 0.875363 0.212705
H18   H     H_    0.601105 0.745577 0.120956 0.184485
H19   H     H_    0.673049 0.631395 0.124628 0.212701
H20   H     H_    0.947190 0.427077 0.270887 0.109222
H21   H     H_    0.052811 0.572921 0.729113 0.109215
H22   H     H_    0.565527 0.883459 0.306532 0.137143
H23   H     H_    0.434473 0.116540 0.693469 0.137150
H24   H     H_    0.953975 0.204964 0.345826 0.118158
H25   H     H_    0.958913 0.172065 0.533122 0.111515
H26   H     H_    0.024268 0.091265 0.411927 0.136715
N1    N     N_R   0.500020 0.500030 0.852070 -0.186828
N2    N     N_R   0.499980 0.499970 0.147930 -0.186828
N3    N     N_3   0.388367 0.346249 0.150493 -0.552610
N4    N     N_3   0.611634 0.653749 0.849506 -0.552611
N5    N     N_3   0.388651 0.345627 0.848900 -0.563215
N6    N     N_3   0.611350 0.654371 0.151100 -0.563213
O1    O     O_R   0.500000 0.319660 0.618740 -0.503252
O2    O     O_3   0.938492 0.729627 0.549420 -0.552442
O3    O     O_3   0.577039 0.128200 0.278377 -0.535009
O4    O     O_3   0.422960 0.871803 0.721622 -0.535006
O5    O     O_R   0.500000 0.680340 0.381260 -0.503253
O6    O     O_R   0.499990 0.319630 0.381170 -0.429070
O7    O     O_R   0.500010 0.680370 0.618830 -0.429072
O8    O     O_R   0.379080 0.500000 0.618760 -0.468804
O9    O     O_R   0.620920 0.500000 0.381240 -0.468799
O10   O     O_R   0.379080 0.499970 0.381190 -0.481191
O11   O     O_R   0.620920 0.500030 0.618810 -0.481194
O12   O     O_3   0.061507 0.270374 0.450573 -0.552441

loop_
_geom_bond_atom_site_label_1
_geom_bond_atom_site_label_2
_ccdc_geom_bond_type
C12   O5    A    
C8    O2    S    
H17   N5    S    
C21   O2    S    
C24   H10   S    
C20   H24   S    
H15   N4    S    
C21   H4    S    
H14   N4    S    
C2    C29   A    
C9    C16   T    
C5    C11   S    
Cu2   O10   S    
C11   C14   S    
C2    N2    A    
C10   C17   T    
C22   H6    S    
H18   N6    S    
C20   O12   S    
Cu1   O1    S    
C23   C26   A    
Cu1   N1    S    
C3    O10   A    
C19   C26   A    
C4    O11   A    
C7    C14   S    
C29   N1    A    
C5    H1    S    
C1    O1    A    
C11   H21   S    
C28   N3    S    
Cu1   O7    S    
C6    H12   S    
C30   N5    S    
C24   H9    S    
C2    N6    S    
C28   N2    A    
H19   N6    S    
C18   C23   A    
Cu2   O9    S    
C5    C7    S    
H16   N5    S    
Cu2   O6    S    
C21   H2    S    
C18   O3    S    
C22   H5    S    
C12   C26   S    
C3    C9    S    
C6    C14   S    
C13   H20   S    
Cu1   O11   S    
Cu1   Cu2   S    
C30   N1    A    
C19   O4    S    
C4    O9    A    
C7    O12   S    
Cu1   O8    S    
C12   O7    A    
C8    C15   S    
C13   C15   S    
C14   C16   S    
Cu2   N2    S    
C20   H26   S    
H11   N3    S    
C23   H22   S    
C15   C17   S    
C29   N4    S    
C18   C27   A    
C25   H23   S    
C6    C8    S    
Cu2   O5    S    
C21   H3    S    
C25   C27   A    
C1    O6    A    
C28   C30   A    
C3    O8    A    
C6    C13   S    
C8    C11   S    
C22   H7    S    
H13   N3    S    
C24   H8    S    
C19   C25   A    
C22   O3    S    
C5    C15   S    
C24   O4    S    
C7    C13   S    
C1    C27   S    
C20   H25   S    
C4    C10   S    
