data_mof_unit_8000.cif
_audit_creation_date              2012-12-10T19:24:04-0500
_audit_creation_method            fapswitch 2.2
_symmetry_space_group_name_H-M    P1
_symmetry_Int_Tables_number       1
_space_group_crystal_system       triclinic
_cell_length_a                    10.507166
_cell_length_b                    10.51699
_cell_length_c                    9.807383
_cell_angle_alpha                 91.102409
_cell_angle_beta                  90.024425
_cell_angle_gamma                 89.955886
_cell_volume                      1083.55168368

loop_
_atom_site_label
_atom_site_type_symbol
_atom_type_description
_atom_site_fract_x
_atom_site_fract_y
_atom_site_fract_z
_atom_type_partial_charge
C1    C     C_R   0.503856 0.257848 0.498596 0.919104
C2    C     C_R   0.496051 0.742140 0.501397 0.924128
C3    C     C_3   0.441259 0.966590 0.613342 0.593122
C4    C     C_3   0.558568 0.033382 0.386594 0.594930
C5    C     C_3   0.427377 0.410182 0.047126 -0.055150
C6    C     C_3   0.572620 0.589833 0.952871 -0.047200
C7    C     C_3   0.541200 0.392014 0.948554 -0.082892
C8    C     C_3   0.458834 0.607997 0.051459 -0.074122
C9    C     C_3   0.388888 0.517786 0.953996 0.155029
C10   C     C_3   0.611135 0.482256 0.046029 0.160257
C11   C     C_R   0.257905 0.499144 0.499776 0.863078
C12   C     C_R   0.742084 0.500302 0.500229 0.874468
C13   C     C_3   0.040651 0.405383 0.574616 0.121485
C14   C     C_3   0.959247 0.593064 0.425578 0.124303
C15   C     C_3   0.957021 0.386923 0.447569 -0.196987
C16   C     C_3   0.042798 0.611620 0.552698 -0.251298
C17   C     C_3   0.876808 0.499262 0.501161 -0.014880
C18   C     C_3   0.123148 0.499282 0.498952 -0.044069
C19   C     C_3   0.958867 0.515270 0.630431 -0.164666
C20   C     C_3   0.040898 0.483154 0.369729 -0.165889
C21   C     C_3   0.564425 0.044825 0.609666 -0.269158
C22   C     C_3   0.435411 0.955137 0.390278 -0.271919
C23   C     C_3   0.619513 0.953460 0.498636 -0.308748
C24   C     C_3   0.380321 0.046506 0.501292 -0.316294
C25   C     C_3   0.495586 0.877076 0.504039 -0.181189
C26   C     C_3   0.504245 0.122901 0.495910 -0.179453
H1    H     H_    0.919293 0.294927 0.408017 0.192869
H2    H     H_    0.080439 0.703671 0.592207 0.196454
H3    H     H_    0.922995 0.525784 0.736550 0.156329
H4    H     H_    0.076748 0.472646 0.263601 0.154965
H5    H     H_    0.717040 0.913158 0.497754 0.172393
H6    H     H_    0.282718 0.086608 0.502037 0.173246
H7    H     H_    0.616618 0.084169 0.699461 0.191979
H8    H     H_    0.383211 0.915782 0.300492 0.188598
H9    H     H_    0.577808 0.302476 0.901233 0.173843
H10   H     H_    0.422215 0.697529 0.098784 0.170956
H11   H     H_    0.364366 0.336813 0.091003 0.163191
H12   H     H_    0.635602 0.663222 0.908982 0.164061
N1    N     N_3   0.499910 0.500030 0.863290 -0.104859
N2    N     N_3   0.500090 0.499970 0.136710 -0.105071
O1    O     O_R   0.500010 0.313960 0.616610 -0.617218
O2    O     O_R   0.499990 0.686040 0.383390 -0.613060
O3    O     O_R   0.500060 0.313950 0.383350 -0.579534
O4    O     O_R   0.499940 0.686050 0.616650 -0.577986
O5    O     O_R   0.313930 0.499970 0.616610 -0.600039
O6    O     O_R   0.686070 0.500030 0.383390 -0.580478
O7    O     O_R   0.313980 0.499960 0.383350 -0.643605
O8    O     O_R   0.686020 0.500040 0.616650 -0.646445
Zn1   Zn    Zn3+2 0.499970 0.500010 0.655740 0.986166
Zn2   Zn    Zn3+2 0.500030 0.499990 0.344260 0.995619
N3    N     N_3   0.088057 0.301664 0.656871 -0.425204
H13   H     H_    0.140456 0.341610 0.737439 0.228792
H14   H     H_    0.151755 0.249146 0.596619 0.185589
N4    N     N_3   0.909509 0.695108 0.342610 -0.402717
H15   H     H_    0.987507 0.745524 0.305739 0.194352
H16   H     H_    0.859783 0.757202 0.407611 0.184437
S1    S     S_3+6 0.361583 0.927853 0.767095 0.005710
O9    O     O_2   0.246698 0.848164 0.734213 -0.364724
O10   O     O_2   0.450466 0.855880 0.857491 -0.323775
O11   O     O_3   0.315991 0.063278 0.846896 -0.549017
H17   H     H_    0.281407 0.036224 0.935682 0.385308
S2    S     S_3+6 0.638135 0.072159 0.232784 0.005780
O12   O     O_2   0.549143 0.144026 0.142414 -0.324321
O13   O     O_2   0.752953 0.151968 0.265585 -0.367337
O14   O     O_3   0.683825 0.936776 0.152972 -0.541599
H18   H     H_    0.719205 0.963948 0.064590 0.385577
N5    N     N_3   0.261865 0.537095 0.899127 -0.426701
H19   H     H_    0.199138 0.542571 0.981694 0.154339
H20   H     H_    0.261016 0.626255 0.854202 0.260279
N6    N     N_3   0.738200 0.463319 0.101005 -0.394152
H21   H     H_    0.800971 0.457986 0.018467 0.155707
H22   H     H_    0.739260 0.374147 0.145903 0.255313

loop_
_geom_bond_atom_site_label_1
_geom_bond_atom_site_label_2
_ccdc_geom_bond_type
O4    Zn1   S    
C16   H2    S    
C7    C10   S    
C21   C26   S    
C11   C18   S    
C5    H11   S    
C11   O7    A    
C12   O8    A    
C24   H6    S    
C20   H4    S    
C13   C18   S    
C24   C26   S    
S1    O10   D    
C21   H7    S    
C4    S2    S    
C9    N1    S    
C10   N2    S    
C8    H10   S    
S2    O13   D    
C13   N3    S    
C1    O3    A    
C2    O4    A    
C8    C9    S    
C22   C25   S    
C12   C17   S    
C6    H12   S    
N6    H21   S    
C14   C16   S    
C14   C17   S    
C3    C24   S    
O1    Zn1   S    
O7    Zn2   S    
C15   C20   S    
C22   H8    S    
N4    H16   S    
C13   C19   S    
N5    H19   S    
C14   C20   S    
C3    C25   S    
C12   O6    A    
C5    C7    S    
C4    C23   S    
S1    O11   S    
C6    C8    S    
N3    H13   S    
O11   H17   S    
N3    H14   S    
C23   H5    S    
C9    N5    S    
C5    C9    S    
S2    O12   D    
C4    C22   S    
C15   H1    S    
O5    Zn1   S    
O2    Zn2   S    
C3    S1    S    
C1    O1    A    
O8    Zn1   S    
C14   N4    S    
C13   C15   S    
C1    C26   S    
C22   C24   S    
C3    C21   S    
C19   H3    S    
C10   N6    S    
C15   C17   S    
N4    H15   S    
S2    O14   S    
N1    Zn1   S    
C7    H9    S    
C6    C10   S    
C4    C26   S    
O3    Zn2   S    
O6    Zn2   S    
C21   C23   S    
S1    O9    D    
C2    O2    A    
C16   C19   S    
N2    Zn2   S    
C17   C19   S    
C2    C25   S    
C18   C20   S    
C23   C25   S    
C11   O5    A    
C16   C18   S    
O14   H18   S    
C5    N2    S    
C7    N1    S    
C6    N1    S    
N6    H22   S    
C8    N2    S    
N5    H20   S    
