data_mof_unit_14415.cif
_audit_creation_date              2012-12-11T16:58:24-0500
_audit_creation_method            fapswitch 2.2
_symmetry_space_group_name_H-M    P1
_symmetry_Int_Tables_number       1
_space_group_crystal_system       triclinic
_cell_length_a                    16.922069
_cell_length_b                    7.283672
_cell_length_c                    16.845833
_cell_angle_alpha                 88.194785
_cell_angle_beta                  100.413773
_cell_angle_gamma                 91.964341
_cell_volume                      2040.25205512

loop_
_atom_site_label
_atom_site_type_symbol
_atom_type_description
_atom_site_fract_x
_atom_site_fract_y
_atom_site_fract_z
_atom_type_partial_charge
O1    O     O_R   0.413450 0.494370 0.415710 -0.533934
O2    O     O_R   0.586550 0.994370 0.584290 -0.533602
O3    O     O_R   0.578420 0.819350 0.429360 -0.544137
O4    O     O_R   0.421580 0.319350 0.570640 -0.539074
C1    C     C_R   0.604641 0.660163 0.413295 0.698523
C2    C     C_R   0.395676 0.150778 0.586553 0.699251
O5    O     O_R   0.413570 0.823780 0.406240 -0.543604
O6    O     O_R   0.586430 0.323780 0.593760 -0.543576
O7    O     O_R   0.420530 0.998740 0.561000 -0.540322
O8    O     O_R   0.579470 0.498740 0.439000 -0.534602
C3    C     C_R   0.386000 0.655529 0.383896 0.698331
C4    C     C_R   0.613931 0.155846 0.616053 0.697708
O9    O     O_3   0.502480 0.662320 0.550800 -0.378400
O10   O     O_3   0.497520 0.162320 0.449200 -0.378658
V1    V     V_3+5 0.499540 0.935370 0.490580 1.384073
V2    V     V_3+5 0.500460 0.435370 0.509420 1.385433
C5    C     C_R   0.696317 0.988781 0.733945 0.051748
C6    C     C_R   0.303423 0.494261 0.265742 0.049884
C7    C     C_R   0.682289 0.148123 0.685214 -0.138928
C8    C     C_R   0.317599 0.647914 0.314878 -0.138003
C9    C     C_R   0.740053 0.293231 0.698619 -0.156181
C10   C     C_R   0.260086 0.786414 0.301868 -0.155637
H1    H     H_    0.734226 0.412915 0.658388 0.139975
H2    H     H_    0.266060 0.900520 0.342458 0.138993
C11   C     C_R   0.810035 0.278172 0.758300 0.200954
C12   C     C_R   0.190152 0.770275 0.242094 0.201894
C13   C     C_R   0.820449 0.122346 0.811400 -0.113416
C14   C     C_R   0.179666 0.621597 0.188521 -0.113178
C15   C     C_R   0.765191 0.975073 0.794305 0.043599
C16   C     C_R   0.234576 0.479816 0.205305 0.042234
C17   C     C_3   0.782981 0.792853 0.763746 0.037862
C18   C     C_3   0.216265 0.290243 0.235472 0.040429
C19   C     C_3   0.704740 0.801162 0.704362 -0.359852
C20   C     C_3   0.294529 0.300820 0.294889 -0.361280
H3    H     H_    0.785304 0.679305 0.809607 0.118811
H4    H     H_    0.213630 0.183452 0.189363 0.118308
H5    H     H_    0.657682 0.703542 0.720126 0.138563
H6    H     H_    0.341354 0.212635 0.278899 0.138455
H7    H     H_    0.711576 0.799892 0.639910 0.180936
H8    H     H_    0.287724 0.288543 0.359339 0.181088
C21   C     C_R   0.334949 0.123314 0.640100 -0.066717
C22   C     C_R   0.666008 0.671266 0.359657 -0.066636
C23   C     C_R   0.164099 0.146201 0.859590 -0.065701
C24   C     C_R   0.835007 0.598353 0.140739 -0.064137
C25   C     C_R   0.258956 0.353073 0.804485 -0.200131
C26   C     C_R   0.738207 0.408851 0.201701 -0.199812
C27   C     C_R   0.206795 0.316178 0.858817 -0.160892
C28   C     C_R   0.790363 0.432454 0.146408 -0.160385
C29   C     C_R   0.176293 0.011827 0.805261 -0.235716
C30   C     C_R   0.824667 0.742511 0.191191 -0.237509
C31   C     C_R   0.228690 0.048645 0.750045 0.157049
C32   C     C_R   0.772317 0.718988 0.247540 0.157820
C33   C     C_R   0.270107 0.220977 0.749376 0.159452
C34   C     C_R   0.728988 0.550455 0.253158 0.159728
C35   C     C_R   0.322513 0.257835 0.694207 -0.237910
C36   C     C_R   0.676610 0.526912 0.309458 -0.237242
C37   C     C_R   0.292386 0.953245 0.640847 -0.159052
C38   C     C_R   0.710555 0.837247 0.354010 -0.159353
C39   C     C_R   0.239984 0.916456 0.694994 -0.194944
C40   C     C_R   0.762967 0.860698 0.298928 -0.195246
H9    H     H_    0.355025 0.388880 0.694911 0.125250
H10   H     H_    0.642495 0.398925 0.312404 0.124212
H11   H     H_    0.300032 0.846619 0.599719 0.133381
H12   H     H_    0.704331 0.951225 0.391978 0.132128
H13   H     H_    0.290207 0.485682 0.805319 0.118539
H14   H     H_    0.705490 0.278945 0.204533 0.119101
H15   H     H_    0.208785 0.783794 0.694172 0.122192
H16   H     H_    0.795643 0.990650 0.296083 0.122882
H17   H     H_    0.199519 0.422788 0.900088 0.133715
H18   H     H_    0.796235 0.318564 0.108273 0.131513
H19   H     H_    0.143721 0.880849 0.804498 0.128130
H20   H     H_    0.858837 0.870442 0.188301 0.126495
O11   O     O_R   0.920630 0.775410 0.061150 -0.532288
O12   O     O_R   0.079370 0.275410 0.938850 -0.537224
O13   O     O_R   0.086500 0.441450 0.093690 -0.538560
O14   O     O_R   0.913500 0.941450 0.906310 -0.538731
C41   C     C_R   0.112190 0.610284 0.118042 0.681484
C42   C     C_R   0.887862 0.110556 0.882027 0.680218
O15   O     O_R   0.921670 0.445960 0.070740 -0.541798
O16   O     O_R   0.078330 0.945960 0.929260 -0.537607
O17   O     O_R   0.913380 0.271130 0.915780 -0.541309
O18   O     O_R   0.086620 0.771130 0.084220 -0.542026
C43   C     C_R   0.896118 0.609639 0.086744 0.688635
C44   C     C_R   0.103555 0.118782 0.913433 0.689362
O19   O     O_3   0.997500 0.603030 0.949220 -0.381182
O20   O     O_3   0.002500 0.103030 0.050780 -0.381412
V3    V     V_3+5 0.000470 0.329940 0.009420 1.368799
V4    V     V_3+5 0.999530 0.829940 0.990580 1.368712
N1    N     N_3   0.874649 0.408547 0.755496 -0.697866
H21   H     H_    0.886338 0.481258 0.808750 0.249034
H22   H     H_    0.926082 0.337855 0.750063 0.234665
N2    N     N_3   0.125594 0.889847 0.245289 -0.698858
H23   H     H_    0.113527 0.968220 0.192002 0.247991
H24   H     H_    0.074281 0.809989 0.250999 0.232597
N3    N     N_3   0.852422 0.809540 0.722696 -0.640356
H25   H     H_    0.904661 0.788498 0.765194 0.244896
H26   H     H_    0.848051 0.707373 0.679853 0.262937
N4    N     N_3   0.146800 0.290532 0.276485 -0.639548
H27   H     H_    0.094571 0.266935 0.234026 0.245576
H28   H     H_    0.151125 0.183403 0.319609 0.262983

loop_
_geom_bond_atom_site_label_1
_geom_bond_atom_site_label_2
_ccdc_geom_bond_type
O15   C43   A    
C1    C22   S    
C13   C15   A    
C5    C15   A    
N3    H25   S    
O1    C3    A    
O16   C44   A    
C24   C43   S    
O2    C4    A    
C22   C38   A    
C2    O7    A    
O15   V3    S    
O5    C3    A    
C19   H7    S    
C20   H8    S    
C18   H4    S    
C10   H2    S    
C7    C9    A    
O14   C42   A    
C26   H14   S    
C17   N3    S    
C37   C39   A    
C12   N2    S    
C25   C27   A    
C30   H20   S    
C27   H17   S    
C32   C40   A    
C22   C36   A    
C21   C35   A    
C29   C31   A    
C2    C21   S    
C30   C32   A    
C17   C19   S    
C6    C16   A    
O12   V3    S    
N1    H22   S    
O14   V4    S    
C36   H10   S    
C39   H15   S    
C13   C42   S    
O5    V1    S    
C25   C33   A    
O6    V2    S    
C23   C44   S    
C5    C19   S    
C32   C34   A    
C37   H11   S    
C38   C40   A    
C26   C28   A    
C33   C35   A    
C38   H12   S    
C34   C36   A    
C3    C8    S    
O4    C2    A    
O12   C44   A    
O20   V3    S    
C23   C29   A    
C19   H5    S    
C31   C33   A    
C18   C20   S    
O4    V2    S    
O11   V4    S    
C14   C41   S    
O13   C41   A    
O6    C4    A    
C26   C34   A    
N2    H24   S    
O1    V2    S    
O2    V1    S    
C6    C20   S    
O17   V3    S    
O13   V3    S    
C8    C10   A    
N4    H28   S    
C9    H1    S    
C25   H13   S    
C17   H3    S    
C31   C39   A    
O3    V1    S    
O19   V4    S    
C24   C30   A    
C9    C11   A    
C20   H6    S    
C12   C14   A    
C28   H18   S    
O3    C1    A    
N3    H26   S    
C11   C13   A    
C11   N1    S    
C14   C16   A    
O7    V1    S    
C21   C37   A    
C1    O8    A    
O16   V4    S    
O8    V2    S    
C16   C18   S    
C42   O17   A    
C29   H19   S    
C41   O18   A    
O18   V4    S    
C35   H9    S    
C4    C7    S    
N2    H23   S    
C5    C7    A    
C18   N4    S    
C6    C8    A    
C40   H16   S    
C15   C17   S    
N4    H27   S    
C10   C12   A    
O9    V2    S    
O10   V1    S    
N1    H21   S    
C23   C27   A    
O11   C43   A    
C24   C28   A    
