data_mof_unit_16216.cif
_audit_creation_date              2012-12-10T16:38:04-0500
_audit_creation_method            fapswitch 2.2
_symmetry_space_group_name_H-M    P1
_symmetry_Int_Tables_number       1
_space_group_crystal_system       triclinic
_cell_length_a                    28.029437
_cell_length_b                    18.398963
_cell_length_c                    17.005438
_cell_angle_alpha                 90.280574
_cell_angle_beta                  60.764834
_cell_angle_gamma                 90.44347
_cell_volume                      7652.59230317

loop_
_atom_site_label
_atom_site_type_symbol
_atom_type_description
_atom_site_fract_x
_atom_site_fract_y
_atom_site_fract_z
_atom_type_partial_charge
C1    C     C_R   0.701184 0.266879 0.676977 0.892349
C2    C     C_R   0.094106 0.501651 0.518779 0.073515
C3    C     C_R   0.186283 0.226628 0.912783 0.020438
C4    C     C_R   0.611666 0.316492 0.053181 0.397752
C5    C     C_R   0.388334 0.683508 0.946819 0.397752
C6    C     C_R   0.389576 0.313616 0.946391 0.399429
C7    C     C_R   0.610424 0.686384 0.053609 0.399429
C8    C     C_R   0.111666 0.816492 0.053181 0.397752
C9    C     C_R   0.888334 0.183508 0.946819 0.397752
C10   C     C_R   0.889576 0.813616 0.946391 0.399429
C11   C     C_R   0.110424 0.186384 0.053609 0.399429
C12   C     C_R   0.643486 0.307455 0.095263 -0.259335
C13   C     C_R   0.405894 0.998348 0.481221 0.073515
C14   C     C_R   0.356514 0.692544 0.904737 -0.259335
C15   C     C_R   0.357972 0.304169 0.903939 -0.263829
C16   C     C_R   0.642028 0.695831 0.096061 -0.263829
C17   C     C_R   0.143486 0.807455 0.095263 -0.259335
C18   C     C_R   0.856514 0.192544 0.904737 -0.259335
C19   C     C_R   0.857972 0.804169 0.903939 -0.263829
C20   C     C_R   0.142028 0.195831 0.096061 -0.263829
C21   C     C_R   0.749846 0.201359 0.787933 -0.169838
C22   C     C_R   0.250154 0.798641 0.212067 -0.169838
C23   C     C_R   0.248476 0.202473 0.212993 -0.184498
C24   C     C_R   0.594106 0.001651 0.518779 0.073515
C25   C     C_R   0.751524 0.797527 0.787007 -0.184498
C26   C     C_R   0.249846 0.701359 0.787933 -0.169838
C27   C     C_R   0.750154 0.298641 0.212067 -0.169838
C28   C     C_R   0.748476 0.702473 0.212993 -0.184498
C29   C     C_R   0.251524 0.297527 0.787007 -0.184498
C30   C     C_R   0.781777 0.190975 0.828961 -0.223432
C31   C     C_R   0.218223 0.809025 0.171039 -0.223432
C32   C     C_R   0.216353 0.192795 0.172098 -0.240710
C33   C     C_R   0.783647 0.807205 0.827902 -0.240710
C34   C     C_R   0.281777 0.690975 0.828961 -0.223432
C35   C     C_R   0.120493 0.385069 0.442081 -0.234154
C36   C     C_R   0.718223 0.309025 0.171039 -0.223432
C37   C     C_R   0.716353 0.692795 0.172098 -0.240710
C38   C     C_R   0.283647 0.307205 0.827902 -0.240710
C39   C     C_R   0.071056 0.104009 0.937510 0.953704
C40   C     C_R   0.928944 0.895990 0.062490 0.953705
C41   C     C_R   0.928537 0.103531 0.063017 0.951613
C42   C     C_R   0.071463 0.896469 0.936983 0.951613
C43   C     C_R   0.571056 0.604009 0.937510 0.953704
C44   C     C_R   0.428944 0.395990 0.062490 0.953705
C45   C     C_R   0.428537 0.603531 0.063017 0.951613
C46   C     C_R   0.879507 0.614931 0.557918 -0.234154
C47   C     C_R   0.571463 0.396469 0.936983 0.951613
C48   C     C_R   0.521580 0.119384 0.583115 0.106731
C49   C     C_R   0.478420 0.880616 0.416885 0.106731
C50   C     C_R   0.425831 0.115812 0.568573 0.111445
C51   C     C_R   0.574169 0.884188 0.431427 0.111445
C52   C     C_R   0.021580 0.619384 0.583115 0.106731
C53   C     C_R   0.978420 0.380616 0.416885 0.106731
C54   C     C_R   0.925831 0.615812 0.568573 0.111445
C55   C     C_R   0.074169 0.384188 0.431427 0.111445
C56   C     C_R   0.483558 0.175959 0.619188 -0.182774
C57   C     C_R   0.929884 0.378535 0.412148 -0.220993
C58   C     C_R   0.516442 0.824041 0.380812 -0.182774
C59   C     C_R   0.435773 0.173898 0.612625 -0.196311
C60   C     C_R   0.564227 0.826102 0.387375 -0.196311
C61   C     C_R   0.983558 0.675959 0.619188 -0.182774
C62   C     C_R   0.016442 0.324041 0.380812 -0.182774
C63   C     C_R   0.935773 0.673898 0.612625 -0.196311
C64   C     C_R   0.064227 0.326102 0.387375 -0.196311
C65   C     C_R   0.463294 0.058339 0.533282 0.034437
C66   C     C_R   0.536706 0.941660 0.466718 0.034437
C67   C     C_R   0.510826 0.059742 0.541455 0.030036
C68   C     C_R   0.070116 0.621465 0.587852 -0.220993
C69   C     C_R   0.489174 0.940258 0.458545 0.030036
C70   C     C_R   0.963294 0.558339 0.533282 0.034437
C71   C     C_R   0.036706 0.441660 0.466718 0.034437
C72   C     C_R   0.010826 0.559742 0.541455 0.030036
C73   C     C_R   0.989174 0.440258 0.458545 0.030036
C74   C     C_R   0.952711 0.498846 0.491308 -0.045737
C75   C     C_R   0.047289 0.501154 0.508692 -0.045737
C76   C     C_R   0.452711 0.998846 0.491308 -0.045737
C77   C     C_R   0.547289 0.001154 0.508692 -0.045737
C78   C     C_R   0.892649 0.436618 0.446006 0.060234
C79   C     C_R   0.620493 0.885069 0.442081 -0.234154
C80   C     C_R   0.107350 0.563382 0.553994 0.060234
C81   C     C_R   0.128562 0.440833 0.492142 0.047871
C82   C     C_R   0.871438 0.559167 0.507858 0.047871
C83   C     C_R   0.392649 0.936618 0.446006 0.060234
C84   C     C_R   0.607350 0.063382 0.553994 0.060234
C85   C     C_R   0.628562 0.940833 0.492142 0.047871
C86   C     C_R   0.371438 0.059167 0.507858 0.047871
C87   C     C_R   0.841893 0.435683 0.446624 -0.119986
C88   C     C_R   0.158107 0.564317 0.553376 -0.119986
C89   C     C_R   0.169700 0.438393 0.517701 -0.107113
C90   C     C_R   0.379507 0.114931 0.557918 -0.234154
C91   C     C_R   0.830300 0.561607 0.482299 -0.107113
C92   C     C_R   0.341893 0.935683 0.446624 -0.119986
C93   C     C_R   0.658107 0.064317 0.553376 -0.119986
C94   C     C_R   0.669700 0.938393 0.517701 -0.107113
C95   C     C_R   0.330300 0.061607 0.482299 -0.107113
C96   C     C_R   0.815609 0.499867 0.453108 -0.287407
C97   C     C_R   0.184391 0.500132 0.546892 -0.287407
C98   C     C_R   0.315609 0.999868 0.453108 -0.287407
C99   C     C_R   0.684391 0.000132 0.546892 -0.287407
C100  C     C_R   0.429884 0.878535 0.412148 -0.220993
C101  C     C_R   0.298816 0.733120 0.323023 0.892349
C102  C     C_R   0.570116 0.121465 0.587852 -0.220993
C103  C     C_R   0.717766 0.260788 0.957204 0.025933
C104  C     C_R   0.282234 0.739212 0.042796 0.025933
C105  C     C_R   0.282318 0.260152 0.042713 0.025673
C106  C     C_R   0.717682 0.739848 0.957287 0.025673
C107  C     C_R   0.217766 0.760788 0.957204 0.025933
C108  C     C_R   0.782234 0.239212 0.042796 0.025933
C109  C     C_R   0.782318 0.760152 0.042713 0.025673
C110  C     C_R   0.217682 0.239848 0.957287 0.025673
C111  C     C_R   0.768380 0.223907 0.911707 0.094437
C112  C     C_R   0.298837 0.266843 0.322894 0.900924
C113  C     C_R   0.231620 0.776093 0.088293 0.094437
C114  C     C_R   0.230752 0.224950 0.088801 0.098476
C115  C     C_R   0.769248 0.775050 0.911199 0.098476
C116  C     C_R   0.268380 0.723907 0.911707 0.094437
C117  C     C_R   0.731620 0.276093 0.088293 0.094437
C118  C     C_R   0.730752 0.724950 0.088801 0.098476
C119  C     C_R   0.269248 0.275050 0.911199 0.098476
C120  C     C_R   0.801859 0.216144 0.952977 -0.021381
C121  C     C_R   0.198141 0.783856 0.047023 -0.021381
C122  C     C_R   0.197243 0.217887 0.047575 -0.020784
C123  C     C_R   0.701163 0.733157 0.677106 0.900924
C124  C     C_R   0.802757 0.782113 0.952425 -0.020784
C125  C     C_R   0.301859 0.716144 0.952977 -0.021381
C126  C     C_R   0.698141 0.283856 0.047023 -0.021381
C127  C     C_R   0.697243 0.717887 0.047575 -0.020784
C128  C     C_R   0.302757 0.282113 0.952425 -0.020784
C129  C     C_R   0.635715 0.310628 0.958082 -0.025215
C130  C     C_R   0.364285 0.689372 0.041918 -0.025215
C131  C     C_R   0.365007 0.308779 0.041553 -0.023686
C132  C     C_R   0.634993 0.691220 0.958447 -0.023686
C133  C     C_R   0.135715 0.810628 0.958082 -0.025215
C134  C     C_R   0.201184 0.766880 0.676977 0.892349
C135  C     C_R   0.864285 0.189372 0.041918 -0.025215
C136  C     C_R   0.865007 0.808779 0.041553 -0.023686
C137  C     C_R   0.134993 0.191220 0.958447 -0.023686
C138  C     C_R   0.611208 0.337042 0.906473 -0.095769
C139  C     C_R   0.388792 0.662958 0.093527 -0.095769
C140  C     C_R   0.389422 0.335927 0.093077 -0.098390
C141  C     C_R   0.610578 0.664073 0.906923 -0.098390
C142  C     C_R   0.111208 0.837042 0.906473 -0.095769
C143  C     C_R   0.888792 0.162958 0.093527 -0.095769
C144  C     C_R   0.889422 0.835927 0.093077 -0.098390
C145  C     C_R   0.798816 0.233120 0.323023 0.892349
C146  C     C_R   0.110578 0.164073 0.906923 -0.098390
C147  C     C_R   0.631414 0.316027 0.818018 -0.273404
C148  C     C_R   0.368586 0.683973 0.181982 -0.273404
C149  C     C_R   0.369063 0.315422 0.181674 -0.269044
C150  C     C_R   0.630937 0.684578 0.818325 -0.269044
C151  C     C_R   0.131414 0.816027 0.818018 -0.273404
C152  C     C_R   0.868586 0.183973 0.181982 -0.273404
C153  C     C_R   0.869063 0.815422 0.181674 -0.269043
C154  C     C_R   0.130937 0.184578 0.818325 -0.269044
C155  C     C_R   0.677856 0.274383 0.775049 -0.129586
C156  C     C_R   0.798837 0.766843 0.322894 0.900924
C157  C     C_R   0.322144 0.725617 0.224951 -0.129585
C158  C     C_R   0.322082 0.274172 0.224945 -0.129470
C159  C     C_R   0.677918 0.725828 0.775055 -0.129470
C160  C     C_R   0.177856 0.774383 0.775049 -0.129586
C161  C     C_R   0.822144 0.225617 0.224951 -0.129585
C162  C     C_R   0.822082 0.774172 0.224945 -0.129470
C163  C     C_R   0.177918 0.225828 0.775055 -0.129470
C164  C     C_R   0.705254 0.250194 0.823432 0.101207
C165  C     C_R   0.294746 0.749806 0.176568 0.101207
C166  C     C_R   0.294238 0.250117 0.176845 0.099853
C167  C     C_R   0.201163 0.233157 0.677106 0.900924
C168  C     C_R   0.705762 0.749883 0.823154 0.099853
C169  C     C_R   0.205254 0.750194 0.823432 0.101207
C170  C     C_R   0.794746 0.249806 0.176568 0.101207
C171  C     C_R   0.794238 0.750117 0.176845 0.099853
C172  C     C_R   0.205762 0.249883 0.823154 0.099853
C173  C     C_R   0.690685 0.129866 0.537351 0.897019
C174  C     C_R   0.309315 0.870134 0.462649 0.897019
C175  C     C_R   0.303142 0.127611 0.482885 0.915736
C176  C     C_R   0.696858 0.872389 0.517115 0.915736
C177  C     C_R   0.190685 0.629866 0.537351 0.897019
C178  C     C_R   0.905894 0.498349 0.481221 0.073515
C179  C     C_R   0.809315 0.370134 0.462649 0.897019
C180  C     C_R   0.803142 0.627611 0.482885 0.915736
C181  C     C_R   0.196858 0.372389 0.517115 0.915736
C182  C     C_R   0.686435 0.274367 0.912680 0.019558
C183  C     C_R   0.313565 0.725633 0.087320 0.019558
C184  C     C_R   0.313717 0.273372 0.087216 0.020438
C185  C     C_R   0.686283 0.726628 0.912783 0.020438
C186  C     C_R   0.186435 0.774367 0.912680 0.019558
C187  C     C_R   0.813565 0.225633 0.087320 0.019558
C188  C     C_R   0.813716 0.773372 0.087216 0.020438
Cl1   Cl    Cl    0.540073 0.314712 0.125235 -0.614301
Cl2   Cl    Cl    0.459927 0.685288 0.874764 -0.614301
Cl3   Cl    Cl    0.461245 0.312332 0.875238 -0.640952
Cl4   Cl    Cl    0.538755 0.687668 0.124762 -0.640952
Cl5   Cl    Cl    0.040073 0.814712 0.125235 -0.614301
Cl6   Cl    Cl    0.959927 0.185288 0.874764 -0.614301
Cl7   Cl    Cl    0.961245 0.812332 0.875238 -0.640952
Cl8   Cl    Cl    0.038755 0.187668 0.124762 -0.640952
H1    H     H_    0.092918 0.281637 0.359446 0.144556
H2    H     H_    0.849756 0.657433 0.590509 0.172532
H3    H     H_    0.922343 0.332915 0.379100 0.171034
H4    H     H_    0.077657 0.667085 0.620900 0.171034
H5    H     H_    0.650244 0.842566 0.409491 0.172532
H6    H     H_    0.349756 0.157434 0.590509 0.172532
H7    H     H_    0.422343 0.832915 0.379100 0.171034
H8    H     H_    0.577657 0.167085 0.620900 0.171034
H9    H     H_    0.612476 0.336346 0.780100 0.206467
H10   H     H_    0.387524 0.663654 0.219899 0.206467
H11   H     H_    0.388208 0.336010 0.219505 0.208910
H12   H     H_    0.907082 0.718363 0.640554 0.144556
H13   H     H_    0.611792 0.663990 0.780495 0.208910
H14   H     H_    0.112476 0.836346 0.780100 0.206467
H15   H     H_    0.887524 0.163654 0.219899 0.206467
H16   H     H_    0.888208 0.836010 0.219505 0.208910
H17   H     H_    0.111792 0.163990 0.780495 0.208910
H18   H     H_    0.623240 0.313241 0.167714 0.179971
H19   H     H_    0.376760 0.686759 0.832286 0.179971
H20   H     H_    0.378558 0.308903 0.831363 0.171226
H21   H     H_    0.621442 0.691097 0.168637 0.171225
H22   H     H_    0.123240 0.813241 0.167714 0.179971
H23   H     H_    0.009166 0.278149 0.347789 0.169193
H24   H     H_    0.876760 0.186759 0.832286 0.179971
H25   H     H_    0.878558 0.808903 0.831363 0.171226
H26   H     H_    0.121442 0.191097 0.168637 0.171225
H27   H     H_    0.760196 0.167244 0.730288 0.177261
H28   H     H_    0.239804 0.832756 0.269711 0.177261
H29   H     H_    0.237159 0.168757 0.271045 0.182634
H30   H     H_    0.762841 0.831242 0.728955 0.182634
H31   H     H_    0.260196 0.667244 0.730288 0.177261
H32   H     H_    0.739804 0.332756 0.269711 0.177261
H33   H     H_    0.737159 0.668757 0.271045 0.182634
H34   H     H_    0.990834 0.721851 0.652211 0.169193
H35   H     H_    0.262841 0.331242 0.728955 0.182634
H36   H     H_    0.815583 0.153689 0.796671 0.144876
H37   H     H_    0.184417 0.846311 0.203329 0.144876
H38   H     H_    0.181573 0.156570 0.204925 0.144167
H39   H     H_    0.818427 0.843430 0.795075 0.144167
H40   H     H_    0.315583 0.653689 0.796671 0.144876
H41   H     H_    0.684417 0.346311 0.203329 0.144876
H42   H     H_    0.681573 0.656570 0.204925 0.144167
H43   H     H_    0.318427 0.343430 0.795075 0.144167
H44   H     H_    0.780682 0.500459 0.441912 0.193355
H45   H     H_    0.592918 0.781637 0.359446 0.144556
H46   H     H_    0.219318 0.499541 0.558088 0.193355
H47   H     H_    0.280682 0.000459 0.441912 0.193355
H48   H     H_    0.719318 0.999541 0.558088 0.193355
H49   H     H_    0.407082 0.218363 0.640554 0.144556
H50   H     H_    0.509166 0.778149 0.347789 0.169193
H51   H     H_    0.490835 0.221851 0.652211 0.169193
H52   H     H_    0.150244 0.342566 0.409491 0.172532
O1    O     O_R   0.746490 0.236330 0.638080 -0.643770
O2    O     O_R   0.325830 0.813840 0.483730 -0.623911
O3    O     O_R   0.325830 0.186160 0.483730 -0.628735
O4    O     O_R   0.674170 0.813840 0.516270 -0.628735
O5    O     O_R   0.174170 0.686160 0.516270 -0.623911
O6    O     O_R   0.825830 0.313840 0.483730 -0.623911
O7    O     O_R   0.825830 0.686160 0.483730 -0.628735
O8    O     O_R   0.174170 0.313840 0.516270 -0.628735
O9    O     O_R   0.739960 0.127620 0.525000 -0.628137
O10   O     O_R   0.260040 0.872380 0.475000 -0.628137
O11   O     O_R   0.260040 0.127620 0.475000 -0.635658
O12   O     O_R   0.253510 0.763670 0.361920 -0.643770
O13   O     O_R   0.739960 0.872380 0.525000 -0.635658
O14   O     O_R   0.239960 0.627620 0.525000 -0.628137
O15   O     O_R   0.760040 0.372380 0.475000 -0.628137
O16   O     O_R   0.760040 0.627620 0.475000 -0.635658
O17   O     O_R   0.239960 0.372380 0.525000 -0.635658
O18   O     O_R   0.680700 0.294870 0.629350 -0.617609
O19   O     O_R   0.319300 0.705130 0.370650 -0.617609
O20   O     O_R   0.319300 0.294870 0.370650 -0.609790
O21   O     O_R   0.680700 0.705130 0.629350 -0.609790
O22   O     O_R   0.180700 0.794870 0.629350 -0.617609
O23   O     O_R   0.253510 0.236330 0.361920 -0.660762
O24   O     O_R   0.819300 0.205130 0.370650 -0.617609
O25   O     O_R   0.819300 0.794870 0.370650 -0.609790
O26   O     O_R   0.180700 0.205130 0.629350 -0.609790
O27   O     O_R   0.062020 0.072840 0.007170 -0.589884
O28   O     O_R   0.937980 0.927160 0.992830 -0.589884
O29   O     O_R   0.937980 0.072840 0.992830 -0.590229
O30   O     O_R   0.062020 0.927160 0.007170 -0.590229
O31   O     O_R   0.562020 0.572840 0.007170 -0.589884
O32   O     O_R   0.437980 0.427160 0.992830 -0.589884
O33   O     O_R   0.437980 0.572840 0.992830 -0.590229
O34   O     O_R   0.746490 0.763670 0.638080 -0.660762
O35   O     O_R   0.562020 0.427160 0.007170 -0.590229
O36   O     O_R   0.947860 0.073950 0.109290 -0.598828
O37   O     O_R   0.052140 0.926050 0.890710 -0.598828
O38   O     O_R   0.052140 0.073950 0.890710 -0.600346
O39   O     O_R   0.947860 0.926050 0.109290 -0.600346
O40   O     O_R   0.447860 0.573950 0.109290 -0.598828
O41   O     O_R   0.552140 0.426050 0.890710 -0.598828
O42   O     O_R   0.552140 0.573950 0.890710 -0.600346
O43   O     O_R   0.447860 0.426050 0.109290 -0.600346
O44   O     O_R   0.246490 0.736330 0.638080 -0.643770
O45   O     O_R   0.753510 0.263670 0.361920 -0.643770
O46   O     O_R   0.753510 0.736330 0.361920 -0.660762
O47   O     O_R   0.246490 0.263670 0.638080 -0.660762
O48   O     O_R   0.674170 0.186160 0.516270 -0.623911
Zn1   Zn    Zn3+2 0.792340 0.208750 0.507670 0.958492
Zn2   Zn    Zn3+2 0.494040 0.500000 0.919480 1.067962
Zn3   Zn    Zn3+2 0.005960 0.000000 0.080520 1.067962
Zn4   Zn    Zn3+2 0.994040 0.000000 0.919480 1.067962
Zn5   Zn    Zn3+2 0.207660 0.791250 0.492330 0.958492
Zn6   Zn    Zn3+2 0.207660 0.208750 0.492330 0.954751
Zn7   Zn    Zn3+2 0.792340 0.791250 0.507670 0.954751
Zn8   Zn    Zn3+2 0.292340 0.708750 0.507670 0.958492
Zn9   Zn    Zn3+2 0.707660 0.291250 0.492330 0.958492
Zn10  Zn    Zn3+2 0.707660 0.708750 0.492330 0.954751
Zn11  Zn    Zn3+2 0.292340 0.291250 0.507670 0.954751
Zn12  Zn    Zn3+2 0.505960 0.500000 0.080520 1.067962

loop_
_geom_bond_atom_site_label_1
_geom_bond_atom_site_label_2
_ccdc_geom_bond_type
O32   Zn2   S    
C108  C120  A    
O17   Zn11  S    
C12   H18   S    
O5    Zn5   S    
C88   C177  S    
C32   H38   S    
O13   Zn7   S    
C60   H45   S    
O14   Zn8   S    
C50   C59   A    
C151  H14   S    
C41   C143  S    
C52   C61   A    
C180  O16   A    
C46   H2    S    
C12   C126  A    
C54   C63   A    
C40   O28   A    
C58   C60   A    
C43   O42   A    
C45   C139  S    
C61   C63   A    
C103  C126  A    
C95   C175  S    
C62   C64   A    
C131  C140  A    
C91   C96   A    
C179  O6    A    
C179  O15   A    
C50   C90   A    
C162  C171  A    
C79   H5    S    
C170  C187  A    
C70   C74   A    
C4    C12   A    
C147  C155  A    
C24   C85   A    
C112  O20   A    
O8    Zn6   S    
C88   C97   A    
C119  C128  A    
C39   O38   A    
C49   C69   A    
C154  H17   S    
O26   Zn6   S    
C23   H29   S    
O27   Zn3   S    
C109  C118  A    
C173  O48   A    
C11   C20   A    
C150  C159  A    
C165  C183  A    
C137  C146  A    
C166  C184  A    
O15   Zn9   S    
C86   C90   A    
C71   C73   A    
C15   H20   S    
C106  C127  A    
C82   C91   A    
C51   C66   A    
C89   C181  S    
C142  C151  A    
C173  O9    A    
C52   C72   A    
C131  C184  A    
C105  C114  A    
C54   C70   A    
C26   H31   S    
C82   C178  A    
C61   H34   S    
C8    Cl5   S    
C36   C117  A    
C7    C132  A    
C112  C158  S    
C38   C119  A    
C5    C130  A    
C152  H15   S    
C63   H12   S    
C7    Cl4   S    
C47   O41   A    
C79   C85   A    
C36   H41   S    
C66   C77   A    
C40   O39   A    
C57   C78   A    
O33   Zn2   S    
C176  O4    A    
O46   Zn10  S    
O36   Zn3   S    
C8    C17   A    
C56   C59   A    
C106  C115  A    
C62   H23   S    
C80   C88   A    
O6    Zn1   S    
C145  C161  S    
O2    Zn8   S    
C93   C173  S    
C84   C93   A    
C105  C184  A    
O7    Zn7   S    
C86   C95   A    
C24   C77   A    
C104  C183  A    
C43   O31   A    
O3    Zn11  S    
O43   Zn12  S    
C2    C81   A    
C55   C71   A    
C2    C75   A    
C90   H6    S    
C78   C87   A    
C134  C160  S    
C84   C102  A    
C67   C77   A    
C18   H24   S    
C133  C142  A    
C45   O40   A    
C123  C159  S    
C130  C183  A    
C100  H7    S    
C1    O1    A    
C3    C110  A    
C69   C76   A    
C147  H9    S    
C85   C94   A    
C99   H48   S    
O40   Zn12  S    
C97   H46   S    
C46   C82   A    
C29   C38   A    
C149  C158  A    
C20   C122  A    
C152  C161  A    
C135  C143  A    
C68   H4    S    
C48   C67   A    
C136  C188  A    
C72   C75   A    
C112  O23   A    
C135  C187  A    
C180  O7    A    
C141  C150  A    
O22   Zn5   S    
C25   C168  A    
C139  C148  A    
C104  C125  A    
C157  C165  A    
C92   C174  S    
C22   H28   S    
C181  O8    A    
C175  O3    A    
C91   C180  S    
C47   O35   A    
C9    C135  A    
C116  C125  A    
O37   Zn4   S    
C118  C127  A    
O20   Zn11  S    
O35   Zn12  S    
C117  C126  A    
C39   O27   A    
C132  C141  A    
C108  C117  A    
C110  C119  A    
C174  O10   A    
C153  H16   S    
C134  O22   A    
C37   H42   S    
C44   O32   A    
C28   C37   A    
C47   C138  S    
C148  C157  A    
C50   C65   A    
C51   C79   A    
C107  C116  A    
C41   O29   A    
C104  C113  A    
C9    C18   A    
C113  C121  A    
C51   C60   A    
C140  C149  A    
C31   C113  A    
C17   H22   S    
C25   C33   A    
O47   Zn11  S    
C129  C182  A    
C44   O43   A    
C73   C74   A    
O42   Zn2   S    
C41   O36   A    
C31   H37   S    
C107  C186  A    
C35   H52   S    
C65   C76   A    
O39   Zn3   S    
C171  C188  A    
C145  O24   A    
C134  O44   A    
C169  C186  A    
C42   O30   A    
C3    C172  A    
O48   Zn9   S    
C103  C111  A    
C102  H8    S    
C1    O18   A    
C65   C67   A    
C160  C169  A    
C3    C137  A    
C93   C99   A    
C33   H39   S    
C148  H10   S    
C81   C89   A    
C123  O21   A    
C8    C133  A    
C101  C157  S    
C44   C140  S    
C21   C164  A    
C64   H1    S    
C96   H44   S    
O19   Zn8   S    
C130  C139  A    
C167  O26   A    
O28   Zn4   S    
O12   Zn5   S    
C56   H51   S    
C33   C115  A    
C58   H50   S    
C11   Cl8   S    
C29   H35   S    
C53   C57   A    
C9    Cl6   S    
C132  C185  A    
C177  O14   A    
O29   Zn4   S    
O30   Zn3   S    
C10   C19   A    
C48   C102  A    
C46   C54   A    
C59   H49   S    
C27   C170  A    
C156  O25   A    
O34   Zn7   S    
C181  O17   A    
C17   C121  A    
C143  C152  A    
C15   C128  A    
C43   C141  S    
C107  C121  A    
O16   Zn10  S    
C177  O5    A    
C158  C166  A    
C115  C124  A    
C78   C178  A    
C106  C185  A    
C6    C131  A    
C123  O34   A    
C4    C129  A    
C27   C36   A    
C21   C30   A    
C13   C83   A    
O11   Zn6   S    
O4    Zn10  S    
C156  O46   A    
C153  C162  A    
C23   C32   A    
C11   C137  A    
C136  C144  A    
C110  C122  A    
O31   Zn12  S    
C39   C146  S    
C42   O37   A    
C164  C182  A    
O21   Zn10  S    
C176  O13   A    
O23   Zn6   S    
O18   Zn9   S    
C28   H33   S    
C94   C176  S    
C68   C80   A    
O1    Zn1   S    
C74   C178  A    
C103  C182  A    
C108  C187  A    
C19   H25   S    
C34   H40   S    
C149  H11   S    
C35   C81   A    
C95   C98   A    
C92   C98   A    
C83   C92   A    
C14   C125  A    
O41   Zn2   S    
C10   C136  A    
C5    Cl2   S    
C27   H32   S    
C66   C69   A    
C34   C116  A    
C101  O12   A    
C25   H30   S    
C159  C168  A    
C30   H36   S    
C144  C153  A    
C1    C155  S    
C6    C15   A    
C22   C165  A    
C26   C34   A    
C129  C138  A    
C26   C169  A    
C146  C154  A    
C13   C86   A    
C42   C142  S    
C52   C68   A    
C38   H43   S    
C156  C162  S    
O38   Zn4   S    
C16   C127  A    
C109  C188  A    
C167  O47   A    
C19   C124  A    
C45   O33   A    
C22   C31   A    
C37   C118  A    
C35   C55   A    
C150  H13   S    
C154  C163  A    
C174  O2    A    
C49   C58   A    
C89   C97   A    
C111  C120  A    
C6    Cl3   S    
C163  C167  S    
C163  C172  A    
C23   C166  A    
O45   Zn9   S    
C53   C62   A    
C28   C171  A    
C13   C76   A    
C138  C147  A    
C87   C96   A    
C5    C14   A    
C16   H21   S    
C133  C186  A    
C161  C170  A    
C40   C144  S    
C18   C120  A    
O9    Zn1   S    
C48   C56   A    
C7    C16   A    
C168  C185  A    
C105  C128  A    
O10   Zn5   S    
C4    Cl1   S    
C53   C73   A    
O25   Zn7   S    
C109  C124  A    
C55   C64   A    
C155  C164  A    
C98   H47   S    
C30   C111  A    
C83   C100  A    
C151  C160  A    
C24   C84   A    
C145  O45   A    
C10   Cl7   S    
C49   C100  A    
C71   C75   A    
C94   C99   A    
C14   H19   S    
O44   Zn8   S    
C29   C172  A    
C101  O19   A    
C2    C80   A    
C87   C179  S    
C114  C122  A    
C21   H27   S    
C20   H26   S    
C70   C72   A    
C32   C114  A    
O24   Zn1   S    
C57   H3    S    
C175  O11   A    
