data_mof_unit_5880.cif
_audit_creation_date              2012-12-10T17:45:35-0500
_audit_creation_method            fapswitch 2.2
_symmetry_space_group_name_H-M    P1
_symmetry_Int_Tables_number       1
_space_group_crystal_system       triclinic
_cell_length_a                    11.521603
_cell_length_b                    10.657203
_cell_length_c                    9.974587
_cell_angle_alpha                 89.898238
_cell_angle_beta                  89.518243
_cell_angle_gamma                 92.543292
_cell_volume                      1223.50770895

loop_
_atom_site_label
_atom_site_type_symbol
_atom_type_description
_atom_site_fract_x
_atom_site_fract_y
_atom_site_fract_z
_atom_type_partial_charge
C1    C     C_R   0.517011 0.262937 0.500603 0.979405
C2    C     C_R   0.506348 0.876602 0.498701 -0.166989
C3    C     C_R   0.307585 0.371573 0.130468 0.362178
C4    C     C_R   0.282227 0.500066 0.500518 0.939130
C5    C     C_R   0.210187 0.340499 0.052494 -0.232399
C6    C     C_R   0.221532 0.331442 0.915410 0.366961
C7    C     C_R   0.326476 0.366633 0.855851 -0.214974
C8    C     C_R   0.412647 0.434933 0.926830 0.037545
C9    C     C_R   0.409139 0.435530 0.071280 0.048700
C10   C     C_R   0.583374 0.563275 0.070350 -0.045396
C11   C     C_R   0.583094 0.563618 0.927884 -0.050881
C12   C     C_R   0.541964 0.057145 0.869626 0.389415
C13   C     C_R   0.498460 0.740936 0.499652 0.889811
C14   C     C_R   0.717799 0.500293 0.499531 0.908206
C15   C     C_1   0.161629 0.499085 0.501294 -0.104452
C16   C     C_1   0.059319 0.498442 0.500696 0.064852
C17   C     C_1   0.940568 0.498454 0.499403 0.053391
C18   C     C_1   0.838309 0.499156 0.498800 -0.117938
C19   C     C_R   0.583989 0.112711 0.747185 0.218620
C20   C     C_3   0.618259 0.208113 0.024185 0.134192
C21   C     C_3   0.746161 0.217294 0.066469 -0.258426
C22   C     C_3   0.790948 0.352463 0.085964 -0.898380
C23   C     C_R   0.460324 0.955259 0.860851 0.379464
C24   C     C_R   0.438814 0.896273 0.737966 -0.266382
C25   C     C_R   0.492144 0.944329 0.620022 -0.056426
C26   C     C_R   0.539588 0.065883 0.624673 -0.022837
C27   C     C_R   0.545393 0.132825 0.503626 -0.116910
C28   C     C_R   0.557712 0.069660 0.383571 -0.182739
C29   C     C_R   0.549455 0.940882 0.382296 0.436781
Cl1   Cl    Cl    0.108541 0.262378 0.819815 -0.545219
Cl2   Cl    Cl    0.712109 0.210854 0.735485 -0.597170
Cl3   Cl    Cl    0.392372 0.891237 0.005385 -0.475108
Cl4   Cl    Cl    0.600982 0.869993 0.234688 -0.523527
Cl5   Cl    Cl    0.301887 0.269405 0.268097 -0.571165
H1    H     H_    0.575673 0.120126 0.291690 0.193607
H2    H     H_    0.801033 0.172563 0.989762 0.293836
H3    H     H_    0.782494 0.406859 0.991773 0.285592
H4    H     H_    0.884117 0.353940 0.113803 0.277126
H5    H     H_    0.741851 0.396477 0.167947 0.265161
H6    H     H_    0.338644 0.338345 0.754532 0.233225
H7    H     H_    0.651474 0.615730 0.874113 0.158050
H8    H     H_    0.380796 0.813687 0.736295 0.216928
H9    H     H_    0.652264 0.614531 0.122544 0.184361
H10   H     H_    0.131287 0.300545 0.098647 0.212376
H11   H     H_    0.564010 0.238024 0.109461 0.156607
H12   H     H_    0.599212 0.275078 0.943213 0.154761
H13   H     H_    0.756158 0.164904 0.161814 0.224429
N1    N     N_R   0.498930 0.498800 0.142780 -0.110777
N2    N     N_R   0.498900 0.498720 0.857170 -0.104234
O1    O     O_R   0.500000 0.316780 0.614690 -0.629825
O2    O     O_R   0.499990 0.316750 0.385360 -0.586778
O3    O     O_R   0.334450 0.500030 0.614670 -0.634849
O4    O     O_R   0.334440 0.500000 0.385330 -0.572334
O5    O     O_R   0.500010 0.683250 0.614640 -0.626917
O6    O     O_R   0.500000 0.683220 0.385310 -0.547991
O7    O     O_R   0.665560 0.500000 0.614670 -0.584590
O8    O     O_R   0.665550 0.499970 0.385330 -0.647251
O9    O     O_3   0.588067 0.080972 0.996295 -0.570347
Zn1   Zn    Zn3+2 0.500010 0.500020 0.653130 0.980039
Zn2   Zn    Zn3+2 0.499990 0.499980 0.346870 1.018460

loop_
_geom_bond_atom_site_label_1
_geom_bond_atom_site_label_2
_ccdc_geom_bond_type
C14   O7    A    
C7    H6    S    
C14   O8    A    
C11   H7    S    
C6    C7    A    
C3    C9    A    
O3    Zn1   S    
C4    O4    A    
C24   H8    S    
C1    O1    A    
C14   C18   S    
C20   H11   S    
N2    Zn1   S    
O7    Zn1   S    
C23   C24   A    
C12   O9    S    
C23   Cl3   S    
C3    C5    A    
C4    C15   S    
C17   C18   T    
C25   C26   A    
C19   Cl2   S    
C7    C8    A    
C21   H2    S    
C21   C22   S    
C24   C25   A    
C1    O2    A    
C12   C23   A    
C26   C27   A    
C4    O3    A    
C2    C29   A    
C11   N2    A    
O1    Zn1   S    
C12   C19   A    
C28   C29   A    
C6    Cl1   S    
C5    H10   S    
N1    Zn2   S    
C2    C25   A    
O5    Zn1   S    
C10   N1    A    
C5    C6    A    
C10   C11   A    
C22   H5    S    
C20   O9    S    
C15   C16   T    
C22   H4    S    
C29   Cl4   S    
C20   C21   S    
C19   C26   A    
C9    N1    A    
C13   O5    A    
C27   C28   A    
C1    C27   S    
C2    C13   S    
C16   C17   S    
O8    Zn2   S    
O2    Zn2   S    
C3    Cl5   S    
C21   H13   S    
C10   H9    S    
O6    Zn2   S    
C22   H3    S    
C8    N2    A    
O4    Zn2   S    
C20   H12   S    
C28   H1    S    
C8    C9    A    
C13   O6    A    
