data_mof_unit_45459.cif
_audit_creation_date              2012-12-10T16:32:39-0500
_audit_creation_method            fapswitch 2.2
_symmetry_space_group_name_H-M    P1
_symmetry_Int_Tables_number       1
_space_group_crystal_system       triclinic
_cell_length_a                    16.947782
_cell_length_b                    16.929489
_cell_length_c                    16.942512
_cell_angle_alpha                 65.593672
_cell_angle_beta                  65.543745
_cell_angle_gamma                 65.58356
_cell_volume                      3853.54165993

loop_
_atom_site_label
_atom_site_type_symbol
_atom_type_description
_atom_site_fract_x
_atom_site_fract_y
_atom_site_fract_z
_atom_type_partial_charge
C1    C     C_R   0.590805 0.033803 0.590422 0.243908
C2    C     C_R   0.821711 0.564341 0.032938 0.917738
C3    C     C_R   0.435459 0.967547 0.178255 0.914983
C4    C     C_R   0.564542 0.032451 0.821745 0.913918
C5    C     C_R   0.564654 0.821749 0.032151 0.914608
C6    C     C_R   0.435603 0.178301 0.967266 0.914517
C7    C     C_R   0.032738 0.564426 0.821727 0.918947
C8    C     C_R   0.967249 0.435577 0.178277 0.917813
C9    C     C_R   0.821757 0.032616 0.564483 0.918228
C10   C     C_R   0.178242 0.967385 0.435516 0.918065
C11   C     C_R   0.544157 0.016263 0.544237 -0.092749
C12   C     C_R   0.409191 0.966212 0.409572 0.243813
C13   C     C_R   0.455840 0.983754 0.455755 -0.092582
C14   C     C_R   0.017781 0.542681 0.544544 -0.090857
C15   C     C_R   0.981936 0.457383 0.455565 -0.091153
C16   C     C_R   0.544647 0.543135 0.016819 -0.091039
C17   C     C_R   0.455890 0.456440 0.982532 -0.092795
C18   C     C_R   0.583329 0.938413 0.514095 0.266681
C19   C     C_R   0.416668 0.061606 0.485895 0.266231
C20   C     C_R   0.938709 0.514704 0.583386 0.263203
C21   C     C_R   0.061021 0.485329 0.416750 0.264484
C22   C     C_R   0.460191 0.531370 0.076771 0.266313
C23   C     C_R   0.035099 0.589693 0.590561 0.241227
C24   C     C_R   0.537955 0.472287 0.920185 0.266377
C25   C     C_R   0.537778 0.921036 0.471570 0.266435
C26   C     C_R   0.462219 0.078982 0.528422 0.266554
C27   C     C_R   0.418020 0.483490 0.062045 0.263878
C28   C     C_R   0.584752 0.511965 0.939515 0.263670
C29   C     C_R   0.922129 0.469403 0.539956 0.267053
C30   C     C_R   0.077592 0.530647 0.460163 0.267227
C31   C     C_R   0.549316 0.038002 0.679692 -0.123157
C32   C     C_R   0.450681 0.962008 0.320305 -0.123484
C33   C     C_R   0.038466 0.679311 0.549236 -0.119644
C34   C     C_R   0.964648 0.410369 0.409528 0.240548
C35   C     C_R   0.961330 0.320735 0.450832 -0.119985
C36   C     C_R   0.679807 0.548419 0.039474 -0.126129
C37   C     C_R   0.320034 0.450912 0.961849 -0.123844
C38   C     C_R   0.320040 0.961710 0.450955 -0.132119
C39   C     C_R   0.679956 0.038304 0.549040 -0.131926
C40   C     C_R   0.451179 0.320769 0.960592 -0.123155
C41   C     C_R   0.549749 0.679582 0.037310 -0.124362
C42   C     C_R   0.960615 0.451444 0.320260 -0.122022
C43   C     C_R   0.039200 0.548602 0.679801 -0.122284
C44   C     C_R   0.597251 0.046699 0.725569 -0.089002
C45   C     C_R   0.590923 0.589861 0.034252 0.241622
C46   C     C_R   0.402749 0.953303 0.274430 -0.089262
C47   C     C_R   0.046836 0.725441 0.597205 -0.087277
C48   C     C_R   0.953073 0.274573 0.402821 -0.087335
C49   C     C_R   0.725574 0.596928 0.047418 -0.089189
C50   C     C_R   0.274332 0.402728 0.953325 -0.090094
C51   C     C_R   0.274342 0.953168 0.402805 -0.088631
C52   C     C_R   0.725657 0.046838 0.597193 -0.088655
C53   C     C_R   0.403016 0.274598 0.952618 -0.088118
C54   C     C_R   0.597449 0.725550 0.046266 -0.087234
C55   C     C_R   0.952691 0.402987 0.274435 -0.089006
C56   C     C_R   0.409525 0.409961 0.965107 0.241715
C57   C     C_R   0.047232 0.597029 0.725585 -0.088931
C58   C     C_R   0.682132 0.057185 0.682135 -0.251837
C59   C     C_R   0.317868 0.942816 0.317865 -0.252082
C60   C     C_R   0.057341 0.682095 0.682084 -0.258578
C61   C     C_R   0.942621 0.317903 0.317918 -0.258639
C62   C     C_R   0.682133 0.682121 0.057189 -0.254755
C63   C     C_R   0.317930 0.317859 0.942670 -0.254659
C64   C     C_R   0.967579 0.178290 0.435463 0.914822
C65   C     C_R   0.032396 0.821712 0.564546 0.914883
C66   C     C_R   0.178244 0.435427 0.967580 0.918128
H1    H     H_    0.482185 0.029352 0.714503 0.166488
H2    H     H_    0.483008 0.714590 0.027803 0.167512
H3    H     H_    0.967810 0.519183 0.285661 0.173363
H4    H     H_    0.031985 0.480871 0.714412 0.172714
H5    H     H_    0.717950 0.064193 0.718040 0.187443
H6    H     H_    0.282052 0.935802 0.281962 0.187224
H7    H     H_    0.064064 0.718172 0.717971 0.185464
H8    H     H_    0.935980 0.281800 0.282001 0.185512
H9    H     H_    0.717927 0.718170 0.064074 0.186635
H10   H     H_    0.282024 0.281828 0.935926 0.186769
H11   H     H_    0.395884 0.207035 0.510674 0.357915
H12   H     H_    0.517812 0.970658 0.285493 0.166505
H13   H     H_    0.604115 0.792983 0.489318 0.357880
H14   H     H_    0.167150 0.580727 0.355121 0.346094
H15   H     H_    0.832651 0.419210 0.644996 0.345872
H16   H     H_    0.701356 0.473751 0.854028 0.348436
H17   H     H_    0.340293 0.453919 0.185988 0.356330
H18   H     H_    0.300297 0.148240 0.522120 0.346214
H19   H     H_    0.699701 0.851783 0.477864 0.346306
H20   H     H_    0.605610 0.490598 0.792435 0.356489
H21   H     H_    0.354703 0.581270 0.166128 0.346345
H22   H     H_    0.184188 0.456137 0.337327 0.357219
H23   H     H_    0.029465 0.714155 0.482271 0.167164
H24   H     H_    0.815578 0.543675 0.663000 0.360708
H25   H     H_    0.970296 0.285901 0.517812 0.167327
H26   H     H_    0.714263 0.480356 0.033142 0.171943
H27   H     H_    0.285302 0.518348 0.969847 0.171842
H28   H     H_    0.285457 0.968855 0.518688 0.169680
H29   H     H_    0.714538 0.031163 0.481306 0.169608
H30   H     H_    0.518509 0.286179 0.968673 0.166135
O1    O     O_R   0.982940 0.138950 0.510160 -0.632758
O2    O     O_R   0.982940 0.510160 0.138950 -0.627450
O3    O     O_R   0.861050 0.017060 0.489840 -0.633166
O4    O     O_R   0.138950 0.982940 0.510160 -0.633172
O5    O     O_R   0.867700 0.025880 0.612340 -0.629347
O6    O     O_R   0.132300 0.974120 0.387660 -0.629510
O7    O     O_R   0.025880 0.612340 0.867700 -0.633038
O8    O     O_R   0.974120 0.387660 0.132300 -0.633530
O9    O     O_R   0.612340 0.867700 0.025880 -0.628663
O10   O     O_R   0.387660 0.132300 0.974120 -0.628580
O11   O     O_R   0.387660 0.974120 0.132300 -0.628253
O12   O     O_R   0.017060 0.861050 0.489840 -0.632856
O13   O     O_R   0.612340 0.025880 0.867700 -0.628379
O14   O     O_R   0.132300 0.387660 0.974120 -0.632524
O15   O     O_R   0.867700 0.612340 0.025880 -0.632297
O16   O     O_R   0.974120 0.132300 0.387660 -0.631437
O17   O     O_R   0.025880 0.867700 0.612340 -0.631355
O18   O     O_3   0.430731 0.158127 0.551820 -0.758954
O19   O     O_3   0.569265 0.841890 0.448173 -0.759204
O20   O     O_3   0.151258 0.564021 0.421959 -0.756506
O21   O     O_3   0.848473 0.436017 0.578156 -0.757037
O22   O     O_3   0.668486 0.523003 0.883311 -0.748458
O23   O     O_R   0.138950 0.510160 0.982940 -0.628517
O24   O     O_3   0.341424 0.459940 0.124892 -0.747675
O25   O     O_3   0.334187 0.119312 0.472641 -0.756999
O26   O     O_3   0.665812 0.880708 0.527346 -0.755838
O27   O     O_3   0.569206 0.450311 0.840315 -0.757092
O28   O     O_3   0.421445 0.566080 0.149607 -0.756607
O29   O     O_3   0.122541 0.463576 0.338813 -0.746680
O30   O     O_3   0.877231 0.536388 0.661373 -0.747672
O31   O     O_R   0.861050 0.489840 0.017060 -0.628879
O32   O     O_R   0.510160 0.982940 0.138950 -0.635507
O33   O     O_R   0.489840 0.017060 0.861050 -0.635877
O34   O     O_R   0.489840 0.861050 0.017060 -0.635851
O35   O     O_R   0.510160 0.138950 0.982940 -0.635326
O36   O     O_R   0.017060 0.489840 0.861050 -0.627888
Zn1   Zn    Zn3+2 0.004880 0.004880 0.583590 0.969278
Zn2   Zn    Zn3+2 0.995120 0.995120 0.416410 0.968903
Zn3   Zn    Zn3+2 0.004880 0.583590 0.004880 0.976180
Zn4   Zn    Zn3+2 0.995120 0.416410 0.995120 0.974116
Zn5   Zn    Zn3+2 0.583590 0.004880 0.004880 0.969549
Zn6   Zn    Zn3+2 0.416410 0.995120 0.995120 0.968705

loop_
_geom_bond_atom_site_label_1
_geom_bond_atom_site_label_2
_ccdc_geom_bond_type
C16   C28   A    
C4    O13   A    
C11   C18   A    
H13   O19   S    
C46   C59   A    
C40   C56   A    
O14   Zn4   S    
C34   C42   A    
O1    Zn1   S    
C26   O18   S    
C5    O9    A    
C27   O24   S    
C31   H1    S    
C18   C25   A    
C40   H30   S    
H19   O26   S    
C25   O19   S    
H21   O28   S    
C58   H5    S    
O10   Zn6   S    
C63   H10   S    
C35   C48   A    
H15   O21   S    
C60   H7    S    
C1    C31   A    
C23   C43   A    
O13   Zn5   S    
C34   C35   A    
C19   C26   A    
C8    O2    A    
O7    Zn3   S    
C48   C64   S    
C47   C60   A    
C37   C56   A    
C19   O25   S    
O33   Zn6   S    
H14   O20   S    
C44   C58   A    
C23   C33   A    
C1    C11   S    
C15   C34   S    
C59   H6    S    
C2    O31   A    
C36   H26   S    
C39   C52   A    
C9    O3    A    
O17   Zn1   S    
C12   C32   A    
C50   C63   A    
H17   O24   S    
C13   C25   A    
C9    C52   S    
C32   C46   A    
C14   C30   A    
C10   C51   S    
C8    C55   S    
C15   C29   A    
C41   H2    S    
C20   C29   A    
C6    O10   A    
C2    O15   A    
C17   C24   A    
C31   C44   A    
C13   C19   A    
C17   C27   A    
C14   C20   A    
C5    C54   S    
C10   O6    A    
O31   Zn4   S    
C1    C39   A    
C3    O32   A    
C57   C60   A    
C30   O20   S    
C38   C51   A    
C4    C44   S    
C11   C26   A    
C3    O11   A    
H18   O25   S    
C29   O21   S    
O2    Zn3   S    
C42   H3    S    
O23   Zn3   S    
O3    Zn2   S    
C14   C23   S    
O32   Zn5   S    
O6    Zn2   S    
O12   Zn2   S    
H22   O29   S    
O35   Zn5   S    
C2    C49   S    
C33   H23   S    
C42   C55   A    
C8    O8    A    
O36   Zn4   S    
C38   H28   S    
H24   O30   S    
C37   H27   S    
C36   C45   A    
C65   O12   A    
C66   O14   A    
C10   O4    A    
C50   C66   S    
C17   C56   S    
C39   H29   S    
C7    O36   A    
C52   C58   A    
C18   O26   S    
C64   O1    A    
C32   H12   S    
C43   H4    S    
C66   O23   A    
C33   C47   A    
C62   H9    S    
C51   C59   A    
H16   O22   S    
C6    C53   S    
C21   O29   S    
H11   O18   S    
O34   Zn6   S    
O4    Zn1   S    
C5    O34   A    
C16   C22   A    
C49   C62   A    
O8    Zn4   S    
C65   O17   A    
C24   C28   A    
O16   Zn2   S    
C6    O35   A    
C16   C45   S    
C22   O28   S    
C4    O33   A    
O5    Zn1   S    
C61   H8    S    
C54   C62   A    
C21   C30   A    
C3    C46   S    
C22   C27   A    
O11   Zn6   S    
C28   O22   S    
C37   C50   A    
C53   C63   A    
O15   Zn3   S    
C48   C61   A    
C55   C61   A    
C7    C57   S    
C20   O30   S    
C24   O27   S    
C12   C38   A    
C41   C54   A    
C64   O16   A    
C43   C57   A    
O9    Zn5   S    
C15   C21   A    
C12   C13   S    
C9    O5    A    
C40   C53   A    
H20   O27   S    
C41   C45   A    
C7    O7    A    
C47   C65   S    
C36   C49   A    
C35   H25   S    
