data_mof_unit_19238.cif
_audit_creation_date              2012-12-10T17:33:42-0500
_audit_creation_method            fapswitch 2.2
_symmetry_space_group_name_H-M    P1
_symmetry_Int_Tables_number       1
_space_group_crystal_system       triclinic
_cell_length_a                    11.656673
_cell_length_b                    12.452726
_cell_length_c                    13.331044
_cell_angle_alpha                 117.661863
_cell_angle_beta                  75.646727
_cell_angle_gamma                 101.756584
_cell_volume                      1651.53510794

loop_
_atom_site_label
_atom_site_type_symbol
_atom_type_description
_atom_site_fract_x
_atom_site_fract_y
_atom_site_fract_z
_atom_type_partial_charge
C1    C     C_R   0.513611 0.855006 0.286733 0.806874
C2    C     C_R   0.455209 0.229782 0.835694 -0.241640
C3    C     C_R   0.626688 0.807072 0.091786 -0.248727
C4    C     C_R   0.654917 0.729515 0.975776 0.156559
C5    C     C_R   0.593877 0.612060 0.930462 0.207355
C6    C     C_R   0.511785 0.568516 0.005921 0.034243
C7    C     C_R   0.470307 0.655890 0.118772 0.053395
C8    C     C_R   0.464048 0.443988 0.973406 -0.042298
C9    C     C_R   0.358516 0.416047 0.042049 -0.032314
C10   C     C_R   0.308370 0.508656 0.144225 -0.174333
C11   C     C_R   0.365030 0.625825 0.183565 -0.163105
C12   C     C_R   0.715413 0.001473 0.501325 0.824386
C13   C     C_R   0.520318 0.345070 0.879351 0.409324
C14   C     C_R   0.350000 0.205059 0.901922 -0.314697
C15   C     C_R   0.532956 0.772994 0.163220 -0.123535
C16   C     C_R   0.722118 0.370361 0.373206 0.272839
C17   C     C_R   0.329394 0.750022 0.636531 0.372721
C18   C     C_R   0.295283 0.654482 0.667165 -0.298123
C19   C     C_R   0.362782 0.558869 0.620233 -0.134938
C20   C     C_R   0.466034 0.554492 0.538868 0.029773
C21   C     C_R   0.506087 0.658597 0.514493 0.156415
C22   C     C_R   0.535044 0.452602 0.486018 -0.201055
C23   C     C_R   0.483700 0.145553 0.713490 0.858481
C24   C     C_R   0.655429 0.470732 0.439140 -0.126114
C25   C     C_R   0.703157 0.587584 0.450265 0.233950
C26   C     C_R   0.627153 0.665093 0.457733 0.117763
C27   C     C_R   0.490868 0.334338 0.480196 0.538300
C28   C     C_R   0.678006 0.257897 0.377536 0.454249
C29   C     C_R   0.284314 0.999389 0.500207 0.810644
C30   C     C_1   0.837270 0.002605 0.502254 -0.160553
C31   C     C_1   0.939672 0.001337 0.502240 0.029097
C32   C     C_1   0.059266 0.998947 0.501551 0.020268
C33   C     C_1   0.162008 0.998209 0.500867 -0.137450
C34   C     C_R   0.304568 0.295274 0.007550 0.476426
Cu1   Cu    Cu3+1 0.526510 0.098270 0.475420 1.028216
Cu2   Cu    Cu3+1 0.473490 0.901730 0.524580 0.994470
H1    H     H_    0.300191 0.116931 0.870485 0.219421
H2    H     H_    0.336061 0.493497 0.655489 0.223891
H3    H     H_    0.215842 0.654862 0.730077 0.183658
H4    H     H_    0.226764 0.490290 0.196514 0.185661
H5    H     H_    0.677415 0.895591 0.125985 0.209916
H6    H     H_    0.322988 0.693642 0.263973 0.159998
N1    N     N_R   0.566700 0.246290 0.438210 -0.261663
N2    N     N_R   0.434010 0.754320 0.561170 -0.210358
O1    O     O_R   0.533340 0.972510 0.318140 -0.553310
O2    O     O_R   0.488570 0.806530 0.359650 -0.561228
O3    O     O_R   0.685190 0.083000 0.479260 -0.556916
O4    O     O_R   0.640410 0.917020 0.520770 -0.550350
O5    O     O_R   0.511430 0.193470 0.640350 -0.519403
O6    O     O_R   0.466660 0.027490 0.681860 -0.580697
O7    O     O_R   0.359590 0.082980 0.479230 -0.542932
O8    O     O_R   0.314810 0.917000 0.520740 -0.560299
I1    I     I_    0.888552 0.649543 0.452406 -0.245143
O9    O     O_3   0.823992 0.380037 0.297256 -0.566091
C35   C     C_3   0.794055 0.339299 0.187995 0.045578
H7    H     H_    0.723947 0.391025 0.192446 0.155914
H8    H     H_    0.762420 0.240285 0.151658 0.166898
C36   C     C_3   0.904277 0.358829 0.106855 -0.695144
H9    H     H_    0.975054 0.306739 0.099526 0.281236
H10   H     H_    0.882553 0.326515 0.020353 0.186847
H11   H     H_    0.937268 0.457206 0.139823 0.268507
O10   O     O_3   0.371695 0.305538 0.514152 -0.560472
C37   C     C_3   0.309965 0.278205 0.424699 0.059203
H12   H     H_    0.339176 0.342612 0.384469 0.115721
H13   H     H_    0.323459 0.184202 0.356609 0.160841
C38   C     C_3   0.177552 0.285998 0.473472 -0.791935
H14   H     H_    0.125751 0.246272 0.402539 0.186900
H15   H     H_    0.147111 0.235586 0.526935 0.262385
H16   H     H_    0.160090 0.382648 0.527978 0.250076
I2    I     I_    0.207154 0.883427 0.726692 -0.324154
I3    I     I_    0.687491 0.672487 0.296457 -0.381654
O11   O     O_3   0.198137 0.267479 0.068888 -0.591334
C39   C     C_3   0.221001 0.238326 0.152315 0.038300
H17   H     H_    0.148221 0.269311 0.227814 0.172212
H18   H     H_    0.305807 0.285537 0.184600 0.118051
C40   C     C_3   0.219595 0.100838 0.106107 -0.801016
H19   H     H_    0.297562 0.067833 0.036829 0.248766
H20   H     H_    0.223680 0.078318 0.176463 0.196805
H21   H     H_    0.136578 0.053649 0.071448 0.275619
O12   O     O_3   0.637647 0.360843 0.829130 -0.551395
C41   C     C_3   0.709742 0.304107 0.857293 0.053714
H22   H     H_    0.681161 0.204751 0.827351 0.132213
H23   H     H_    0.707289 0.347776 0.951991 0.144341
C42   C     C_3   0.837368 0.318413 0.797615 -0.727037
H24   H     H_    0.871248 0.416536 0.829514 0.261529
H25   H     H_    0.895021 0.270585 0.815201 0.197890
H26   H     H_    0.841261 0.278319 0.703130 0.247079
I4    I     I_    0.592820 0.530436 0.750504 -0.284454
I5    I     I_    0.791515 0.798736 0.875299 -0.296081
O13   O     O_3   0.734660 0.152860 0.305921 -0.564265
C43   C     C_3   0.854025 0.166176 0.320317 0.104789
H27   H     H_    0.860841 0.203711 0.412659 0.152460
H28   H     H_    0.913625 0.224988 0.283269 0.195359
C44   C     C_3   0.901518 0.041855 0.254297 -0.790516
H29   H     H_    0.909671 0.011025 0.160359 0.255138
H30   H     H_    0.990584 0.047854 0.273636 0.201023
H31   H     H_    0.840344 0.973187 0.277948 0.263043

loop_
_geom_bond_atom_site_label_1
_geom_bond_atom_site_label_2
_ccdc_geom_bond_type
C16   C28   A    
C38   H15   S    
C21   C26   A    
C37   H13   S    
C8    C13   A    
C39   H17   S    
Cu1   Cu2   S    
C40   H21   S    
C12   O4    A    
Cu1   O3    S    
C41   H22   S    
Cu2   O6    S    
C7    C11   A    
C40   H20   S    
C19   H2    S    
C42   H25   S    
C30   C31   T    
C1    O2    A    
C23   O5    A    
C38   H16   S    
C36   H10   S    
C29   C33   S    
C11   H6    S    
C10   H4    S    
C18   C19   A    
C2    C13   A    
C5    I4    S    
C19   C20   A    
C8    C9    A    
Cu1   O5    S    
C42   H26   S    
C24   C25   A    
Cu2   O2    S    
C1    C15   S    
Cu1   N1    S    
C9    C10   A    
Cu2   O8    S    
C36   H11   S    
C7    C15   A    
C38   H14   S    
C37   C38   S    
C17   I2    S    
C16   C24   A    
C26   I3    S    
C39   H18   S    
C12   O3    A    
C41   H23   S    
C42   H24   S    
C43   H27   S    
O11   C39   S    
C23   O6    A    
C6    C8    A    
C44   H31   S    
C25   C26   A    
C18   H3    S    
O10   C37   S    
C27   O10   S    
C43   H28   S    
C21   N2    A    
C31   C32   S    
C35   H7    S    
C17   C18   A    
C40   H19   S    
C44   H30   S    
C20   C22   A    
C22   C27   A    
C35   H8    S    
Cu1   O7    S    
C9    C34   A    
C39   C40   S    
C22   C24   A    
Cu2   N2    S    
C3    C4    A    
Cu1   O1    S    
C34   O11   S    
C41   C42   S    
C3    C15   A    
C4    I5    S    
C29   O7    A    
O9    C35   S    
C3    H5    S    
C12   C30   S    
C25   I1    S    
O12   C41   S    
C14   C34   A    
C6    C7    A    
C28   N1    A    
C32   C33   T    
C36   H9    S    
C17   N2    A    
C14   H1    S    
C1    O1    A    
O13   C43   S    
C5    C6    A    
Cu2   O4    S    
C44   H29   S    
C2    C14   A    
C16   O9    S    
C13   O12   S    
C10   C11   A    
C37   H12   S    
C27   N1    A    
C4    C5    A    
C20   C21   A    
C35   C36   S    
C2    C23   S    
C28   O13   S    
C43   C44   S    
C29   O8    A    
