data_mof_unit_11819.cif
_audit_creation_date              2012-12-10T18:11:54-0500
_audit_creation_method            fapswitch 2.2
_symmetry_space_group_name_H-M    P1
_symmetry_Int_Tables_number       1
_space_group_crystal_system       triclinic
_cell_length_a                    15.814126
_cell_length_b                    10.873066
_cell_length_c                    9.619637
_cell_angle_alpha                 89.620438
_cell_angle_beta                  89.66634
_cell_angle_gamma                 90.499461
_cell_volume                      1653.94993886

loop_
_atom_site_label
_atom_site_type_symbol
_atom_type_description
_atom_site_fract_x
_atom_site_fract_y
_atom_site_fract_z
_atom_type_partial_charge
C1    C     C_R   0.499669 0.260751 0.500437 0.956338
C2    C     C_3   0.083440 0.487451 0.502567 -0.123937
C3    C     C_3   0.972027 0.560235 0.602932 0.583721
C4    C     C_3   0.916578 0.490348 0.498179 -0.122375
C5    C     C_3   0.029130 0.602317 0.481824 0.433525
C6    C     C_3   0.973503 0.533494 0.375045 -0.443680
C7    C     C_1   0.175126 0.488190 0.502191 0.076318
C8    C     C_1   0.824885 0.492019 0.498416 0.087401
C9    C     C_3   0.492157 0.072471 0.656125 0.876202
C10   C     C_3   0.472001 0.930474 0.655087 0.187704
C11   C     C_3   0.415320 0.080048 0.421660 0.134390
C12   C     C_R   0.340516 0.493699 0.500447 0.742721
C13   C     C_3   0.574806 0.069201 0.426046 0.769724
C14   C     C_3   0.495674 0.122796 0.501842 -0.324887
C15   C     C_3   0.486510 0.879776 0.503801 -0.343417
C16   C     C_3   0.412335 0.934911 0.408619 0.793169
C17   C     C_3   0.574976 0.928426 0.453438 0.193522
C18   C     C_3   0.559701 0.603544 0.082770 0.788721
C19   C     C_3   0.549973 0.608129 0.914054 0.302149
C20   C     C_3   0.533396 0.382893 0.081424 0.269266
C21   C     C_3   0.415539 0.517838 0.084173 0.413786
C22   C     C_3   0.536542 0.387503 0.916100 0.326817
C23   C     C_R   0.493042 0.739768 0.500683 0.855290
C24   C     C_3   0.413326 0.507993 0.918521 0.188193
C25   C     C_R   0.659592 0.498121 0.499687 0.825031
C26   C     C_3   0.970855 0.375444 0.518930 0.438766
C27   C     C_3   0.028031 0.417572 0.397763 0.579882
C28   C     C_1   0.250748 0.490038 0.501491 -0.191950
C29   C     C_1   0.749277 0.494449 0.498876 -0.157756
C30   C     C_3   0.026539 0.444330 0.625716 -0.441249
Cu1   Cu    Cu3+1 0.500040 0.499860 0.642410 1.084945
Cu2   Cu    Cu3+1 0.499960 0.500140 0.357590 1.058849
H1    H     H_    0.593890 0.881475 0.357952 0.141152
H2    H     H_    0.420186 0.120861 0.315309 0.187712
H3    H     H_    0.507432 0.686023 0.896181 0.150000
H4    H     H_    0.597246 0.361704 0.122330 0.214572
H5    H     H_    0.372132 0.445842 0.126921 0.133429
H6    H     H_    0.380494 0.419530 0.892359 0.090093
H7    H     H_    0.950922 0.568855 0.273439 0.192025
H8    H     H_    0.498617 0.308426 0.877981 0.207156
H9    H     H_    0.049102 0.408957 0.727324 0.195054
H10   H     H_    0.514967 0.881710 0.727746 0.139453
N1    N     N_3   0.501840 0.500250 0.143650 -0.283771
N2    N     N_3   0.501160 0.503300 0.856280 -0.278539
O1    O     O_R   0.500050 0.317570 0.620260 -0.517196
O2    O     O_R   0.499980 0.317810 0.379740 -0.534445
O3    O     O_R   0.379110 0.499870 0.620240 -0.546271
O4    O     O_R   0.379040 0.500110 0.379720 -0.573427
O5    O     O_R   0.500020 0.682190 0.620260 -0.529960
O6    O     O_R   0.499950 0.682430 0.379740 -0.503461
O7    O     O_R   0.620960 0.499890 0.620280 -0.475248
O8    O     O_R   0.620890 0.500130 0.379760 -0.577522
F1    F     F_    0.058630 0.342942 0.293424 -0.659791
O9    O     O_3   0.385827 0.908977 0.691142 -0.493606
C31   C     C_3   0.372102 0.899200 0.834596 -0.177027
H11   H     H_    0.303669 0.882744 0.853095 0.187927
H12   H     H_    0.389266 0.984717 0.888750 0.168864
H13   H     H_    0.406151 0.820648 0.878021 0.174892
O10   O     O_3   0.342707 0.123854 0.494232 -0.484975
C32   C     C_3   0.286573 0.185596 0.404770 -0.182750
H14   H     H_    0.258793 0.121912 0.327848 0.158620
H15   H     H_    0.318121 0.264419 0.351015 0.147381
H16   H     H_    0.233712 0.222199 0.467906 0.186664
O11   O     O_3   0.329015 0.898940 0.453495 -0.521400
C33   C     C_3   0.309547 0.773529 0.440832 -0.189370
H17   H     H_    0.324020 0.727343 0.540519 0.176305
H18   H     H_    0.341094 0.729115 0.351731 0.232616
H19   H     H_    0.240497 0.763988 0.424257 0.204660
F2    F     F_    0.567446 0.091141 0.283521 -0.709997
O12   O     O_3   0.649823 0.125777 0.477836 -0.523201
C34   C     C_3   0.718556 0.113981 0.384534 -0.063094
H20   H     H_    0.711589 0.178276 0.295097 0.169939
H21   H     H_    0.725939 0.018013 0.347253 0.139053
H22   H     H_    0.777486 0.139842 0.439484 0.195551
F3    F     F_    0.636009 0.898405 0.551064 -0.644743
O13   O     O_3   0.427615 0.899662 0.268544 -0.568061
C35   C     C_3   0.362274 0.933911 0.176353 -0.286278
H23   H     H_    0.299443 0.948361 0.224441 0.174681
H24   H     H_    0.352967 0.858051 0.102382 0.227693
H25   H     H_    0.381320 0.018468 0.118984 0.168480
O14   O     O_3   0.645323 0.575342 0.120191 -0.640628
C36   C     C_3   0.691299 0.664500 0.197506 -0.205206
H26   H     H_    0.715475 0.741202 0.132547 0.117518
H27   H     H_    0.748340 0.619589 0.239908 0.165909
H28   H     H_    0.655268 0.701054 0.286794 0.205756
O15   O     O_3   0.933792 0.257639 0.534506 -0.559165
C37   C     C_3   0.997065 0.171458 0.565266 -0.234157
H29   H     H_    0.026419 0.190441 0.667713 0.166489
H30   H     H_    0.046233 0.168640 0.482240 0.187296
H31   H     H_    0.967319 0.078831 0.571825 0.180986
O16   O     O_3   0.533581 0.719361 0.138813 -0.498534
C38   C     C_3   0.564765 0.826213 0.068775 -0.307520
H32   H     H_    0.590121 0.893394 0.142481 0.213185
H33   H     H_    0.512016 0.871895 0.015920 0.166808
H34   H     H_    0.616384 0.809676 0.993907 0.140486
O17   O     O_3   0.618540 0.646036 0.825326 -0.560234
C39   C     C_3   0.701640 0.610884 0.859514 -0.014163
H35   H     H_    0.707266 0.520875 0.911401 0.228814
H36   H     H_    0.733283 0.684479 0.918558 0.128721
H37   H     H_    0.738867 0.604759 0.762100 0.182678
F4    F     F_    0.617079 0.366442 0.866688 -0.652897
F5    F     F_    0.383091 0.629122 0.127236 -0.641403
O18   O     O_3   0.367476 0.607243 0.860188 -0.532795
C40   C     C_3   0.279144 0.586543 0.871041 -0.210913
H38   H     H_    0.257996 0.579474 0.981119 0.187281
H39   H     H_    0.259189 0.502825 0.813697 0.157970
H40   H     H_    0.246202 0.665709 0.823105 0.182866
F6    F     F_    0.481534 0.285090 0.120902 -0.681106
O19   O     O_3   0.066166 0.720191 0.466703 -0.562599
C41   C     C_3   0.003253 0.805912 0.432588 -0.245130
H41   H     H_    0.952273 0.807983 0.512612 0.198768
H42   H     H_    0.976338 0.786984 0.328373 0.152420
H43   H     H_    0.032695 0.898806 0.428120 0.180694
F7    F     F_    0.941513 0.635014 0.707207 -0.658746
F8    F     F_    0.428742 0.134150 0.727727 -0.647803
O20   O     O_3   0.572254 0.100463 0.716001 -0.536682
C42   C     C_3   0.578008 0.072509 0.858567 -0.160215
H44   H     H_    0.609069 0.982712 0.869354 0.141301
H45   H     H_    0.517053 0.075465 0.915846 0.165028
H46   H     H_    0.621035 0.140012 0.907793 0.241903

loop_
_geom_bond_atom_site_label_1
_geom_bond_atom_site_label_2
_ccdc_geom_bond_type
C31   H11   S    
C10   H10   S    
C2    C7    S    
C4    C8    S    
C39   H37   S    
C40   H39   S    
C39   H35   S    
C35   H23   S    
C26   C27   S    
C22   F4    S    
C5    O19   S    
C12   C28   S    
C32   H16   S    
C18   O16   S    
C10   C15   S    
C42   H45   S    
C5    C6    S    
C11   C14   S    
C1    O2    A    
C23   O5    A    
C13   O12   S    
C15   C16   S    
C18   O14   S    
O20   C42   S    
C32   H15   S    
C18   C19   S    
C41   H41   S    
Cu2   O8    S    
C21   N1    S    
C22   N2    S    
C6    C27   S    
C33   H18   S    
C24   H6    S    
C30   H9    S    
O12   C34   S    
C9    C10   S    
C12   O4    A    
C15   C23   S    
O10   C32   S    
Cu1   O3    S    
C13   C14   S    
Cu2   O4    S    
C17   H1    S    
Cu1   O5    S    
C12   O3    A    
C11   O10   S    
C40   H38   S    
C39   H36   S    
O14   C36   S    
C35   H24   S    
C25   C29   S    
Cu1   N2    S    
C9    F8    S    
O13   C35   S    
C4    C6    S    
C42   H46   S    
O16   C38   S    
C34   H21   S    
O15   C37   S    
C23   O6    A    
C36   H26   S    
C38   H34   S    
C7    C28   T    
C32   H14   S    
C3    C30   S    
C9    C14   S    
C25   O7    A    
C11   C16   S    
Cu1   Cu2   S    
C26   O15   S    
C33   H19   S    
C22   H8    S    
O17   C39   S    
C38   H33   S    
C41   H43   S    
Cu2   O6    S    
C2    C27   S    
C21   F5    S    
C20   C22   S    
C26   C30   S    
C36   H27   S    
C31   H12   S    
C24   N2    S    
C37   H31   S    
C2    C5    S    
C8    C29   T    
C3    C4    S    
C20   N1    S    
C19   N2    S    
C35   H25   S    
C15   C17   S    
O9    C31   S    
C16   O13   S    
C9    O20   S    
Cu2   O2    S    
C11   H2    S    
Cu1   O7    S    
C3    C5    S    
C3    F7    S    
C34   H22   S    
C4    C26   S    
C27   F1    S    
C36   H28   S    
C13   C17   S    
C2    C30   S    
C24   O18   S    
O11   C33   S    
C37   H30   S    
C25   O8    A    
C34   H20   S    
C19   H3    S    
C42   H44   S    
C1    O1    A    
C31   H13   S    
C13   F2    S    
C38   H32   S    
Cu2   N1    S    
C10   O9    S    
C41   H42   S    
C20   H4    S    
C21   H5    S    
C37   H29   S    
C33   H17   S    
Cu1   O1    S    
C21   C24   S    
C18   N1    S    
O18   C40   S    
C17   F3    S    
C6    H7    S    
C1    C14   S    
C16   O11   S    
O19   C41   S    
C40   H40   S    
C19   O17   S    
C20   F6    S    
