data_mof_unit_45591.cif
_audit_creation_date              2012-12-11T16:25:36-0500
_audit_creation_method            fapswitch 2.2
_symmetry_space_group_name_H-M    P1
_symmetry_Int_Tables_number       1
_space_group_crystal_system       triclinic
_cell_length_a                    20.279254
_cell_length_b                    7.276196
_cell_length_c                    13.355828
_cell_angle_alpha                 90.347322
_cell_angle_beta                  103.227047
_cell_angle_gamma                 91.115884
_cell_volume                      1917.97290712

loop_
_atom_site_label
_atom_site_type_symbol
_atom_type_description
_atom_site_fract_x
_atom_site_fract_y
_atom_site_fract_z
_atom_type_partial_charge
O1    O     O_R   0.449520 0.506760 0.599710 -0.535804
O2    O     O_R   0.550480 0.006760 0.400290 -0.533602
O3    O     O_R   0.587930 0.180200 0.595790 -0.541586
O4    O     O_R   0.412070 0.680200 0.404210 -0.544730
C1    C     C_R   0.613969 0.346435 0.618489 0.688672
C2    C     C_R   0.386026 0.842373 0.381286 0.687997
O5    O     O_R   0.452350 0.177380 0.611700 -0.537596
O6    O     O_R   0.547650 0.677380 0.388300 -0.539815
O7    O     O_R   0.413930 0.001760 0.416320 -0.535505
O8    O     O_R   0.586070 0.501760 0.583680 -0.538645
C3    C     C_R   0.436342 0.344748 0.637989 0.682612
C4    C     C_R   0.563652 0.846101 0.361984 0.682357
O9    O     O_3   0.487550 0.337460 0.435880 -0.377033
O10   O     O_3   0.512450 0.837460 0.564120 -0.376995
V1    V     V_3+5 0.502310 0.064670 0.511900 1.398297
V2    V     V_3+5 0.497690 0.564670 0.488100 1.390688
C5    C     C_R   0.608789 0.893628 0.106046 -0.173388
C6    C     C_R   0.390996 0.308297 0.894119 -0.174910
H1    H     H_    0.516436 0.893955 0.158054 0.096698
H2    H     H_    0.483010 0.296583 0.841732 0.097765
H3    H     H_    0.581069 0.914832 0.027817 0.109137
H4    H     H_    0.418442 0.283352 0.972079 0.109321
C7    C     C_R   0.603076 0.856402 0.283078 -0.026591
C8    C     C_R   0.397248 0.348207 0.717456 -0.028189
C9    C     C_R   0.928417 0.818421 0.317103 -0.112424
C10   C     C_R   0.072234 0.400404 0.682584 -0.109518
C11   C     C_R   0.892186 0.801457 0.393046 -0.125888
C12   C     C_R   0.108453 0.409065 0.606335 -0.126286
C13   C     C_R   0.822040 0.816399 0.368758 -0.153910
C14   C     C_R   0.178462 0.391211 0.630954 -0.153812
C15   C     C_R   0.785780 0.846789 0.266190 0.064630
C16   C     C_R   0.214600 0.365753 0.734090 0.064435
C17   C     C_R   0.823395 0.865119 0.188949 0.008647
C18   C     C_R   0.176873 0.352516 0.811490 0.006972
C19   C     C_R   0.713675 0.857433 0.237981 0.045782
C20   C     C_R   0.286670 0.353970 0.762534 0.046374
C21   C     C_R   0.680200 0.880249 0.132426 0.087057
C22   C     C_R   0.319837 0.327889 0.867931 0.087374
C23   C     C_R   0.718258 0.888898 0.055521 0.077297
C24   C     C_R   0.281748 0.321483 0.944852 0.077710
C25   C     C_R   0.789161 0.887102 0.085942 -0.203525
C26   C     C_R   0.210945 0.330574 0.914636 -0.204190
C27   C     C_R   0.673452 0.845316 0.311718 -0.203949
C28   C     C_R   0.327152 0.367235 0.689122 -0.204037
C29   C     C_R   0.570954 0.882181 0.180570 -0.175842
C30   C     C_R   0.428852 0.316270 0.819571 -0.174212
C31   C     C_R   0.895139 0.854824 0.215709 -0.060755
C32   C     C_R   0.105251 0.367698 0.784591 -0.057595
H5    H     H_    0.694911 0.829241 0.392616 0.101209
H6    H     H_    0.306041 0.388420 0.608557 0.101680
H7    H     H_    0.982662 0.800627 0.337568 0.152590
H8    H     H_    0.018137 0.421263 0.661837 0.150226
H9    H     H_    0.798070 0.799820 0.432234 0.126182
H10   H     H_    0.202373 0.399937 0.567034 0.127584
H11   H     H_    0.918637 0.774639 0.471493 0.144946
H12   H     H_    0.082124 0.431992 0.527380 0.148287
H13   H     H_    0.818561 0.900132 0.028521 0.111384
H14   H     H_    0.181513 0.321663 0.972193 0.111968
H15   H     H_    0.117310 0.989451 0.498574 0.163976
H16   H     H_    0.885734 0.215011 0.507472 0.163521
C33   C     C_R   0.229049 0.822280 0.036498 -0.158756
C34   C     C_R   0.769620 0.389763 0.963918 -0.157854
C35   C     C_R   0.284041 0.799630 0.991648 -0.085348
C36   C     C_R   0.714074 0.408015 0.008013 -0.082595
C37   C     C_R   0.349243 0.792094 0.052905 -0.151209
C38   C     C_R   0.648902 0.409286 0.946142 -0.152848
C39   C     C_R   0.359876 0.806287 0.159506 -0.174890
C40   C     C_R   0.638835 0.393109 0.839666 -0.174921
C41   C     C_R   0.305063 0.829404 0.207219 0.081281
C42   C     C_R   0.694197 0.373867 0.792764 0.081856
C43   C     C_R   0.238163 0.837824 0.144772 0.037558
C44   C     C_R   0.761038 0.371869 0.855894 0.035928
C45   C     C_R   0.316183 0.844024 0.315410 -0.171805
C46   C     C_R   0.683741 0.358011 0.684662 -0.171729
C47   C     C_R   0.260724 0.867744 0.361530 0.035474
C48   C     C_R   0.739822 0.336486 0.639562 0.035279
C49   C     C_R   0.194299 0.896715 0.299667 0.011092
C50   C     C_R   0.806335 0.314278 0.702540 0.010733
C51   C     C_R   0.182259 0.868232 0.190278 -0.175542
C52   C     C_R   0.817556 0.346496 0.811242 -0.174239
C53   C     C_R   0.271065 0.865310 0.470026 -0.149555
C54   C     C_R   0.730057 0.332402 0.531172 -0.151757
C55   C     C_R   0.218663 0.900025 0.517797 -0.196328
C56   C     C_R   0.783262 0.297712 0.484954 -0.195825
C57   C     C_R   0.156037 0.948348 0.459450 -0.135019
C58   C     C_R   0.846242 0.256182 0.545026 -0.135591
C59   C     C_R   0.143810 0.953638 0.352167 0.328177
C60   C     C_R   0.857894 0.257806 0.652309 0.327487
H17   H     H_    0.179572 0.829795 0.984986 0.109766
H18   H     H_    0.819158 0.387780 0.015689 0.105967
H19   H     H_    0.275999 0.788299 0.908847 0.122548
H20   H     H_    0.721667 0.421170 0.090678 0.122343
H21   H     H_    0.391807 0.774367 0.017710 0.117415
H22   H     H_    0.605926 0.423949 0.980745 0.117477
H23   H     H_    0.411417 0.798419 0.204148 0.089624
H24   H     H_    0.587333 0.396810 0.794433 0.088453
H25   H     H_    0.319848 0.835776 0.519415 0.124665
H26   H     H_    0.681088 0.356065 0.480750 0.125237
H27   H     H_    0.227584 0.897968 0.600887 0.145051
H28   H     H_    0.774768 0.294358 0.401901 0.145626
O11   O     O_R   0.913760 0.203480 0.916370 -0.513774
O12   O     O_R   0.086240 0.703480 0.083630 -0.545435
O13   O     O_R   0.047590 0.535230 0.888250 -0.548514
O14   O     O_R   0.952410 0.035230 0.111750 -0.511816
C61   C     C_R   0.064572 0.369627 0.862764 0.728790
C62   C     C_R   0.935894 0.867428 0.137834 0.726860
O15   O     O_R   0.912020 0.532880 0.904260 -0.546328
O16   O     O_R   0.087980 0.032880 0.095740 -0.514478
O17   O     O_R   0.949590 0.708460 0.099750 -0.549175
O18   O     O_R   0.050410 0.208460 0.900250 -0.512970
C63   C     C_R   0.887034 0.362039 0.879336 0.753090
C64   C     C_R   0.112763 0.866964 0.121650 0.748226
O19   O     O_3   0.012370 0.375360 0.064120 -0.367635
O20   O     O_3   0.987630 0.875360 0.935880 -0.359387
V3    V     V_3+5 0.997700 0.648160 0.988110 1.473540
V4    V     V_3+5 0.002300 0.148160 0.011890 1.563974
Cl1   Cl    Cl    0.070298 0.071076 0.295386 -0.714189
Cl2   Cl    Cl    0.932397 0.148697 0.713759 -0.709945
C65   C     C_3   0.682488 0.896980 0.941623 -0.361621
C66   C     C_3   0.727555 0.877548 0.863918 -0.314626
C67   C     C_3   0.685065 0.868421 0.753957 -0.690227
H29   H     H_    0.651616 0.744129 0.742137 0.230331
H30   H     H_    0.653034 0.990802 0.738470 0.236341
H31   H     H_    0.718683 0.864209 0.699029 0.217554
H32   H     H_    0.763141 0.996945 0.870889 0.207570
H33   H     H_    0.757388 0.750567 0.878891 0.212071
H34   H     H_    0.643911 0.783922 0.925072 0.184357
H35   H     H_    0.655473 0.028633 0.927524 0.185258
C68   C     C_3   0.317535 0.307682 0.058554 -0.361397
C69   C     C_3   0.272997 0.327724 0.136904 -0.315145
C70   C     C_3   0.315832 0.329679 0.246793 -0.687660
H36   H     H_    0.346345 0.204050 0.261302 0.230862
H37   H     H_    0.350813 0.450736 0.259411 0.233723
H38   H     H_    0.282485 0.336276 0.302038 0.217556
H39   H     H_    0.244881 0.457817 0.124059 0.211827
H40   H     H_    0.235877 0.211671 0.128272 0.207064
H41   H     H_    0.343043 0.173617 0.070868 0.186443
H42   H     H_    0.357349 0.417503 0.076294 0.182615

loop_
_geom_bond_atom_site_label_1
_geom_bond_atom_site_label_2
_ccdc_geom_bond_type
C38   C40   A    
C24   C68   S    
C35   C37   A    
C7    C29   A    
C11   C13   A    
C45   C47   A    
O12   C64   A    
C69   H39   S    
O1    C3    A    
C61   O18   A    
C70   H38   S    
O2    C4    A    
C26   H14   S    
C2    O7    A    
O14   C62   A    
O20   V3    S    
C12   H12   S    
C23   C25   A    
O5    C3    A    
C14   H10   S    
C4    C7    S    
C40   H24   S    
C46   C48   A    
C51   C64   S    
C16   C20   A    
C19   C21   A    
C48   C50   A    
C59   Cl1   S    
C58   C60   A    
C50   C60   A    
C3    C8    S    
C7    C27   A    
C33   C35   A    
C1    C46   S    
C41   C43   A    
C67   H31   S    
C34   C36   A    
O12   V3    S    
O14   V4    S    
C68   H42   S    
C12   C14   A    
C37   C39   A    
C18   C26   A    
C42   C46   A    
C15   C17   A    
C41   C45   A    
C19   C27   A    
C9    C31   A    
C10   C32   A    
C38   H22   S    
O19   V4    S    
C65   H35   S    
C33   C43   A    
O5    V1    S    
O6    V2    S    
C22   C24   A    
C55   H27   S    
C39   H23   S    
C54   H26   S    
C13   C15   A    
C6    C30   A    
C43   C51   A    
C53   C55   A    
C33   H17   S    
C49   C51   A    
C5    C29   A    
C57   C59   A    
C56   H28   S    
O4    C2    A    
C48   C54   A    
H16   C58   S    
C66   H32   S    
C27   H5    S    
O3    C1    A    
C5    H3    S    
O16   C64   A    
C39   C41   A    
C36   C38   A    
O4    V2    S    
O13   V3    S    
C9    H7    S    
C10   H8    S    
C32   C61   S    
O6    C4    A    
C31   C62   S    
C34   C44   A    
O13   C61   A    
O1    V2    S    
C5    C21   A    
O2    V1    S    
C47   C49   A    
O15   V3    S    
C67   H29   S    
C66   H33   S    
C40   C42   A    
C55   C57   A    
C54   C56   A    
C9    C11   A    
C8    C28   A    
C15   C19   A    
C20   C28   A    
C18   C32   A    
C36   H20   S    
C60   Cl2   S    
C70   H36   S    
C23   C65   S    
O18   V4    S    
O3    V1    S    
C66   C67   S    
C2    C45   S    
C68   C69   S    
C28   H6    S    
C6    H4    S    
O15   C63   A    
C69   H40   S    
C56   C58   A    
C70   H37   S    
C65   C66   S    
H1    C29   S    
C47   C53   A    
O11   C63   A    
C11   H11   S    
C10   C12   A    
C17   C25   A    
O16   V4    S    
C20   C22   A    
C69   C70   S    
C6    C22   A    
C8    C30   A    
C1    O8    A    
C21   C23   A    
O8    V2    S    
C14   C16   A    
C13   H9    S    
C17   C31   A    
C34   H18   S    
C52   C63   S    
C24   C26   A    
C37   H21   S    
C53   H25   S    
C50   C52   A    
O7    V1    S    
C67   H30   S    
O17   V3    S    
C25   H13   S    
C68   H41   S    
C49   C59   A    
C44   C52   A    
O9    V2    S    
C35   H19   S    
O11   V4    S    
O10   V1    S    
C42   C44   A    
H15   C57   S    
H2    C30   S    
C16   C18   A    
C62   O17   A    
C65   H34   S    
