data_mof_unit_14019.cif
_audit_creation_date              2012-12-11T14:33:08-0500
_audit_creation_method            fapswitch 2.2
_symmetry_space_group_name_H-M    P1
_symmetry_Int_Tables_number       1
_space_group_crystal_system       triclinic
_cell_length_a                    6.963355
_cell_length_b                    14.224333
_cell_length_c                    17.90001
_cell_angle_alpha                 113.223836
_cell_angle_beta                  95.564567
_cell_angle_gamma                 90.321862
_cell_volume                      1619.77430206

loop_
_atom_site_label
_atom_site_type_symbol
_atom_type_description
_atom_site_fract_x
_atom_site_fract_y
_atom_site_fract_z
_atom_type_partial_charge
O1    O     O_R   0.484560 0.544530 0.414330 -0.523063
O2    O     O_R   0.197040 0.638810 0.585080 -0.524242
O3    O     O_R   0.026800 0.455470 0.585670 -0.505764
C1    C     C_R   0.373877 0.683895 0.600771 0.726596
O4    O     O_R   0.155000 0.556150 0.414940 -0.536372
O5    O     O_R   0.984450 0.372220 0.414320 -0.521571
C2    C     C_R   0.318117 0.562025 0.385068 0.812869
O6    O     O_R   0.526900 0.627780 0.585680 -0.497756
O7    O     O_3   0.339170 0.439750 0.499990 -0.350760
V1    V     V_3+5 0.064350 0.511180 0.500000 1.590507
O8    O     O_R   0.654880 0.361190 0.414920 -0.539401
C3    C     C_R   0.817182 0.326308 0.384652 0.816951
O9    O     O_R   0.696930 0.443850 0.585060 -0.507329
C4    C     C_R   0.873369 0.423542 0.607806 0.784498
V2    V     V_3+5 0.564340 0.488820 0.500000 1.621517
O10   O     O_3   0.839390 0.560250 0.500010 -0.389557
C5    C     C_R   0.039974 0.856433 0.818134 -0.128810
C6    C     C_R   0.905594 0.379446 0.674383 -0.191946
C7    C     C_R   0.920114 0.816058 0.675845 -0.162085
C8    C     C_R   0.977348 0.785232 0.739122 -0.154229
C9    C     C_R   0.045853 0.960321 0.830589 -0.125809
C10   C     C_R   0.963211 0.995081 0.770232 0.112000
C11   C     C_R   0.910426 0.919895 0.690675 0.133608
C12   C     C_R   0.940625 0.100928 0.784207 -0.099019
C13   C     C_R   0.900044 0.129044 0.714103 0.065958
C14   C     C_R   0.853617 0.050170 0.636519 -0.148338
C15   C     C_R   0.853003 0.948000 0.625713 -0.219830
C16   C     C_R   0.953457 0.180868 0.864081 0.379220
C17   C     C_R   0.969660 0.280466 0.870914 -0.179049
C18   C     C_R   0.962949 0.307709 0.803724 -0.094405
C19   C     C_R   0.910838 0.235037 0.723875 0.074615
C20   C     C_R   0.006619 0.408983 0.817740 0.306240
C21   C     C_R   0.978483 0.444051 0.754995 0.373055
C22   C     C_R   0.877737 0.272791 0.658997 -0.293686
H1    H     H_    0.813661 0.889859 0.564840 0.109331
H2    H     H_    0.831448 0.221502 0.596829 0.114934
H3    H     H_    0.985419 0.338787 0.932273 0.238551
H4    H     H_    0.876720 0.758089 0.615377 0.134071
H5    H     H_    0.969786 0.704985 0.724635 0.211945
H6    H     H_    0.122347 0.011661 0.886874 0.180599
H7    H     H_    0.815832 0.065594 0.582754 0.114502
H8    H     H_    0.836136 0.036357 0.194219 0.124747
C23   C     C_2   0.132978 0.039719 0.178242 -0.263866
C24   C     C_2   0.970895 0.082296 0.211104 -0.201449
H9    H     H_    0.695697 0.170431 0.307032 0.092824
C25   C     C_2   0.818173 0.223193 0.316897 -0.365617
C26   C     C_2   0.968580 0.190603 0.270695 0.441363
H10   H     H_    0.270175 0.083363 0.196959 0.183962
C27   C     C_R   0.411616 0.794608 0.665589 -0.117190
C28   C     C_R   0.535517 0.467756 0.835638 -0.181110
C29   C     C_R   0.531620 0.900101 0.807418 -0.129815
C30   C     C_R   0.523014 0.809486 0.738824 -0.116324
C31   C     C_R   0.361334 0.887083 0.655851 -0.205967
C32   C     C_R   0.405560 0.987025 0.722788 0.100695
C33   C     C_R   0.469098 0.988725 0.800569 0.061029
C34   C     C_R   0.396039 0.085123 0.717019 0.063192
C35   C     C_R   0.439755 0.179825 0.789173 0.015735
C36   C     C_R   0.463665 0.173559 0.865432 -0.126997
C37   C     C_R   0.477693 0.079366 0.870776 -0.103351
C38   C     C_R   0.356342 0.091424 0.641211 -0.164345
C39   C     C_R   0.366230 0.184980 0.634782 -0.173851
C40   C     C_R   0.419456 0.275664 0.703271 0.055408
C41   C     C_R   0.458171 0.277102 0.782384 0.099694
C42   C     C_R   0.434858 0.365187 0.691352 -0.236648
C43   C     C_R   0.485623 0.459291 0.755926 0.474607
C44   C     C_R   0.518606 0.375072 0.849163 -0.247643
H11   H     H_    0.499460 0.077450 0.930826 0.199768
H12   H     H_    0.552452 0.381036 0.911009 0.161990
H13   H     H_    0.335971 0.186050 0.574548 0.106942
H14   H     H_    0.600329 0.901975 0.864986 0.168807
H15   H     H_    0.605072 0.750815 0.745062 0.234226
H16   H     H_    0.292849 0.879977 0.597039 0.089201
H17   H     H_    0.477094 0.240772 0.921893 0.196654
H18   H     H_    0.321917 0.024422 0.585414 0.112061
H19   H     H_    0.405037 0.360811 0.629542 0.169811
H20   H     H_    0.336653 0.667023 0.195835 0.133692
C45   C     C_2   0.320370 0.599601 0.317993 -0.354492
C46   C     C_2   0.472322 0.590169 0.272822 0.425905
H21   H     H_    0.770656 0.625712 0.197178 0.184858
C47   C     C_2   0.632935 0.649807 0.178776 -0.258992
C48   C     C_2   0.472075 0.639032 0.212576 -0.181518
H22   H     H_    0.195656 0.639923 0.307216 0.099437
O11   O     O_R   0.421600 0.630430 0.917010 -0.456477
O12   O     O_R   0.793840 0.702190 0.087630 -0.551567
O13   O     O_R   0.964010 0.886170 0.088190 -0.554032
C49   C     C_R   0.630663 0.692552 0.115252 0.682501
O14   O     O_R   0.751460 0.619510 0.917500 -0.494506
O15   O     O_R   0.921330 0.802900 0.916840 -0.519602
C50   C     C_R   0.575007 0.575372 0.902343 0.866607
O16   O     O_R   0.464290 0.713700 0.088350 -0.544998
O17   O     O_3   0.609200 0.818520 0.002630 -0.389445
V3    V     V_3+5 0.884140 0.747190 0.002530 1.595990
O18   O     O_R   0.251150 0.814630 0.917340 -0.525032
C51   C     C_R   0.074381 0.823433 0.888585 0.796126
O19   O     O_R   0.293530 0.897310 0.087470 -0.555974
C52   C     C_R   0.130776 0.934120 0.114968 0.685475
V4    V     V_3+5 0.384070 0.769710 0.002370 1.579882
O20   O     O_3   0.109180 0.698190 0.002460 -0.315771
Cl1   Cl    Cl    0.111860 0.491563 0.915720 -0.620569
Cl2   Cl    Cl    0.159830 0.275904 0.273917 -0.559119
S1    S     S_3+6 0.479853 0.564948 0.731345 -0.032712
O21   O     O_2   0.676999 0.589741 0.717255 -0.369501
O22   O     O_2   0.349417 0.532149 0.654491 -0.337779
O23   O     O_3   0.396988 0.670668 0.798942 -0.497968
H23   H     H_    0.297208 0.692442 0.766982 0.351141
Cl3   Cl    Cl    0.669659 0.513541 0.278280 -0.572592
Cl4   Cl    Cl    0.033885 0.572286 0.782814 -0.581749
S2    S     S_3+6 0.943522 0.172243 0.961389 -0.031234
O24   O     O_2   0.146422 0.185740 0.002621 -0.326631
O25   O     O_2   0.830106 0.258736 0.013825 -0.302116
O26   O     O_3   0.842016 0.062738 0.957589 -0.554281
H24   H     H_    0.866934 0.065669 0.013918 0.359955

loop_
_geom_bond_atom_site_label_1
_geom_bond_atom_site_label_2
_ccdc_geom_bond_type
C13   C19   A    
C44   H12   S    
O18   C51   A    
C33   C37   A    
C4    C6    S    
O2    C1    A    
O19   C52   A    
C21   Cl4   S    
C43   S1    S    
C1    O6    A    
V4    O20   S    
V3    O20   S    
C31   C32   A    
C34   C35   A    
C14   C15   A    
C40   C41   A    
C16   C17   A    
O12   C49   A    
O5    C3    A    
C18   C19   A    
O13   C52   A    
V2    O10   S    
C5    C8    A    
S2    O24   D    
C47   C49   S    
C37   H11   S    
C32   C33   A    
O8    V2    S    
O15   V3    S    
C40   C42   A    
O1    V2    S    
C29   H14   S    
C11   C15   A    
C23   H10   S    
O16   V4    S    
C22   H2    S    
C24   C26   S    
C2    C45   S    
C41   C44   A    
S1    O22   D    
C9    C10   A    
H8    C24   S    
O23   H23   S    
C28   C43   A    
O13   V3    S    
C35   C41   A    
O15   C51   A    
O11   C50   A    
C32   C34   A    
C29   C30   A    
S1    O21   D    
C12   C13   A    
C3    C25   S    
C49   O16   A    
O17   V3    S    
O4    C2    A    
C8    H5    S    
C15   H1    S    
C13   C14   A    
C45   C46   D    
C5    C9    A    
C26   Cl2   S    
C34   C38   A    
C38   C39   A    
C7    C11   A    
C23   C24   D    
C17   C18   A    
C7    H4    S    
C6    C22   A    
C28   C50   S    
C27   C30   A    
C23   C52   S    
C19   C22   A    
S2    O26   S    
O17   V4    S    
C28   C44   A    
O3    C4    A    
O6    V2    S    
O14   C50   A    
C10   C12   A    
O2    V1    S    
O18   V4    S    
O14   V3    S    
O7    V1    S    
C39   H13   S    
C25   C26   D    
O26   H24   S    
O1    C2    A    
C12   C16   A    
C47   C48   D    
H20   C48   S    
O5    V1    S    
O8    C3    A    
O19   V4    S    
S1    O23   S    
C20   Cl1   S    
C1    C27   S    
C46   Cl3   S    
C42   C43   A    
C7    C8    A    
O9    V2    S    
C36   C37   A    
O4    V1    S    
O3    V1    S    
V1    O10   S    
C20   C21   A    
C18   C20   A    
C46   C48   S    
C35   C36   A    
C9    H6    S    
C45   H22   S    
C16   S2    S    
C27   C31   A    
C38   H18   S    
C42   H19   S    
S2    O25   D    
C29   C33   A    
O7    V2    S    
C39   C40   A    
C6    C21   A    
H21   C47   S    
H9    C25   S    
C14   H7    S    
O11   V4    S    
C17   H3    S    
C30   H15   S    
C10   C11   A    
C5    C51   S    
O12   V3    S    
O9    C4    A    
C31   H16   S    
C36   H17   S    
