data_mof_unit_28008.cif
_audit_creation_date              2013-03-05T15:40:41-0500
_audit_creation_method            fapswitch 2.2
_symmetry_space_group_name_H-M    P1
_symmetry_Int_Tables_number       1
_space_group_crystal_system       triclinic
_cell_length_a                    19.392118
_cell_length_b                    10.943946
_cell_length_c                    18.883792
_cell_angle_alpha                 89.999808
_cell_angle_beta                  87.412635
_cell_angle_gamma                 89.999922
_cell_volume                      4003.55156965

loop_
_atom_site_label
_atom_site_type_symbol
_atom_site_description
_atom_site_fract_x
_atom_site_fract_y
_atom_site_fract_z
_atom_type_partial_charge
O1    O     O_R   0.043230 0.549300 0.667990 -0.469261
O2    O     O_R   0.956770 0.549300 0.332010 -0.466948
O3    O     O_R   0.543230 0.049300 0.667990 -0.466465
O4    O     O_R   0.456770 0.049300 0.332010 -0.468819
O5    O     O_R   0.178620 0.457600 0.674100 -0.420972
O6    O     O_R   0.821380 0.457600 0.325900 -0.420231
O7    O     O_R   0.678620 0.957600 0.674100 -0.422074
O8    O     O_R   0.321380 0.957600 0.325900 -0.422817
C1    C     C_R   0.243147 0.462002 0.649931 0.603018
C2    C     C_R   0.756852 0.462000 0.350067 0.603826
C3    C     C_R   0.743165 0.962513 0.649764 0.603181
C4    C     C_R   0.256836 0.962515 0.350238 0.602366
O9    O     O_R   0.284680 0.542100 0.669460 -0.501095
O10   O     O_R   0.715320 0.542100 0.330540 -0.500793
O11   O     O_R   0.784680 0.042100 0.669460 -0.505662
O12   O     O_R   0.215320 0.042100 0.330540 -0.505946
O13   O     O_R   0.262860 0.790390 0.676650 -0.446293
O14   O     O_R   0.737140 0.790390 0.323350 -0.446360
O15   O     O_R   0.762860 0.290390 0.676650 -0.417312
O16   O     O_R   0.237140 0.290390 0.323350 -0.417280
C5    C     C_R   0.225055 0.865710 0.644887 0.582768
C6    C     C_R   0.774951 0.865693 0.355117 0.582617
C7    C     C_R   0.710404 0.326939 0.640875 0.529541
C8    C     C_R   0.289595 0.326942 0.359126 0.529493
O17   O     O_R   0.167460 0.907030 0.670940 -0.485870
O18   O     O_R   0.832540 0.907030 0.329060 -0.485765
O19   O     O_R   0.667460 0.407030 0.670940 -0.465920
O20   O     O_R   0.332540 0.407030 0.329060 -0.465961
O21   O     O_R   0.053950 0.750220 0.675100 -0.510851
O22   O     O_R   0.946050 0.750220 0.324900 -0.509190
O23   O     O_R   0.553950 0.250220 0.675100 -0.522085
O24   O     O_R   0.446050 0.250220 0.324900 -0.523734
C9    C     C_R   0.059303 0.649930 0.636705 0.533861
C10   C     C_R   0.940695 0.649930 0.363295 0.534515
C11   C     C_R   0.558756 0.150163 0.636764 0.528184
C12   C     C_R   0.441246 0.150162 0.363236 0.527505
O25   O     O_R   0.043300 0.547370 0.827390 -0.500514
O26   O     O_R   0.956700 0.547370 0.172610 -0.498225
O27   O     O_R   0.543300 0.047370 0.827390 -0.498435
O28   O     O_R   0.456700 0.047370 0.172610 -0.500548
O29   O     O_R   0.178690 0.455820 0.821860 -0.495318
O30   O     O_R   0.821310 0.455820 0.178140 -0.503534
O31   O     O_R   0.678690 0.955820 0.821860 -0.504348
O32   O     O_R   0.321310 0.955820 0.178140 -0.496132
C13   C     C_R   0.237838 0.464662 0.850271 0.553849
C14   C     C_R   0.762191 0.464697 0.149707 0.550562
C15   C     C_R   0.737807 0.964705 0.850296 0.550347
C16   C     C_R   0.262163 0.964670 0.149725 0.553630
O33   O     O_R   0.284750 0.540170 0.828860 -0.510826
O34   O     O_R   0.715250 0.540170 0.171140 -0.510134
O35   O     O_R   0.784750 0.040170 0.828860 -0.509643
O36   O     O_R   0.215250 0.040170 0.171140 -0.510321
O37   O     O_R   0.262920 0.788600 0.824420 -0.487421
O38   O     O_R   0.737080 0.788600 0.175580 -0.489340
O39   O     O_R   0.762920 0.288600 0.824420 -0.486003
O40   O     O_R   0.237080 0.288600 0.175580 -0.484086
C17   C     C_R   0.224683 0.870445 0.854076 0.565848
C18   C     C_R   0.775315 0.870446 0.145920 0.564780
C19   C     C_R   0.724680 0.370433 0.854085 0.570845
C20   C     C_R   0.275322 0.370433 0.145919 0.571910
O41   O     O_R   0.167530 0.905110 0.830340 -0.498158
O42   O     O_R   0.832470 0.905110 0.169660 -0.497811
O43   O     O_R   0.667530 0.405110 0.830340 -0.496735
O44   O     O_R   0.332470 0.405110 0.169660 -0.497074
O45   O     O_R   0.054010 0.748440 0.822860 -0.502254
O46   O     O_R   0.945990 0.748440 0.177140 -0.497607
O47   O     O_R   0.554010 0.248440 0.822860 -0.497953
O48   O     O_R   0.445990 0.248440 0.177140 -0.502571
C21   C     C_R   0.027304 0.652946 0.849847 0.563313
C22   C     C_R   0.968635 0.651640 0.147199 0.560322
C23   C     C_R   0.531364 0.151640 0.852800 0.560853
C24   C     C_R   0.472697 0.152947 0.150154 0.563944
Cr1   Cr    Cr6+3 0.113970 0.508630 0.747920 1.127733
Cr2   Cr    Cr6+3 0.886030 0.508630 0.252080 1.126505
Cr3   Cr    Cr6+3 0.613970 0.008630 0.747920 1.117232
Cr4   Cr    Cr6+3 0.386030 0.008630 0.252080 1.118514
Cr5   Cr    Cr6+3 0.269200 0.666740 0.749850 1.112408
Cr6   Cr    Cr6+3 0.730800 0.666740 0.250150 1.109204
Cr7   Cr    Cr6+3 0.769200 0.166740 0.749850 1.114450
Cr8   Cr    Cr6+3 0.230800 0.166740 0.250150 1.117666
Cr9   Cr    Cr6+3 0.112300 0.820070 0.749800 1.065646
Cr10  Cr    Cr6+3 0.887700 0.820070 0.250200 1.067514
Cr11  Cr    Cr6+3 0.612300 0.320070 0.749800 1.062455
Cr12  Cr    Cr6+3 0.387700 0.320070 0.250200 1.060641
O49   O     O_3   0.165160 0.665150 0.749190 -0.322577
O50   O     O_3   0.834840 0.665150 0.250810 -0.324029
O51   O     O_3   0.665160 0.165150 0.749190 -0.337609
O52   O     O_3   0.334840 0.165150 0.250810 -0.336171
C25   C     C_2   0.241626 0.879940 0.569710 -0.051454
C26   C     C_2   0.758381 0.879923 0.430294 -0.051519
C27   C     C_2   0.729534 0.348400 0.566450 -0.075725
C28   C     C_2   0.270466 0.348407 0.433550 -0.075712
C29   C     C_2   0.230857 0.912140 0.418514 -0.027511
C30   C     C_2   0.769143 0.912145 0.581488 -0.027759
C31   C     C_2   0.729862 0.404153 0.416234 -0.024230
C32   C     C_2   0.270138 0.404148 0.583766 -0.023978
C33   C     C_2   0.241335 0.801467 0.446378 0.244928
C34   C     C_2   0.758679 0.801464 0.553630 0.244854
C35   C     C_2   0.739590 0.289828 0.439989 0.246709
C36   C     C_2   0.260401 0.289827 0.560007 0.246821
C37   C     C_2   0.230073 0.787141 0.524347 -0.118898
C38   C     C_2   0.769938 0.787129 0.475660 -0.118842
C39   C     C_2   0.721784 0.262896 0.516062 -0.153267
C40   C     C_2   0.278209 0.262899 0.483935 -0.153270
H1    H     H_    0.212333 0.699147 0.544750 0.129887
H2    H     H_    0.787679 0.699135 0.455261 0.129875
H3    H     H_    0.703305 0.172379 0.530746 0.133183
H4    H     H_    0.296681 0.172377 0.469250 0.133196
H5    H     H_    0.264200 0.964934 0.551721 0.186947
H6    H     H_    0.735807 0.964916 0.448280 0.186951
H7    H     H_    0.754596 0.433803 0.553317 0.215798
H8    H     H_    0.245413 0.433820 0.446683 0.215790
C41   C     C_R   0.964116 0.650401 0.436728 -0.000287
C42   C     C_R   0.035879 0.650402 0.563274 0.000165
C43   C     C_R   0.465292 0.151421 0.436192 0.001733
C44   C     C_R   0.534714 0.151424 0.563806 0.001287
C45   C     C_R   0.950221 0.874282 0.450417 -0.094957
C46   C     C_R   0.049764 0.874287 0.549591 -0.094989
C47   C     C_R   0.452259 0.376372 0.448677 -0.097214
C48   C     C_R   0.547748 0.376374 0.551317 -0.097179
C49   C     C_R   0.974316 0.984567 0.475736 -0.057586
C50   C     C_R   0.025657 0.984570 0.524281 -0.057692
C51   C     C_R   0.475365 0.486597 0.474759 -0.057066
C52   C     C_R   0.524647 0.486598 0.525227 -0.056991
C53   C     C_R   0.022025 0.761641 0.528504 -0.001216
C54   C     C_R   0.977966 0.761640 0.471500 -0.001301
C55   C     C_R   0.521239 0.263155 0.529105 -0.004593
C56   C     C_R   0.478768 0.263154 0.470890 -0.004505
H9    H     H_    0.953939 0.069361 0.456286 0.210784
H10   H     H_    0.046025 0.069366 0.543737 0.210756
H11   H     H_    0.455707 0.571379 0.454486 0.208374
H12   H     H_    0.544306 0.571382 0.545497 0.208349
H13   H     H_    0.908590 0.878254 0.415952 0.171282
H14   H     H_    0.091398 0.878265 0.584053 0.171455
H15   H     H_    0.412391 0.382001 0.412542 0.170706
H16   H     H_    0.587612 0.382003 0.587456 0.170540
C57   C     C_R   0.016655 0.536896 0.531851 -0.033433
C58   C     C_R   0.983340 0.536896 0.468153 -0.033516
C59   C     C_R   0.515741 0.037803 0.532277 -0.031891
C60   C     C_R   0.484266 0.037799 0.467721 -0.031855
C61   C     C_R   0.030719 0.419249 0.561498 0.257591
C62   C     C_R   0.969270 0.419249 0.438510 0.257705
C63   C     C_R   0.530155 0.919914 0.561780 0.259723
C64   C     C_R   0.469859 0.919903 0.438218 0.259576
C65   C     C_R   0.999420 0.315958 0.536321 0.196938
C66   C     C_R   0.000560 0.315954 0.463695 0.196939
C67   C     C_R   0.498856 0.816739 0.536409 0.193821
C68   C     C_R   0.501139 0.816726 0.463614 0.193870
C69   C     C_2   0.238024 0.902529 0.926724 -0.087548
C70   C     C_2   0.762002 0.902462 0.073249 -0.087963
C71   C     C_2   0.737990 0.402436 0.926760 -0.089408
C72   C     C_2   0.261984 0.402503 0.073266 -0.088973
C73   C     C_2   0.251960 0.901370 0.083063 -0.096601
C74   C     C_2   0.747904 0.901367 0.916962 -0.098107
C75   C     C_2   0.752091 0.401345 0.083047 -0.097670
C76   C     C_2   0.248044 0.401346 0.916928 -0.096169
C77   C     C_2   0.192620 0.916760 0.050458 -0.154601
C78   C     C_2   0.807350 0.915977 0.949460 -0.150589
C79   C     C_2   0.692643 0.415940 0.050550 -0.150605
C80   C     C_2   0.307387 0.416719 0.949531 -0.154638
C81   C     C_2   0.185501 0.892670 0.975217 -0.156276
C82   C     C_2   0.814427 0.891699 0.024697 -0.153905
C83   C     C_2   0.685567 0.391660 0.975313 -0.154881
C84   C     C_2   0.314505 0.392627 0.024773 -0.157261
H17   H     H_    0.133600 0.873031 0.958815 0.144925
H18   H     H_    0.866239 0.871200 0.041053 0.147871
H19   H     H_    0.633756 0.371154 0.958955 0.147615
H20   H     H_    0.366405 0.372978 0.041176 0.144655
H21   H     H_    0.295772 0.855761 0.056763 0.111677
H22   H     H_    0.703949 0.856303 0.943346 0.103596
H23   H     H_    0.796047 0.356281 0.056663 0.103834
H24   H     H_    0.204231 0.355739 0.943228 0.111911
C85   C     C_2   0.988265 0.665035 0.916598 -0.107087
C86   C     C_2   0.988053 0.655352 0.072331 -0.103961
C87   C     C_2   0.511946 0.155352 0.927669 -0.104176
C88   C     C_2   0.511736 0.165037 0.083403 -0.107574
C89   C     C_2   0.958938 0.571709 0.030609 -0.156345
C90   C     C_2   0.972913 0.565493 0.954654 -0.161010
C91   C     C_2   0.527088 0.065496 0.045347 -0.161355
C92   C     C_2   0.541063 0.071712 0.969391 -0.156204
H25   H     H_    0.926722 0.498978 0.053242 0.155051
H26   H     H_    0.975866 0.474895 0.931155 0.162551
H27   H     H_    0.524138 0.974897 0.068847 0.162043
H28   H     H_    0.573280 0.998983 0.946758 0.155075
H29   H     H_    0.020035 0.729421 0.051202 0.088443
H30   H     H_    0.981722 0.755815 0.939276 0.097064
H31   H     H_    0.518277 0.255816 0.060724 0.097008
H32   H     H_    0.479963 0.229419 0.948797 0.088259
N1    N     N_R   0.263639 0.699312 0.403728 0.126839
O53   O     O_R   0.304065 0.618194 0.430149 -0.317772
O54   O     O_R   0.248933 0.692119 0.337289 -0.312392
N2    N     N_R   0.736395 0.699307 0.596289 0.126774
O55   O     O_R   0.695967 0.618178 0.569883 -0.317741
O56   O     O_R   0.751117 0.692128 0.662725 -0.312457
N3    N     N_R   0.768102 0.195585 0.394986 0.112059
O57   O     O_R   0.813481 0.121368 0.419695 -0.321978
O58   O     O_R   0.755396 0.192129 0.327930 -0.326456
N4    N     N_R   0.231873 0.195588 0.605004 0.112137
O59   O     O_R   0.186500 0.121374 0.580281 -0.322012
O60   O     O_R   0.244563 0.192126 0.672063 -0.326477
H33   H     H_    0.290534 0.920622 0.941375 0.103336
H34   H     H_    0.709559 0.921426 0.058667 0.097765
H35   H     H_    0.790432 0.421406 0.941343 0.098112
H36   H     H_    0.209475 0.420606 0.058614 0.103719
H37   H     H_    0.202722 0.978572 0.451648 0.115140
H38   H     H_    0.797267 0.978586 0.548350 0.115109
H39   H     H_    0.699011 0.465500 0.450193 0.118416
H40   H     H_    0.300998 0.465487 0.549811 0.118454
N5    N     N_R   0.901672 0.395033 0.421704 0.086333
O61   O     O_R   0.891283 0.300063 0.382229 -0.244836
O62   O     O_R   0.853865 0.435095 0.466019 -0.412967
N6    N     N_R   0.098315 0.395020 0.578306 0.086511
O63   O     O_R   0.108697 0.300060 0.617793 -0.245251
O64   O     O_R   0.146125 0.435055 0.533986 -0.412763
N7    N     N_R   0.401687 0.896875 0.422706 0.089660
O65   O     O_R   0.388126 0.797471 0.388219 -0.254094
O66   O     O_R   0.355105 0.948976 0.463646 -0.443572
N8    N     N_R   0.598333 0.896886 0.577273 0.089481
O67   O     O_R   0.611905 0.797472 0.611744 -0.253797
O68   O     O_R   0.644907 0.949016 0.536337 -0.443785
N9    N     N_R   0.942025 0.265066 0.577237 0.060113
O69   O     O_R   0.938184 0.277992 0.645821 -0.297143
O70   O     O_R   0.893374 0.205637 0.546826 -0.306126
N10   N     N_R   0.057947 0.265036 0.422781 0.060071
O71   O     O_R   0.061779 0.277928 0.354200 -0.295488
O72   O     O_R   0.106602 0.205619 0.453191 -0.306186
N11   N     N_R   0.440258 0.767867 0.576328 0.055565
O73   O     O_R   0.434480 0.783644 0.644663 -0.304501
O74   O     O_R   0.393057 0.705588 0.545425 -0.305521
N12   N     N_R   0.559696 0.767734 0.423684 0.055529
O75   O     O_R   0.565355 0.783170 0.355317 -0.306146
O76   O     O_R   0.606975 0.705681 0.454610 -0.305347
H41   H     H_    0.147612 0.955355 0.078600 0.163212
H42   H     H_    0.852474 0.953981 0.921232 0.161605
H43   H     H_    0.647519 0.453941 0.078779 0.161272
H44   H     H_    0.352396 0.455309 0.921389 0.162868

loop_
_geom_bond_atom_site_label_1
_geom_bond_atom_site_label_2
_geom_bond_distance
_ccdc_geom_bond_type
C18   O42   1.272080 A    
Cr6   O50   2.018230 S    
Cr11  O51   1.980991 S    
C16   C73   1.458155 S    
O4    C12   1.280912 A    
O47   Cr11  1.911775 S    
N3    O58   1.301448 A    
O39   C19   1.276037 A    
O20   Cr12  2.030699 S    
C46   H14   1.060502 S    
C62   C66   1.377801 A    
C59   C63   1.437753 A    
C67   C68   1.373359 A    
C30   H38   1.089463 S    
C36   C40   1.491618 S    
C64   C68   1.378114 A    
C45   H13   1.060491 S    
N10   O71   1.301514 A    
O26   C22   1.255375 A    
C65   C66   1.370636 A    
C48   C55   1.412429 A    
O1    C9    1.281557 A    
C51   C52   1.379794 A    
C5    C25   1.449717 S    
C10   C41   1.478536 S    
O7    C3    1.314837 A    
C14   C75   1.458057 S    
C74   H22   1.086132 S    
C9    C42   1.478516 S    
C81   H17   1.087777 S    
C80   C84   1.457776 S    
C50   H10   1.079492 S    
C74   C78   1.339767 D    
O25   C21   1.264589 A    
O39   Cr7   1.939293 S    
N7    O66   1.294508 A    
C86   H29   1.085618 S    
C20   C72   1.450649 S    
C31   C35   1.345312 D    
C32   H40   1.088694 S    
C65   N9    1.438176 S    
C30   C34   1.339698 D    
C23   C87   1.447136 S    
C35   N3    1.431532 S    
O8    Cr4   1.915488 S    
O23   Cr11  1.999672 S    
N6    O63   1.300041 A    
C52   H12   1.079797 S    
O32   Cr4   2.004241 S    
C46   C50   1.387019 A    
C42   C57   1.433223 A    
C27   H7    1.077215 S    
N1    O54   1.301509 A    
C1    O9    1.256940 A    
C26   C38   1.353798 D    
C45   C49   1.387019 A    
C87   H32   1.085616 S    
C82   H18   1.087780 S    
C85   C90   1.331349 D    
C3    O11   1.253848 A    
O41   Cr9   2.115058 S    
C88   C91   1.331349 D    
O11   Cr7   2.052840 S    
C4    O12   1.253856 A    
O21   C9    1.316939 A    
O28   Cr4   2.030827 S    
C44   C55   1.417158 A    
C17   C69   1.450625 S    
N4    O59   1.299575 A    
C46   C53   1.409622 A    
C7    O19   1.319643 A    
O3    Cr3   2.131926 S    
C45   C54   1.409615 A    
Cr4   O52   1.980486 S    
O47   C23   1.269792 A    
O2    Cr2   2.131926 S    
O48   C24   1.263433 A    
C44   C59   1.433822 A    
C51   H11   1.079797 S    
C47   C56   1.412430 A    
O2    C10   1.281566 A    
C33   N1    1.433239 S    
O42   Cr10  2.115052 S    
C29   H37   1.089464 S    
O18   Cr10  2.030699 S    
C31   H39   1.088695 S    
N1    O53   1.298802 A    
C69   H33   1.085386 S    
C21   C85   1.446853 S    
O24   Cr12  1.999665 S    
C8    C28   1.456326 S    
Cr7   O51   2.018232 S    
O6    Cr2   1.915488 S    
C91   H27   1.086730 S    
O31   Cr3   2.004238 S    
C70   C82   1.343084 D    
O9    Cr5   2.052840 S    
C85   H30   1.087018 S    
O30   Cr2   2.004241 S    
C37   H1    1.087282 S    
O22   C10   1.316945 A    
C75   C79   1.339768 D    
O48   Cr12  1.911773 S    
C60   C64   1.437798 A    
C84   H20   1.087777 S    
O32   C16   1.291671 A    
C34   N2    1.433240 S    
C35   C39   1.491630 S    
C58   C62   1.435028 A    
C49   H9    1.079492 S    
C42   C53   1.414666 A    
O16   Cr8   1.942270 S    
C28   H8    1.077226 S    
C25   H5    1.076483 S    
O7    Cr3   1.915493 S    
C41   C54   1.414667 A    
Cr10  O50   1.980994 S    
O29   Cr1   2.004238 S    
C76   H24   1.086063 S    
C47   H15   1.055818 S    
C43   C56   1.417167 A    
O40   C20   1.276022 A    
C48   C52   1.385086 A    
O12   Cr8   2.052837 S    
N2    O56   1.301511 A    
O22   Cr10  1.999665 S    
O15   C7    1.308885 A    
N7    O65   1.300836 A    
C78   C82   1.457924 S    
O5    C1    1.313337 A    
N9    O69   1.301600 A    
O34   Cr6   2.067937 S    
C19   C71   1.450751 S    
O46   Cr10  1.911773 S    
C66   N10   1.438150 S    
O3    C11   1.280930 A    
C29   C33   1.339708 D    
O45   Cr9   1.911775 S    
N11   O73   1.301735 A    
C61   N6    1.388123 S    
C13   O33   1.280900 A    
C83   H19   1.087779 S    
O8    C4    1.314838 A    
C33   C37   1.486966 S    
O13   Cr5   1.942261 S    
N5    O61   1.300035 A    
C6    C26   1.449708 S    
C11   C44   1.474340 S    
C13   C76   1.458160 S    
C72   C84   1.342914 D    
O29   C13   1.291670 A    
Cr2   O50   1.980486 S    
N12   O76   1.300454 A    
C22   C86   1.447131 S    
C1    C32   1.475447 S    
Cr1   O49   1.980489 S    
C49   C50   1.383477 A    
C90   H26   1.086729 S    
C86   C89   1.348183 D    
C89   C90   1.449234 S    
Cr12  O52   1.980994 S    
C3    C30   1.470148 S    
Cr3   O51   1.980489 S    
O14   Cr6   1.942270 S    
N11   O74   1.300446 A    
N6    O64   1.296901 A    
O21   Cr9   1.999672 S    
C63   C67   1.378103 A    
C71   C83   1.343087 D    
C57   C61   1.435034 A    
O30   C14   1.291369 A    
C53   C54   1.404191 A    
O38   C18   1.276047 A    
O43   Cr11  2.115058 S    
C7    C27   1.456338 S    
C4    C29   1.470165 S    
C68   N12   1.438122 S    
C70   H34   1.085552 S    
C55   C56   1.403041 A    
C77   C81   1.457754 S    
C40   H4    1.085203 S    
C88   H31   1.087017 S    
O26   Cr2   2.030827 S    
C19   O43   1.272080 A    
O45   C21   1.263435 A    
C18   C70   1.450725 S    
C5    O17   1.282323 A    
O37   C17   1.276027 A    
O28   C24   1.264591 A    
C25   C37   1.353794 D    
O14   C6    1.271365 A    
C79   H43   1.086611 S    
O5    Cr1   1.915493 S    
C8    O20   1.319632 A    
C27   C39   1.347769 D    
N4    O60   1.301446 A    
O17   Cr9   2.030693 S    
N10   O72   1.300667 A    
O35   Cr7   2.067931 S    
C64   N7    1.389961 S    
C15   O35   1.281149 A    
C59   C60   1.387729 A    
O24   C12   1.313675 A    
C17   O41   1.272021 A    
C87   C92   1.348185 D    
C76   C80   1.340007 D    
C47   C51   1.385080 A    
N3    O57   1.299571 A    
C57   C58   1.390827 A    
C14   O34   1.281160 A    
O25   Cr1   2.030827 S    
O40   Cr8   1.939284 S    
O44   Cr12  2.115052 S    
N8    O68   1.294506 A    
C20   O44   1.272020 A    
O1    Cr1   2.131926 S    
N2    O55   1.298796 A    
C15   C74   1.458051 S    
O19   Cr11  2.030693 S    
O15   Cr7   1.942261 S    
N9    O70   1.300705 A    
C71   H35   1.085554 S    
C34   C38   1.486978 S    
C78   H42   1.086610 S    
C63   N8    1.389965 S    
C77   H41   1.086605 S    
N8    O67   1.300830 A    
O46   C22   1.269796 A    
C67   N11   1.438134 S    
O31   C15   1.291374 A    
C2    C31   1.475439 S    
C89   H25   1.087380 S    
C32   C36   1.345320 D    
O23   C11   1.313674 A    
C61   C65   1.377790 A    
N5    O62   1.296901 A    
O33   Cr5   2.067931 S    
C38   H2    1.087281 S    
C79   C83   1.457945 S    
O10   Cr6   2.052837 S    
C73   C77   1.340006 D    
N12   O75   1.301749 A    
C24   C88   1.446856 S    
O13   C5    1.271369 A    
O4    Cr4   2.131926 S    
O6    C2    1.313341 A    
C28   C40   1.347763 D    
Cr5   O49   2.018232 S    
C91   C92   1.449239 S    
C75   H23   1.086132 S    
C16   O36   1.280890 A    
C69   C81   1.342910 D    
C43   C60   1.433836 A    
Cr8   O52   2.018230 S    
O27   Cr3   2.030827 S    
C6    O18   1.282315 A    
C73   H21   1.086062 S    
O27   C23   1.255376 A    
C41   C58   1.433222 A    
C72   H36   1.085386 S    
C39   H3    1.085198 S    
C62   N5    1.388113 S    
C48   H16   1.055814 S    
O37   Cr5   1.939293 S    
O36   Cr8   2.067937 S    
C12   C43   1.474320 S    
C80   H44   1.086606 S    
O16   C8    1.308889 A    
Cr9   O49   1.980991 S    
C92   H28   1.087379 S    
C2    O10   1.256930 A    
O38   Cr6   1.939284 S    
C26   H6    1.076466 S    
C36   N4    1.431532 S    
