data_mof_unit_52847.cif
_audit_creation_date              2012-12-10T17:51:28-0500
_audit_creation_method            fapswitch 2.2
_symmetry_space_group_name_H-M    P1
_symmetry_Int_Tables_number       1
_space_group_crystal_system       triclinic
_cell_length_a                    9.925032
_cell_length_b                    10.600514
_cell_length_c                    16.558503
_cell_angle_alpha                 89.519627
_cell_angle_beta                  85.233682
_cell_angle_gamma                 88.966521
_cell_volume                      1735.7790456

loop_
_atom_site_label
_atom_site_type_symbol
_atom_type_description
_atom_site_fract_x
_atom_site_fract_y
_atom_site_fract_z
_atom_type_partial_charge
C1    C     C_R   0.499438 0.739273 0.498435 0.861462
C2    C     C_R   0.348753 0.448862 0.782143 -0.266194
C3    C     C_R   0.445469 0.307244 0.165095 0.394375
C4    C     C_R   0.433395 0.361093 0.241624 -0.232034
C5    C     C_R   0.647817 0.465154 0.213214 -0.191939
C6    C     C_R   0.659017 0.414071 0.135877 -0.098524
C7    C     C_R   0.553951 0.342151 0.109807 -0.054365
C8    C     C_2   0.449149 0.423369 0.995130 0.029849
C9    C     C_2   0.539136 0.341768 0.022993 -0.069871
C10   C     C_R   0.531244 0.444350 0.264621 -0.115527
C11   C     C_R   0.628096 0.867687 0.358426 -0.097075
C12   C     C_R   0.481025 0.500032 0.653616 0.908364
C13   C     C_R   0.691446 0.933125 0.292836 -0.086690
C14   C     C_R   0.694025 0.064336 0.293438 -0.105463
C15   C     C_R   0.633399 0.130453 0.359676 -0.179843
C16   C     C_R   0.569284 0.065467 0.426862 0.095763
C17   C     C_R   0.566854 0.933451 0.426327 0.122989
C18   C     C_R   0.499540 0.871527 0.493356 -0.039591
C19   C     C_R   0.432699 0.935955 0.557978 -0.189623
C20   C     C_R   0.434356 0.064775 0.558241 -0.170904
C21   C     C_R   0.503645 0.128264 0.494192 -0.081599
C22   C     C_R   0.853900 0.689576 0.583902 -0.123313
C23   C     C_R   0.501252 0.260646 0.498543 0.852720
C24   C     C_R   0.922159 0.796581 0.605894 -0.212372
C25   C     C_R   0.051719 0.819473 0.569757 -0.232353
C26   C     C_R   0.115051 0.730805 0.516120 0.454508
C27   C     C_R   0.064367 0.607595 0.519379 0.050059
C28   C     C_R   0.922220 0.598055 0.534194 0.165769
C29   C     C_R   0.934255 0.400074 0.472245 -0.081222
C30   C     C_R   0.076997 0.397523 0.476325 -0.067806
C31   C     C_R   0.518940 0.492113 0.346907 0.883541
C32   C     C_R   0.468077 0.493024 0.741677 -0.195130
C33   C     C_R   0.576039 0.526736 0.785259 -0.239035
C34   C     C_R   0.568358 0.511798 0.868978 0.445426
C35   C     C_R   0.452213 0.455830 0.909079 -0.170051
C36   C     C_R   0.339135 0.430359 0.865728 0.441999
H1    H     H_    0.666471 0.565081 0.753843 0.209119
H2    H     H_    0.744397 0.439344 0.094377 0.236553
H3    H     H_    0.380707 0.886137 0.608546 0.141629
H4    H     H_    0.625942 0.765958 0.354799 0.145763
H5    H     H_    0.737785 0.881899 0.241162 0.159835
H6    H     H_    0.742272 0.115129 0.242232 0.160069
H7    H     H_    0.636206 0.232204 0.357236 0.144819
H8    H     H_    0.383119 0.115308 0.608937 0.155660
H9    H     H_    0.885556 0.319356 0.448668 0.155378
H10   H     H_    0.751378 0.677830 0.608696 0.190915
H11   H     H_    0.870210 0.866959 0.644556 0.186939
H12   H     H_    0.348165 0.336578 0.283675 0.197215
H13   H     H_    0.092620 0.913014 0.573825 0.183942
H14   H     H_    0.134702 0.314256 0.456633 0.165855
H15   H     H_    0.727412 0.524370 0.231748 0.181712
H16   H     H_    0.615116 0.295094 0.982100 0.184559
H17   H     H_    0.264667 0.424339 0.748004 0.210939
H18   H     H_    0.377410 0.473644 0.036959 0.197658
N1    N     N_R   0.857140 0.501200 0.500750 -0.111027
N2    N     N_R   0.142740 0.501280 0.500770 -0.118862
O1    O     O_R   0.385310 0.683220 0.500000 -0.584342
O2    O     O_R   0.614640 0.683250 0.500010 -0.640808
O3    O     O_R   0.371780 0.500010 0.615800 -0.620221
O4    O     O_R   0.601110 0.500030 0.615800 -0.628984
O5    O     O_R   0.385360 0.316750 0.499990 -0.621551
O6    O     O_R   0.614690 0.316780 0.500000 -0.624241
O7    O     O_R   0.398890 0.499970 0.384200 -0.558682
O8    O     O_R   0.628220 0.499990 0.384200 -0.626455
Zn1   Zn    Zn3+2 0.346870 0.499980 0.499990 1.003958
Zn2   Zn    Zn3+2 0.653130 0.500020 0.500010 0.955752
S1    S     S_3+6 0.157205 0.794165 0.418050 0.047811
O9    O     O_2   0.235594 0.913312 0.423178 -0.309917
O10   O     O_2   0.236451 0.700970 0.364510 -0.260408
O11   O     O_3   0.011623 0.829046 0.376870 -0.553502
H19   H     H_    0.039006 0.873241 0.325323 0.398136
S2    S     S_3+6 0.187065 0.369070 0.912846 0.071869
O12   O     O_2   0.140292 0.446560 0.985776 -0.246092
O13   O     O_2   0.078401 0.370979 0.854724 -0.274491
O14   O     O_3   0.216093 0.219398 0.941672 -0.468630
H20   H     H_    0.126614 0.188203 0.963217 0.409158
S3    S     S_3+6 0.322887 0.198404 0.140568 0.056950
O15   O     O_2   0.285661 0.115214 0.212677 -0.279425
O16   O     O_2   0.198613 0.269794 0.119149 -0.216295
O17   O     O_3   0.381721 0.108108 0.061923 -0.477918
H21   H     H_    0.461033 0.062193 0.081000 0.354793
S4    S     S_3+6 0.703750 0.569640 0.920578 0.027076
O18   O     O_2   0.650801 0.627451 0.999780 -0.305799
O19   O     O_2   0.800000 0.462721 0.935839 -0.271592
O20   O     O_3   0.787068 0.679871 0.863443 -0.545123
H22   H     H_    0.866204 0.700412 0.893305 0.404000

loop_
_geom_bond_atom_site_label_1
_geom_bond_atom_site_label_2
_ccdc_geom_bond_type
O7    Zn1   S    
C16   C21   A    
C35   C36   A    
C13   H5    S    
S3    O15   D    
C1    C18   S    
C26   S1    S    
C18   C19   A    
C3    C7    A    
C5    C6    A    
N2    Zn1   S    
C2    C32   A    
C34   C35   A    
C12   O3    A    
C10   C31   S    
O2    Zn2   S    
C23   O6    A    
C19   C20   A    
C8    C9    D    
C6    H2    S    
O11   H19   S    
C14   H6    S    
C30   H14   S    
O4    Zn2   S    
C22   C28   A    
C13   C14   A    
C12   C32   S    
C9    H16   S    
S2    O14   S    
C20   H8    S    
C28   N1    A    
C33   C34   A    
S3    O16   D    
C15   C16   A    
O6    Zn2   S    
S1    O9    D    
C31   O7    A    
C24   C25   A    
S2    O13   D    
C8    H18   S    
C27   N2    A    
O17   H21   S    
C29   N1    A    
C25   C26   A    
O20   H22   S    
C30   N2    A    
C33   H1    S    
C29   H9    S    
S1    O10   D    
C8    C35   S    
O8    Zn2   S    
O14   H20   S    
C29   C30   A    
C1    O1    A    
C17   C18   A    
C26   C27   A    
C19   H3    S    
C22   H10   S    
S4    O19   D    
C21   C23   S    
C22   C24   A    
C4    C10   A    
C3    C4    A    
C3    S3    S    
N1    Zn2   S    
C4    H12   S    
S3    O17   S    
C2    C36   A    
C7    C9    S    
C11   C17   A    
C24   H11   S    
C31   O8    A    
O1    Zn1   S    
S2    O12   D    
C2    H17   S    
C6    C7    A    
S4    O20   S    
S1    O11   S    
C32   C33   A    
C15   H7    S    
C5    C10   A    
C1    O2    A    
O3    Zn1   S    
C11   C13   A    
C16   C17   A    
C11   H4    S    
C25   H13   S    
C12   O4    A    
O5    Zn1   S    
C23   O5    A    
C20   C21   A    
S4    O18   D    
C27   C28   A    
C14   C15   A    
C5    H15   S    
C34   S4    S    
C36   S2    S    
