data_mof_unit_54829.cif
_audit_creation_date              2013-03-05T15:45:58-0500
_audit_creation_method            fapswitch 2.2
_symmetry_space_group_name_H-M    P1
_symmetry_Int_Tables_number       1
_space_group_crystal_system       triclinic
_cell_length_a                    18.794964
_cell_length_b                    10.988174
_cell_length_c                    18.72987
_cell_angle_alpha                 90.13789
_cell_angle_beta                  89.728483
_cell_angle_gamma                 90.027932
_cell_volume                      3868.08140889

loop_
_atom_site_label
_atom_site_type_symbol
_atom_site_description
_atom_site_fract_x
_atom_site_fract_y
_atom_site_fract_z
_atom_type_partial_charge
O1    O     O_R   0.787510 0.042610 0.670410 -0.457325
O2    O     O_R   0.212490 0.042610 0.329590 -0.432128
O3    O     O_R   0.287510 0.542610 0.670410 -0.448794
O4    O     O_R   0.712490 0.542610 0.329590 -0.429248
O5    O     O_R   0.765670 0.292090 0.675090 -0.540968
O6    O     O_R   0.234330 0.292090 0.324910 -0.542397
O7    O     O_R   0.265670 0.792090 0.675090 -0.538719
O8    O     O_R   0.734330 0.792090 0.324910 -0.541787
C1    C     C_R   0.732005 0.381994 0.647597 0.543095
C2    C     C_R   0.267942 0.382172 0.352359 0.544619
C3    C     C_R   0.232008 0.881999 0.647600 0.548896
C4    C     C_R   0.767942 0.882172 0.352359 0.550945
O9    O     O_R   0.670220 0.409020 0.668560 -0.463013
O10   O     O_R   0.329780 0.409020 0.331440 -0.459631
O11   O     O_R   0.170220 0.909020 0.668560 -0.454848
O12   O     O_R   0.829780 0.909020 0.331440 -0.457866
O13   O     O_R   0.556580 0.251590 0.674980 -0.492880
O14   O     O_R   0.443420 0.251590 0.325020 -0.481500
O15   O     O_R   0.056580 0.751590 0.674980 -0.485996
O16   O     O_R   0.943420 0.751590 0.325020 -0.483958
C5    C     C_R   0.530911 0.154612 0.647400 0.538287
C6    C     C_R   0.464952 0.154631 0.355372 0.568720
C7    C     C_R   0.030912 0.654610 0.647400 0.542732
C8    C     C_R   0.964955 0.654632 0.355370 0.560144
O17   O     O_R   0.545890 0.049670 0.670030 -0.531294
O18   O     O_R   0.454110 0.049670 0.329970 -0.527300
O19   O     O_R   0.045890 0.549670 0.670030 -0.526409
O20   O     O_R   0.954110 0.549670 0.329970 -0.529299
O21   O     O_R   0.681340 0.957860 0.676500 -0.467618
O22   O     O_R   0.318660 0.957860 0.323500 -0.457752
O23   O     O_R   0.181340 0.457860 0.676500 -0.454295
O24   O     O_R   0.818660 0.457860 0.323500 -0.458829
C9    C     C_R   0.726680 0.021787 0.640057 0.548491
C10   C     C_R   0.273225 0.021594 0.360009 0.553494
C11   C     C_R   0.226679 0.521788 0.640058 0.552728
C12   C     C_R   0.773226 0.521592 0.360007 0.552815
O25   O     O_R   0.787380 0.044010 0.830940 -0.409629
O26   O     O_R   0.212620 0.044010 0.169060 -0.392171
O27   O     O_R   0.287380 0.544010 0.830940 -0.393589
O28   O     O_R   0.712620 0.544010 0.169060 -0.394372
O29   O     O_R   0.765540 0.293390 0.823910 -0.408317
O30   O     O_R   0.234460 0.293390 0.176090 -0.434872
O31   O     O_R   0.265540 0.793390 0.823910 -0.436250
O32   O     O_R   0.734460 0.793390 0.176090 -0.437439
C13   C     C_R   0.728375 0.377540 0.853656 0.614454
C14   C     C_R   0.268520 0.382650 0.149171 0.584231
C15   C     C_R   0.231632 0.884652 0.850085 0.585328
C16   C     C_R   0.768560 0.881147 0.148981 0.592717
O33   O     O_R   0.670090 0.410410 0.829090 -0.464460
O34   O     O_R   0.329910 0.410410 0.170910 -0.454855
O35   O     O_R   0.170090 0.910410 0.829090 -0.466948
O36   O     O_R   0.829910 0.910410 0.170910 -0.471314
O37   O     O_R   0.556450 0.252890 0.823790 -0.456376
O38   O     O_R   0.443550 0.252890 0.176210 -0.466421
O39   O     O_R   0.056450 0.752890 0.823790 -0.504147
O40   O     O_R   0.943550 0.752890 0.176210 -0.503982
C17   C     C_R   0.532036 0.157251 0.853201 0.587878
C18   C     C_R   0.467777 0.157200 0.146775 0.611331
C19   C     C_R   0.033126 0.656329 0.854263 0.553094
C20   C     C_R   0.969389 0.656996 0.147548 0.567630
O41   O     O_R   0.545750 0.051070 0.830560 -0.469276
O42   O     O_R   0.454250 0.051070 0.169440 -0.487596
O43   O     O_R   0.045750 0.551070 0.830560 -0.426246
O44   O     O_R   0.954250 0.551070 0.169440 -0.428448
O45   O     O_R   0.681210 0.959150 0.825320 -0.479756
O46   O     O_R   0.318790 0.959150 0.174680 -0.488204
O47   O     O_R   0.181210 0.459150 0.825320 -0.468218
O48   O     O_R   0.818790 0.459150 0.174680 -0.492903
C21   C     C_R   0.740140 0.977098 0.856751 0.611057
C22   C     C_R   0.259749 0.975486 0.143257 0.605934
C23   C     C_R   0.227065 0.521461 0.861764 0.577523
C24   C     C_R   0.758151 0.468123 0.146774 0.621726
Cr1   Cr    Cr6+3 0.771950 0.169480 0.750100 1.184391
Cr2   Cr    Cr6+3 0.228050 0.169480 0.249900 1.167442
Cr3   Cr    Cr6+3 0.271950 0.669480 0.750100 1.162985
Cr4   Cr    Cr6+3 0.728050 0.669480 0.249900 1.170389
Cr5   Cr    Cr6+3 0.614930 0.323340 0.749170 1.175501
Cr6   Cr    Cr6+3 0.385070 0.323340 0.250830 1.169190
Cr7   Cr    Cr6+3 0.114930 0.823340 0.749170 1.142575
Cr8   Cr    Cr6+3 0.885070 0.823340 0.250830 1.140168
Cr9   Cr    Cr6+3 0.616590 0.010620 0.750610 1.134970
Cr10  Cr    Cr6+3 0.383410 0.010620 0.249390 1.130005
Cr11  Cr    Cr6+3 0.116590 0.510620 0.750610 1.154691
Cr12  Cr    Cr6+3 0.883410 0.510620 0.249390 1.149941
O49   O     O_3   0.667820 0.167810 0.749960 -0.330895
O50   O     O_3   0.332180 0.167810 0.250040 -0.356645
O51   O     O_3   0.167820 0.667810 0.749960 -0.362324
O52   O     O_3   0.832180 0.667810 0.250040 -0.350832
C25   C     C_R   0.481484 0.158930 0.430671 0.052698
C26   C     C_R   0.494699 0.158205 0.579499 0.025867
C27   C     C_R   0.981500 0.658936 0.430666 0.053045
C28   C     C_R   0.994709 0.658196 0.579495 0.023728
C29   C     C_R   0.471634 0.265872 0.470180 -0.045595
C30   C     C_R   0.480273 0.266253 0.543290 -0.005263
C31   C     C_R   0.971624 0.765866 0.470182 -0.044195
C32   C     C_R   0.980260 0.766240 0.543293 -0.006241
C33   C     C_R   0.488280 0.047810 0.541775 -0.150700
C34   C     C_R   0.485160 0.048354 0.468127 -0.154133
C35   C     C_R   0.988319 0.547803 0.541763 -0.151164
C36   C     C_R   0.985203 0.548357 0.468116 -0.154167
C37   C     C_3   0.503385 0.390034 0.463039 0.093816
C38   C     C_3   0.513604 0.389998 0.544199 0.115774
C39   C     C_3   0.003343 0.890056 0.463056 0.095072
C40   C     C_3   0.013559 0.890012 0.544214 0.116381
H1    H     H_    0.494320 0.960317 0.567604 0.174891
H2    H     H_    0.486407 0.961298 0.440891 0.166758
H3    H     H_    0.994378 0.460309 0.567585 0.175351
H4    H     H_    0.986470 0.461307 0.440874 0.166732
H5    H     H_    0.964192 0.956965 0.442635 0.197803
H6    H     H_    0.069653 0.891528 0.562644 0.174770
H7    H     H_    0.464250 0.456963 0.442611 0.197607
H8    H     H_    0.569698 0.391468 0.562628 0.174210
C41   C     C_R   0.679168 0.921874 0.529729 -0.113336
C42   C     C_R   0.319647 0.919509 0.469739 -0.108839
C43   C     C_R   0.179160 0.421892 0.529727 -0.114031
C44   C     C_R   0.819657 0.419524 0.469738 -0.108691
H9    H     H_    0.636776 0.879931 0.560125 0.207039
H10   H     H_    0.361311 0.876237 0.438999 0.204595
H11   H     H_    0.136761 0.379966 0.560120 0.206597
H12   H     H_    0.861335 0.376280 0.439004 0.204454
C45   C     C_R   0.686853 0.892377 0.457691 -0.168155
C46   C     C_R   0.312342 0.890813 0.541820 -0.168443
C47   C     C_R   0.186848 0.392392 0.457689 -0.168403
C48   C     C_R   0.812345 0.390822 0.541817 -0.168053
H13   H     H_    0.651775 0.825252 0.434381 0.159045
H14   H     H_    0.347310 0.823593 0.564921 0.166673
H15   H     H_    0.151763 0.325280 0.434375 0.159295
H16   H     H_    0.847321 0.323621 0.564925 0.167052
C49   C     C_R   0.742455 0.943523 0.417705 0.016997
C50   C     C_R   0.257269 0.942907 0.582148 0.013492
C51   C     C_R   0.242458 0.443521 0.417708 0.015241
C52   C     C_R   0.757257 0.442894 0.582136 0.014879
C53   C     C_R   0.782827 0.039719 0.447769 0.217122
C54   C     C_R   0.217110 0.039366 0.552233 0.204993
C55   C     C_R   0.282839 0.539702 0.447776 0.217031
C56   C     C_R   0.717082 0.539325 0.552208 0.207260
C57   C     C_R   0.777963 0.061902 0.520883 -0.091949
C58   C     C_R   0.222340 0.062060 0.479265 -0.083135
C59   C     C_R   0.277973 0.561885 0.520889 -0.091792
C60   C     C_R   0.722321 0.562019 0.479245 -0.083888
H17   H     H_    0.812594 0.128437 0.545086 0.173948
H18   H     H_    0.188152 0.129333 0.455281 0.157114
H19   H     H_    0.312609 0.628409 0.545094 0.173802
H20   H     H_    0.688125 0.629276 0.455255 0.156590
C61   C     C_R   0.728494 0.999448 0.562832 -0.022157
C62   C     C_R   0.271181 0.998694 0.437067 -0.000042
C63   C     C_R   0.228494 0.499448 0.562833 -0.024622
C64   C     C_R   0.771180 0.498682 0.437059 -0.000194
C65   C     C_R   0.570985 0.160162 0.976919 0.402788
C66   C     C_R   0.556686 0.159189 0.049631 0.446392
C67   C     C_R   0.012570 0.551446 0.967810 0.409896
C68   C     C_R   0.013100 0.554550 0.040654 0.396367
C69   C     C_R   0.486289 0.167202 0.072598 0.026036
C70   C     C_R   0.514737 0.166595 0.927782 0.034433
C71   C     C_R   0.999665 0.664301 0.076457 -0.053045
C72   C     C_R   0.010988 0.660738 0.928525 -0.056332
C73   C     C_R   0.430270 0.177458 0.023539 -0.176040
C74   C     C_R   0.444457 0.176292 0.950793 -0.154373
C75   C     C_R   0.996913 0.773996 0.038172 -0.183702
C76   C     C_R   0.004284 0.772386 0.964282 -0.198843
H21   H     H_    0.375491 0.182824 0.041776 0.116107
H22   H     H_    0.401151 0.180897 0.912902 0.155061
H23   H     H_    0.986548 0.859812 0.064837 0.224699
H24   H     H_    0.004415 0.857550 0.935285 0.218862
C77   C     C_R   0.788495 0.028910 0.974988 0.395192
C78   C     C_R   0.195490 0.995040 0.029614 0.367267
C79   C     C_R   0.278971 0.559650 0.980496 0.346637
C80   C     C_R   0.682563 0.433175 0.044135 0.433130
C81   C     C_R   0.785620 0.021466 0.048637 0.188332
C82   C     C_R   0.198546 0.005214 0.956055 0.136086
C83   C     C_R   0.283393 0.537397 0.053387 0.157288
C84   C     C_R   0.678115 0.440952 0.970913 0.170617
C85   C     C_R   0.746022 0.926981 0.079999 -0.006647
C86   C     C_R   0.251683 0.939941 0.918413 -0.052868
C87   C     C_R   0.243960 0.439881 0.083003 -0.057153
C88   C     C_R   0.738734 0.409908 0.928215 -0.047674
C89   C     C_R   0.699558 0.855953 0.038005 0.348605
C90   C     C_R   0.312284 0.900377 0.954716 0.378750
C91   C     C_R   0.191500 0.382120 0.041651 0.364167
C92   C     C_R   0.804030 0.386094 0.960738 0.385586
C93   C     C_R   0.699412 0.869418 0.964573 -0.131160
C94   C     C_R   0.313717 0.905673 0.029000 -0.130502
C95   C     C_R   0.184483 0.411043 0.969934 -0.122958
C96   C     C_R   0.809351 0.393310 0.034264 -0.108846
H25   H     H_    0.663736 0.814458 0.932731 0.217031
H26   H     H_    0.361617 0.878106 0.056430 0.229618
H27   H     H_    0.145262 0.362777 0.938690 0.272026
H28   H     H_    0.861489 0.384885 0.058139 0.240983
C97   C     C_R   0.745924 0.951769 0.932443 -0.051946
C98   C     C_R   0.253947 0.947666 0.067179 -0.091408
C99   C     C_R   0.230608 0.495451 0.938175 -0.106538
C100  C     C_R   0.748841 0.419187 0.075902 -0.039721
F1    F     F_    0.830392 0.116349 0.945614 -0.508573
F2    F     F_    0.137243 0.039272 0.064287 -0.496649
F3    F     F_    0.322819 0.642999 0.950656 -0.520970
F4    F     F_    0.623407 0.454922 0.084383 -0.502314
N1    N     N_R   0.824569 0.107716 0.091213 0.109844
O53   O     O_R   0.795854 0.153968 0.148532 -0.264702
O54   O     O_R   0.888993 0.139320 0.073443 -0.193877
N2    N     N_R   0.148156 0.081982 0.919774 0.128154
O55   O     O_R   0.082563 0.090536 0.941797 -0.164524
O56   O     O_R   0.169058 0.148827 0.866346 -0.298003
N3    N     N_R   0.329161 0.612164 0.096392 0.110993
O57   O     O_R   0.305936 0.657352 0.156416 -0.298484
O58   O     O_R   0.393170 0.638796 0.074708 -0.186269
N4    N     N_R   0.613070 0.487825 0.941501 0.152006
O59   O     O_R   0.551959 0.443623 0.961576 -0.229829
O60   O     O_R   0.614324 0.589294 0.905832 -0.280679
F5    F     F_    0.657425 0.768428 0.067001 -0.539746
F6    F     F_    0.369502 0.856556 0.918399 -0.520125
F7    F     F_    0.149829 0.292654 0.069020 -0.472345
F8    F     F_    0.863013 0.360608 0.921327 -0.492506
N5    N     N_R   0.570297 0.389475 0.422821 0.071897
O61   O     O_R   0.622165 0.316793 0.439990 -0.344178
O62   O     O_R   0.576251 0.456914 0.366186 -0.258993
N6    N     N_R   0.468235 0.478061 0.581352 0.078969
O63   O     O_R   0.443130 0.452273 0.644381 -0.282840
O64   O     O_R   0.464566 0.589694 0.558769 -0.279137
N7    N     N_R   0.070258 0.889569 0.422844 0.070516
O65   O     O_R   0.122138 0.816898 0.439995 -0.347552
O66   O     O_R   0.076219 0.957110 0.366253 -0.268076
N8    N     N_R   0.968167 0.978047 0.581362 0.079675
O67   O     O_R   0.942966 0.952168 0.644342 -0.285693
O68   O     O_R   0.964574 0.089727 0.558842 -0.277936
N9    N     N_R   0.828844 0.114508 0.404859 0.083227
O69   O     O_R   0.807240 0.154493 0.343304 -0.248044
O70   O     O_R   0.889272 0.152791 0.429913 -0.349188
N10   N     N_R   0.170408 0.113531 0.594856 0.079845
O71   O     O_R   0.191136 0.153761 0.656782 -0.274736
O72   O     O_R   0.110749 0.152644 0.568599 -0.321588
N11   N     N_R   0.328860 0.614487 0.404871 0.083467
O73   O     O_R   0.307246 0.654516 0.343330 -0.252582
O74   O     O_R   0.389292 0.652755 0.429923 -0.348476
N12   N     N_R   0.670366 0.613484 0.594815 0.080292
O75   O     O_R   0.691107 0.653816 0.656712 -0.296557
O76   O     O_R   0.610712 0.652589 0.568539 -0.322574
F9    F     F_    0.639465 0.153983 0.953986 -0.644888
F10   F     F_    0.610708 0.149340 0.097167 -0.569397
F11   F     F_    0.015619 0.439755 0.936526 -0.497934
F12   F     F_    0.021116 0.447141 0.075659 -0.501425

loop_
_geom_bond_atom_site_label_1
_geom_bond_atom_site_label_2
_geom_bond_distance
_ccdc_geom_bond_type
O7    Cr3   1.952870 S    
C18   O42   1.267234 A    
Cr11  O51   1.977108 S    
N3    O57   1.301497 A    
O4    C12   1.299242 A    
O47   Cr11  1.942575 S    
C29   C30   1.379696 A    
O39   C19   1.282109 A    
O20   Cr12  2.059859 S    
O5    Cr1   1.952870 S    
O29   C13   1.283652 A    
C41   H9    1.080708 S    
C38   H8    1.111007 S    
C31   C32   1.379695 A    
O8    Cr4   1.948118 S    
C56   C60   1.392764 A    
C60   C64   1.393938 A    
C82   N2    1.442198 S    
C33   C34   1.380960 A    
O1    C9    1.299217 A    
N5    O61   1.302528 A    
O15   Cr7   1.939982 S    
C53   C57   1.392952 A    
N3    O58   1.301346 A    
C59   C63   1.395611 A    
C37   C38   1.533096 S    
Cr7   O51   1.977612 S    
O36   Cr8   2.062381 S    
O24   C12   1.296113 A    
C57   C61   1.395627 A    
C53   N9    1.437072 S    
C70   C74   1.391565 A    
C51   C55   1.417930 A    
C93   H25   1.082423 S    
C94   H26   1.082408 S    
C89   C93   1.383693 A    
O46   Cr10  1.940267 S    
C41   C61   1.404495 A    
C91   F7    1.356636 S    
C28   C32   1.396039 A    
O23   Cr11  1.929939 S    
C90   F6    1.357583 S    
C92   F8    1.357881 S    
O30   C14   1.274635 A    
C73   H21   1.084795 S    
C89   F5    1.358186 S    
O32   Cr4   1.945973 S    
C1    O9    1.259486 A    
C2    C51   1.474020 S    
O44   Cr12  2.048503 S    
O25   Cr1   2.071727 S    
C45   H13   1.081677 S    
C59   H19   1.079072 S    
C12   C64   1.465891 S    
C73   C74   1.387150 A    
O11   Cr7   2.058350 S    
C7    O19   1.261881 A    
C4    O12   1.259862 A    
O21   C9    1.296812 A    
C37   N5    1.462889 S    
N2    O55   1.301520 A    
C66   F10   1.358125 S    
C66   C69   1.392102 A    
C56   N12   1.436219 S    
C77   C97   1.412736 A    
C67   C68   1.364794 A    
C96   C100  1.404754 A    
O6    Cr2   1.948118 S    
C80   C100  1.391768 A    
O27   Cr3   2.071727 S    
C27   C36   1.406359 A    
O14   C6    1.275756 A    
O3    Cr3   2.059855 S    
Cr4   O52   1.957231 S    
C26   C33   1.407763 A    
O47   C23   1.296240 A    
O2    Cr2   2.064520 S    
O8    C4    1.281878 A    
C48   H16   1.081406 S    
C33   H1    1.083536 S    
O2    C10   1.299247 A    
N5    O62   1.299785 A    
C54   C58   1.392838 A    
O42   Cr10  2.048503 S    
Cr5   O49   1.977612 S    
O18   Cr10  2.059859 S    
C55   N11   1.437057 S    
C86   C90   1.399237 A    
C25   C29   1.399091 A    
C50   C54   1.419401 A    
N12   O76   1.300237 A    
O34   Cr6   2.062381 S    
N10   O72   1.300234 A    
N10   O71   1.301576 A    
C48   C52   1.400262 A    
C31   C39   1.494910 S    
C20   O44   1.266766 A    
C26   C30   1.396050 A    
C81   N1    1.439167 S    
C91   C95   1.387974 A    
C5    C26   1.445917 S    
C40   N8    1.462751 S    
C77   C81   1.382854 A    
O24   Cr12  1.931590 S    
O9    Cr5   2.058350 S    
C36   H4    1.083235 S    
O30   Cr2   1.945973 S    
C4    C49   1.474016 S    
O22   C10   1.296152 A    
C71   C75   1.405107 A    
O48   Cr12  1.940267 S    
O14   Cr6   1.943131 S    
C78   F2    1.359680 S    
C72   C76   1.401730 A    
C43   C47   1.393768 A    
N6    O63   1.301060 A    
C42   C62   1.403554 A    
C5    O17   1.261899 A    
C2    O10   1.259859 A    
C13   C88   1.454203 S    
C29   C37   1.494892 S    
N7    O65   1.302526 A    
C93   C97   1.393569 A    
O16   Cr8   1.943131 S    
N4    O59   1.301078 A    
C15   O35   1.256111 A    
O26   Cr2   2.066681 S    
Cr10  O50   1.977877 S    
C83   C87   1.415385 A    
O13   C5    1.278414 A    
C44   H12   1.079595 S    
C96   H28   1.083162 S    
O48   C24   1.260098 A    
O12   Cr8   2.055485 S    
C14   C87   1.467611 S    
C54   N10   1.436252 S    
C46   H14   1.081402 S    
O7    C3    1.283565 A    
C65   C70   1.406851 A    
O5    C1    1.283579 A    
C18   C69   1.435076 S    
C95   H27   1.081365 S    
N7    O66   1.299773 A    
O39   Cr7   1.936622 S    
O25   C21   1.248843 A    
C88   C92   1.397781 A    
C65   F9    1.356611 S    
C75   C76   1.390279 A    
C68   F12   1.360261 S    
C68   C71   1.400929 A    
O3    C11   1.299220 A    
O40   Cr8   1.934364 S    
C52   C56   1.419430 A    
C47   C51   1.401012 A    
O13   Cr5   1.939982 S    
C13   O33   1.244249 A    
C41   C45   1.393759 A    
N11   O74   1.300262 A    
C11   C63   1.466744 S    
C67   C72   1.410322 A    
Cr2   O50   1.957231 S    
N8    O68   1.300474 A    
Cr1   O49   1.957211 S    
C42   H10   1.079592 S    
C9    C61   1.466758 S    
C49   C53   1.417928 A    
Cr3   O51   1.957211 S    
O26   C22   1.256979 A    
O21   Cr9   1.929939 S    
C78   C82   1.383454 A    
O28   C24   1.263932 A    
C3    O11   1.259501 A    
C32   C40   1.496935 S    
C83   N3    1.437504 S    
C58   H18   1.079772 S    
O37   Cr5   1.936622 S    
O38   C18   1.269707 A    
C8    O20   1.263377 A    
C75   H23   1.083309 S    
C19   O43   1.260132 A    
C37   H7    1.110325 S    
N12   O75   1.301548 A    
O19   Cr11  2.061640 S    
C21   C97   1.450019 S    
C3    C50   1.474566 S    
C76   H24   1.083110 S    
C47   H15   1.081681 S    
C39   C40   1.533073 S    
C92   C96   1.383315 A    
C79   C99   1.398464 A    
O15   C7    1.278418 A    
O31   Cr3   1.941394 S    
C44   C64   1.403555 A    
C16   C85   1.452911 S    
C82   C86   1.414384 A    
C1    C52   1.474587 S    
C38   N6    1.462755 S    
C57   H17   1.079074 S    
C45   C49   1.401011 A    
O37   C17   1.272131 A    
O22   Cr10  1.931590 S    
C44   C48   1.393273 A    
N9    O69   1.301610 A    
C7    C28   1.445903 S    
C79   F3    1.351920 S    
C22   C98   1.461197 S    
C60   H20   1.079778 S    
N6    O64   1.300446 A    
O17   Cr9   2.061640 S    
C77   F1    1.357795 S    
C23   C99   1.461943 S    
O6    C2    1.281881 A    
C87   C91   1.406832 A    
C19   C72   1.450632 S    
C17   O41   1.266651 A    
C95   C99   1.400928 A    
C90   C94   1.392788 A    
C46   C50   1.400252 A    
C35   H3    1.083534 S    
C17   C70   1.436174 S    
C14   O34   1.262404 A    
C43   H11   1.080703 S    
C34   H2    1.083234 S    
C35   C36   1.380947 A    
C79   C83   1.390427 A    
C25   C34   1.406371 A    
C39   H5    1.110328 S    
C43   C63   1.404497 A    
O1    Cr1   2.059855 S    
N1    O54   1.301477 A    
C20   C71   1.447934 S    
C80   F4    1.361258 S    
Cr8   O52   1.976712 S    
O32   C16   1.263757 A    
O41   Cr9   2.047222 S    
C65   C66   1.386970 A    
C40   H6    1.111012 S    
C10   C62   1.465977 S    
C81   C85   1.405303 A    
Cr6   O50   1.976712 S    
O46   C22   1.271561 A    
Cr12  O52   1.977877 S    
C67   F11   1.359817 S    
C58   C62   1.394004 A    
O45   C21   1.271856 A    
C84   N4    1.439334 S    
N9    O70   1.300267 A    
C6    C25   1.446269 S    
O33   Cr5   2.058564 S    
C55   C59   1.392928 A    
O23   C11   1.296805 A    
O10   Cr6   2.055485 S    
C69   C73   1.405478 A    
N1    O53   1.301644 A    
O16   C8    1.275749 A    
O35   Cr7   2.058564 S    
O4    Cr4   2.064520 S    
C15   C86   1.466132 S    
C74   H22   1.083699 S    
O29   Cr1   1.941394 S    
C8    C27   1.446263 S    
C42   C46   1.393268 A    
O28   Cr4   2.066681 S    
C16   O36   1.266945 A    
O40   C20   1.276561 A    
C30   C38   1.496926 S    
C27   C31   1.399112 A    
N2    O56   1.301829 A    
C6    O18   1.263363 A    
O43   Cr11  2.047222 S    
N11   O73   1.301590 A    
O27   C23   1.293827 A    
O45   Cr9   1.942575 S    
C94   C98   1.406249 A    
C78   C98   1.408121 A    
C85   C89   1.411852 A    
C80   C84   1.377241 A    
N4    O60   1.301302 A    
O31   C15   1.283519 A    
N8    O67   1.301108 A    
C24   C100  1.442374 S    
Cr9   O49   1.977108 S    
C84   C88   1.429828 A    
C28   C35   1.407771 A    
C39   N7    1.462876 S    
O38   Cr6   1.934364 S    
