data_mof_unit_27541.cif
_audit_creation_date              2013-03-05T15:46:01-0500
_audit_creation_method            fapswitch 2.2
_symmetry_space_group_name_H-M    P1
_symmetry_Int_Tables_number       1
_space_group_crystal_system       triclinic
_cell_length_a                    17.51008
_cell_length_b                    24.624471
_cell_length_c                    14.912655
_cell_angle_alpha                 90.699413
_cell_angle_beta                  125.377751
_cell_angle_gamma                 89.500324
_cell_volume                      5242.30472016

loop_
_atom_site_label
_atom_site_type_symbol
_atom_site_description
_atom_site_fract_x
_atom_site_fract_y
_atom_site_fract_z
_atom_type_partial_charge
C1    C     C_R   0.310820 0.125211 0.907461 -0.083543
C2    C     C_R   0.341060 0.853422 0.901044 -0.154861
C3    C     C_R   0.808836 0.622761 0.906845 -0.081970
C4    C     C_R   0.811838 0.372831 0.905050 -0.159851
H1    H     H_    0.253534 0.132039 0.822634 0.125168
H2    H     H_    0.298409 0.842070 0.814922 0.150530
H3    H     H_    0.751952 0.629741 0.821920 0.124010
H4    H     H_    0.757146 0.363791 0.819935 0.134696
N1    N     N_R   0.392140 0.102630 0.941800 -0.061968
N2    N     N_R   0.392140 0.897370 0.941800 -0.063651
N3    N     N_R   0.892140 0.602630 0.941800 -0.061799
N4    N     N_R   0.892140 0.397370 0.941800 -0.059828
C5    C     C_R   0.428731 0.850984 0.084663 0.191144
C6    C     C_R   0.407561 0.131599 0.092205 0.194133
C7    C     C_R   0.904761 0.371112 0.090313 0.174822
C8    C     C_R   0.902483 0.627178 0.090946 0.182443
N5    N     N_R   0.450890 0.896450 0.057150 -0.075901
N6    N     N_R   0.450890 0.103550 0.057150 -0.058444
N7    N     N_R   0.950890 0.396450 0.057150 -0.080293
N8    N     N_R   0.950890 0.603550 0.057150 -0.063519
C9    C     C_R   0.543713 0.045228 0.302448 -0.139089
C10   C     C_R   0.545615 0.955740 0.303073 -0.146648
C11   C     C_R   0.054516 0.545771 0.305407 -0.136963
C12   C     C_R   0.055502 0.456614 0.307420 -0.132562
H5    H     H_    0.563037 0.086114 0.332659 0.133809
H6    H     H_    0.568093 0.915382 0.334120 0.108447
H7    H     H_    0.074439 0.586844 0.335296 0.144769
H8    H     H_    0.077207 0.416441 0.340499 0.109603
N9    N     N_R   0.525160 0.027960 0.206160 -0.041014
N10   N     N_R   0.525160 0.972040 0.206160 -0.042768
N11   N     N_R   0.025160 0.527960 0.206160 -0.040764
N12   N     N_R   0.025160 0.472040 0.206160 -0.044376
C13   C     C_R   0.242505 0.953961 0.698135 -0.153331
C14   C     C_R   0.244536 0.045166 0.696660 -0.164622
C15   C     C_R   0.744248 0.454329 0.695961 -0.141471
C16   C     C_R   0.745909 0.545314 0.695831 -0.158304
H9    H     H_    0.226205 0.911844 0.673390 0.101723
H10   H     H_    0.233120 0.086787 0.669615 0.098144
H11   H     H_    0.728877 0.412404 0.669254 0.089458
H12   H     H_    0.735179 0.586975 0.669047 0.097391
N13   N     N_R   0.317870 0.971120 0.792790 -0.036954
N14   N     N_R   0.317870 0.028880 0.792790 -0.037755
N15   N     N_R   0.817870 0.471120 0.792790 -0.035159
N16   N     N_R   0.817870 0.528880 0.792790 -0.037760
C17   C     C_R   0.318802 0.143791 0.000086 -0.018945
C18   C     C_R   0.360094 0.824298 0.988124 0.031048
C19   C     C_R   0.813495 0.639043 0.998576 -0.031154
C20   C     C_R   0.818305 0.355770 0.996440 0.023935
C21   C     C_R   0.556821 0.000768 0.365470 0.064326
C22   C     C_R   0.073877 0.502050 0.369553 0.038601
C23   C     C_R   0.195888 0.999408 0.636495 0.040689
C24   C     C_R   0.697832 0.499808 0.634577 0.038938
C25   C     C_R   0.518593 0.045427 0.751926 -0.143596
C26   C     C_R   0.522164 0.954961 0.754489 -0.103524
C27   C     C_R   0.016826 0.545051 0.750350 -0.093043
C28   C     C_R   0.014039 0.453992 0.746072 -0.122616
H13   H     H_    0.523459 0.087536 0.737973 0.120101
H14   H     H_    0.533605 0.912850 0.745299 0.122639
H15   H     H_    0.022423 0.586706 0.733356 0.097443
H16   H     H_    0.017824 0.412080 0.726623 0.101719
N17   N     N_R   0.473480 0.027920 0.793480 -0.038295
N18   N     N_R   0.473480 0.972080 0.793480 -0.044193
N19   N     N_R   0.973480 0.527920 0.793480 -0.039303
N20   N     N_R   0.973480 0.472080 0.793480 -0.043955
C29   C     C_R   0.768259 0.953810 0.252414 -0.154350
C30   C     C_R   0.767678 0.045639 0.250551 -0.123287
C31   C     C_R   0.268538 0.453857 0.253537 -0.154071
C32   C     C_R   0.267915 0.545692 0.252476 -0.120855
H17   H     H_    0.790565 0.911957 0.270658 0.089236
H18   H     H_    0.788304 0.087641 0.265037 0.113209
H19   H     H_    0.290991 0.412010 0.271615 0.090049
H20   H     H_    0.288769 0.587604 0.268194 0.112154
N21   N     N_R   0.681610 0.971120 0.207570 -0.040020
N22   N     N_R   0.681610 0.028880 0.207570 -0.043178
N23   N     N_R   0.181610 0.471120 0.207570 -0.038627
N24   N     N_R   0.181610 0.528880 0.207570 -0.039438
C33   C     C_R   0.653907 0.148418 0.093941 -0.116978
C34   C     C_R   0.648827 0.849471 0.091421 -0.125690
C35   C     C_R   0.157459 0.646874 0.094551 -0.143842
C36   C     C_R   0.149569 0.349710 0.090783 -0.140927
H21   H     H_    0.695792 0.161944 0.178704 0.107314
H22   H     H_    0.692350 0.836606 0.176066 0.095102
H23   H     H_    0.199847 0.660312 0.179319 0.118687
H24   H     H_    0.193022 0.336233 0.175143 0.101923
N25   N     N_R   0.605410 0.102620 0.056870 -0.043345
N26   N     N_R   0.605410 0.897380 0.056870 -0.041163
N27   N     N_R   0.105410 0.602620 0.056870 -0.042439
N28   N     N_R   0.105410 0.397380 0.056870 -0.036674
C37   C     C_R   0.557295 0.848526 0.908815 -0.160171
C38   C     C_R   0.563403 0.149980 0.910924 -0.162991
C39   C     C_R   0.057614 0.349250 0.907745 -0.140070
C40   C     C_R   0.068598 0.647794 0.911243 -0.155698
H25   H     H_    0.515413 0.834781 0.824050 0.103326
H26   H     H_    0.523277 0.164370 0.827167 0.112195
H27   H     H_    0.015522 0.335792 0.822797 0.099211
H28   H     H_    0.032004 0.661039 0.827065 0.098122
N29   N     N_R   0.549680 0.896430 0.944180 -0.039378
N30   N     N_R   0.549680 0.103570 0.944180 -0.039369
N31   N     N_R   0.049680 0.396430 0.944180 -0.035930
N32   N     N_R   0.049680 0.603570 0.944180 -0.039815
Ni1   Ni    Ni4+2 0.433410 0.064680 0.868830 0.213554
Ni2   Ni    Ni4+2 0.433410 0.935320 0.868830 0.202454
Ni3   Ni    Ni4+2 0.933410 0.564680 0.868830 0.215622
Ni4   Ni    Ni4+2 0.933410 0.435320 0.868830 0.203764
Ni5   Ni    Ni4+2 0.565650 0.934380 0.131170 0.195173
Ni6   Ni    Ni4+2 0.565650 0.065620 0.131170 0.203697
Ni7   Ni    Ni4+2 0.065650 0.434380 0.131170 0.190356
Ni8   Ni    Ni4+2 0.065650 0.565620 0.131170 0.205383
C41   C     C_R   0.554689 0.000545 0.730620 0.050223
C42   C     C_R   0.041174 0.499429 0.718247 0.084297
C43   C     C_R   0.823822 0.999594 0.281522 0.034091
C44   C     C_R   0.324100 0.499738 0.283822 0.033269
C45   C     C_R   0.629848 0.177812 0.003953 0.096057
C46   C     C_R   0.618240 0.818357 0.999649 0.119272
C47   C     C_R   0.139111 0.673939 0.004879 0.109966
C48   C     C_R   0.119237 0.319385 0.998082 0.080220
C49   C     C_3   0.084172 0.956770 0.451238 -0.495465
C50   C     C_3   0.036914 0.986016 0.577956 -0.431513
C51   C     C_3   0.585845 0.460228 0.446415 -0.501722
C52   C     C_3   0.540002 0.482270 0.577334 -0.429757
H29   H     H_    0.123741 0.968947 0.417454 0.182069
H30   H     H_    0.055639 0.012615 0.648321 0.182635
H31   H     H_    0.624890 0.474934 0.413563 0.185655
H32   H     H_    0.558616 0.506937 0.649917 0.184071
H33   H     H_    0.111057 0.916144 0.488611 0.141558
H34   H     H_    0.053159 0.944071 0.611405 0.142288
H35   H     H_    0.613805 0.419153 0.480340 0.141657
H36   H     H_    0.558157 0.439748 0.607716 0.144156
C53   C     C_3   0.978175 0.952061 0.359639 0.057091
C54   C     C_3   0.932233 0.988658 0.481180 0.044206
C55   C     C_3   0.479697 0.455660 0.354676 0.061166
C56   C     C_3   0.434832 0.484241 0.481821 0.034187
H37   H     H_    0.955846 0.913610 0.376704 0.057721
H38   H     H_    0.903809 0.947314 0.474878 0.059422
H39   H     H_    0.458310 0.415418 0.366607 0.058626
H40   H     H_    0.408674 0.441916 0.472088 0.060472
H41   H     H_    0.117079 0.065850 0.454527 0.160830
H42   H     H_    0.081390 0.088021 0.540257 0.155163
H43   H     H_    0.613564 0.570128 0.457244 0.158074
H44   H     H_    0.580949 0.587611 0.548279 0.155097
H45   H     H_    0.963445 0.067293 0.309434 0.171684
H46   H     H_    0.934697 0.088013 0.400457 0.171848
H47   H     H_    0.458154 0.573704 0.317137 0.172631
H48   H     H_    0.432821 0.586348 0.414275 0.169904
C57   C     C_3   0.072051 0.055578 0.482239 -0.411789
C58   C     C_3   0.570818 0.557164 0.486559 -0.410888
C59   C     C_3   0.099379 0.999331 0.538120 0.333451
C60   C     C_3   0.600766 0.499781 0.537234 0.332783
C61   C     C_3   0.923807 0.999454 0.372157 0.250698
C62   C     C_3   0.424427 0.499740 0.373421 0.249863
C63   C     C_3   0.969718 0.055494 0.384564 -0.397067
C64   C     C_3   0.467757 0.557259 0.391610 -0.389459
C65   C     C_R   0.206155 0.785960 0.907372 0.572238
C66   C     C_R   0.252240 0.233060 0.937592 0.577483
C67   C     C_R   0.667640 0.314767 0.937921 0.554297
C68   C     C_R   0.753911 0.730728 0.942962 0.565375
C69   C     C_R   0.622625 0.269818 0.941916 -0.363382
C70   C     C_R   0.702182 0.773175 0.940887 -0.369532
C71   C     C_R   0.152993 0.751612 0.921415 -0.372152
C72   C     C_R   0.198100 0.274396 0.933411 -0.337749
H49   H     H_    0.546933 0.269678 0.896130 0.163889
H50   H     H_    0.699209 0.810365 0.901251 0.167303
H51   H     H_    0.077425 0.754223 0.865878 0.154067
H52   H     H_    0.191282 0.311005 0.889587 0.154285
C73   C     C_R   0.675854 0.225369 0.006357 -0.007037
C74   C     C_R   0.660159 0.769595 0.995968 -0.007126
C75   C     C_R   0.196905 0.713814 0.005693 0.010661
C76   C     C_R   0.159749 0.270821 0.992842 -0.031243
C77   C     C_R   0.773113 0.223312 0.061120 0.203599
C78   C     C_R   0.663075 0.721859 0.048082 0.215527
C79   C     C_R   0.294988 0.707327 0.073208 0.203169
C80   C     C_R   0.169344 0.224336 0.052200 0.220204
C81   C     C_R   0.347765 0.739041 0.053502 -0.300721
C82   C     C_R   0.219541 0.180875 0.050580 -0.309465
C83   C     C_R   0.815534 0.264901 0.046119 -0.272035
C84   C     C_R   0.710379 0.677158 0.044161 -0.333838
H53   H     H_    0.423369 0.734715 0.104577 0.171721
H54   H     H_    0.227466 0.143765 0.093635 0.165786
H55   H     H_    0.889603 0.261554 0.081131 0.154748
H56   H     H_    0.713098 0.639310 0.082290 0.151595
C85   C     C_R   0.304218 0.780326 0.977238 -0.033502
C86   C     C_R   0.261223 0.186004 0.994788 -0.075686
C87   C     C_R   0.765078 0.311639 0.992434 -0.048975
C88   C     C_R   0.756733 0.682291 0.993608 -0.034982
C89   C     C_R   0.619617 0.952708 0.639261 0.188493
C90   C     C_R   0.616199 0.051058 0.639212 0.172469
C91   C     C_R   0.130954 0.473020 0.645034 0.172725
C92   C     C_R   0.988110 0.528906 0.536605 0.158207
C93   C     C_R   0.607078 0.952511 0.538011 -0.276107
C94   C     C_R   0.602530 0.050561 0.536771 -0.210966
C95   C     C_R   0.139408 0.474014 0.557988 -0.285512
C96   C     C_R   0.001290 0.532049 0.455100 -0.268933
H57   H     H_    0.609668 0.914148 0.503943 0.117853
H58   H     H_    0.599661 0.088353 0.499371 0.134414
H59   H     H_    0.195260 0.451855 0.562423 0.124404
H60   H     H_    0.949559 0.553270 0.380032 0.133773
C97   C     C_R   0.589485 0.001273 0.481372 0.085511
C98   C     C_R   0.075270 0.504217 0.465224 0.123710
C99   C     C_R   0.604836 0.001551 0.677364 -0.027939
C100  C     C_R   0.054762 0.500545 0.633166 0.005348
N33   N     N_2   0.957383 0.944012 0.250218 -0.100454
H61   H     H_    0.984355 0.908102 0.243053 0.167975
C101  C     C_3   0.964108 0.988457 0.192560 -0.893043
H62   H     H_    0.960649 0.972304 0.120399 0.240040
H63   H     H_    0.031400 0.010438 0.246331 0.244397
H64   H     H_    0.903426 0.016203 0.159959 0.251814
N34   N     N_2   0.874697 0.026541 0.495582 -0.095503
H65   H     H_    0.812834 0.010595 0.477358 0.176484
C102  C     C_3   0.913487 0.069584 0.577515 -0.915008
H66   H     H_    0.857085 0.098883 0.557022 0.243684
H67   H     H_    0.968610 0.092138 0.578941 0.251267
H68   H     H_    0.941810 0.052549 0.659836 0.249011
N35   N     N_2   0.458528 0.452767 0.244393 -0.097424
H69   H     H_    0.486375 0.418616 0.232630 0.169704
C103  C     C_3   0.464400 0.500554 0.193143 -0.893373
H70   H     H_    0.462352 0.488233 0.119841 0.240973
H71   H     H_    0.530742 0.522851 0.250357 0.244202
H72   H     H_    0.402634 0.527025 0.163144 0.250183
N36   N     N_2   0.376160 0.518691 0.500453 -0.096550
H73   H     H_    0.314313 0.501149 0.478997 0.172116
C104  C     C_3   0.413730 0.558680 0.588214 -0.922461
H74   H     H_    0.356393 0.586043 0.572108 0.246302
H75   H     H_    0.467683 0.584086 0.592462 0.252804
H76   H     H_    0.443203 0.538247 0.667932 0.250546
O1    O     O_3   0.162150 0.822244 0.820847 -0.683193
C105  C     C_3   0.131534 0.869025 0.847930 0.178772
H77   H     H_    0.162816 0.905042 0.836532 0.133045
H78   H     H_    0.154279 0.870756 0.935000 0.079494
C106  C     C_3   0.024772 0.873491 0.768903 -0.290232
H79   H     H_    0.003520 0.873121 0.682768 0.202094
H80   H     H_    0.991790 0.838041 0.779096 0.196290
C107  C     C_3   0.988717 0.925542 0.789089 -1.021712
H81   H     H_    0.006184 0.925914 0.873553 0.274006
H82   H     H_    0.911417 0.927887 0.729147 0.272681
H83   H     H_    0.020238 0.961646 0.778458 0.266938
O2    O     O_3   0.300629 0.240032 0.890905 -0.675322
C108  C     C_3   0.388634 0.264334 0.969198 0.191613
H84   H     H_    0.443597 0.240095 0.971533 0.125690
H85   H     H_    0.407789 0.265060 0.054909 0.089013
C109  C     C_3   0.390548 0.322363 0.935056 -0.285575
H86   H     H_    0.387333 0.321422 0.858400 0.200914
H87   H     H_    0.328975 0.345357 0.918750 0.202808
C110  C     C_3   0.479109 0.351849 0.025531 -1.047382
H88   H     H_    0.482214 0.354109 0.101960 0.265628
H89   H     H_    0.478621 0.393846 0.999193 0.277014
H90   H     H_    0.542175 0.330129 0.043139 0.269826
O3    O     O_3   0.614693 0.357705 0.870423 -0.669093
C111  C     C_3   0.625199 0.403611 0.934519 0.180335
H91   H     H_    0.690635 0.425578 0.962198 0.118313
H92   H     H_    0.627322 0.392491 0.008160 0.092965
C112  C     C_3   0.542570 0.442026 0.863266 -0.249271
H93   H     H_    0.539824 0.453330 0.789511 0.201442
H94   H     H_    0.476166 0.421004 0.835062 0.205149
C113  C     C_3   0.551077 0.493600 0.926280 -1.057498
H95   H     H_    0.553483 0.483441 0.000239 0.271263
H96   H     H_    0.489478 0.520159 0.872538 0.272625
H97   H     H_    0.615507 0.516194 0.951939 0.273956
O4    O     O_3   0.803233 0.737727 0.897439 -0.671513
C114  C     C_3   0.893363 0.757786 0.980071 0.169618
H98   H     H_    0.939745 0.723268 0.028585 0.137226
H99   H     H_    0.892179 0.787675 0.036323 0.090259
C115  C     C_3   0.935620 0.785808 0.927781 -0.260164
H100  H     H_    0.944419 0.755786 0.878170 0.193693
H101  H     H_    0.888077 0.818520 0.872400 0.209292
C116  C     C_3   0.030527 0.810401 0.016552 -1.044690
H102  H     H_    0.022716 0.840893 0.066272 0.269542
H103  H     H_    0.060130 0.831053 0.977810 0.274187
H104  H     H_    0.080056 0.778175 0.071501 0.274785
N37   N     N_2   0.828532 0.179309 0.129768 -0.109583
H105  H     H_    0.865439 0.160281 0.103930 0.169250
C117  C     C_3   0.888637 0.194267 0.245163 -0.962810
H106  H     H_    0.928856 0.158550 0.294368 0.242339
H107  H     H_    0.846215 0.209624 0.273736 0.257538
H108  H     H_    0.939666 0.225919 0.259832 0.265401
N38   N     N_2   0.614973 0.718253 0.098564 -0.109487
H109  H     H_    0.564588 0.688292 0.063727 0.170624
C118  C     C_3   0.675283 0.714590 0.217201 -0.967906
H110  H     H_    0.632209 0.717664 0.249792 0.252422
H111  H     H_    0.727000 0.748204 0.253239 0.252798
H112  H     H_    0.713087 0.675087 0.242711 0.249175
N39   N     N_2   0.340996 0.670469 0.162472 -0.112659
H113  H     H_    0.385947 0.644359 0.159602 0.166740
C119  C     C_3   0.386106 0.697170 0.268613 -0.988929
H114  H     H_    0.409382 0.666746 0.333333 0.245504
H115  H     H_    0.336548 0.725243 0.269666 0.262446
H116  H     H_    0.448539 0.720048 0.288312 0.271337
N40   N     N_2   0.125262 0.220051 0.107698 -0.106444
H117  H     H_    0.069629 0.245726 0.082959 0.162377
C120  C     C_3   0.185221 0.209867 0.224867 -0.950640
H118  H     H_    0.188339 0.246702 0.270636 0.238674
H119  H     H_    0.257848 0.198956 0.253901 0.253490
H120  H     H_    0.155644 0.175973 0.244038 0.258490
N41   N     N_2   0.650180 0.904676 0.703586 -0.120923
H121  H     H_    0.644843 0.869617 0.661714 0.169287
C121  C     C_3   0.740718 0.910116 0.808100 -0.932493
H122  H     H_    0.761936 0.870952 0.851809 0.247743
H123  H     H_    0.737763 0.941007 0.860934 0.263648
H124  H     H_    0.794705 0.921863 0.794961 0.254692
N42   N     N_2   0.640809 0.099654 0.704261 -0.113593
H125  H     H_    0.679045 0.092968 0.787836 0.171480
C122  C     C_3   0.670221 0.147395 0.676063 -0.944521
H126  H     H_    0.690923 0.179731 0.738780 0.252871
H127  H     H_    0.611412 0.163520 0.595560 0.253064
H128  H     H_    0.731351 0.137643 0.674150 0.255446
N43   N     N_2   0.196689 0.443411 0.741977 -0.114282
H129  H     H_    0.225590 0.410461 0.728247 0.163161
C123  C     C_3   0.267476 0.476623 0.833203 -0.914301
H130  H     H_    0.312734 0.450749 0.906431 0.254915
H131  H     H_    0.234779 0.508178 0.854718 0.260199
H132  H     H_    0.311890 0.496465 0.812121 0.250492
N44   N     N_2   0.906335 0.553040 0.519692 -0.111037
H133  H     H_    0.885763 0.588539 0.475262 0.162480
C124  C     C_3   0.828764 0.516036 0.478510 -0.922560
H134  H     H_    0.770644 0.537419 0.474217 0.239561
H135  H     H_    0.849961 0.480799 0.534004 0.261620
H136  H     H_    0.803177 0.501311 0.394775 0.246177
N45   N     N_2   0.476745 0.830406 0.192721 -0.115037
H137  H     H_    0.546389 0.840978 0.242566 0.154909
C125  C     C_3   0.426844 0.837509 0.242704 -0.965325
H138  H     H_    0.469894 0.821590 0.327833 0.249765
H139  H     H_    0.359394 0.815276 0.195208 0.274487
H140  H     H_    0.411425 0.881058 0.245432 0.257099
N46   N     N_2   0.453603 0.157059 0.197457 -0.119978
H141  H     H_    0.411499 0.181246 0.208813 0.171686
C126  C     C_3   0.543564 0.181295 0.238871 -0.997782
H142  H     H_    0.574866 0.197804 0.322924 0.252432
H143  H     H_    0.535506 0.214796 0.185031 0.248607
H144  H     H_    0.592490 0.150600 0.243530 0.257845
N47   N     N_2   0.947899 0.348032 0.196010 -0.116255
H145  H     H_    0.019724 0.344876 0.243382 0.146200
C127  C     C_3   0.903840 0.359435 0.251695 -0.930179
H146  H     H_    0.944373 0.339721 0.333459 0.249436
H147  H     H_    0.831474 0.343121 0.203700 0.256418
H148  H     H_    0.901101 0.403853 0.263146 0.255574
N48   N     N_2   0.941345 0.645514 0.200032 -0.119075
H149  H     H_    0.892906 0.655500 0.215810 0.175498
C128  C     C_3   0.016043 0.684853 0.243900 -1.007022
H150  H     H_    0.052900 0.688153 0.334331 0.256807
H151  H     H_    0.986907 0.725419 0.208359 0.246025
H152  H     H_    0.067835 0.672261 0.227186 0.259196

loop_
_geom_bond_atom_site_label_1
_geom_bond_atom_site_label_2
_geom_bond_distance
_ccdc_geom_bond_type
N23   Ni7   1.888786 S    
C27   H15   1.078333 S    
C56   C62   1.569981 S    
C14   N14   1.318445 A    
C35   N27   1.320325 A    
C128  H150  1.110040 S    
C22   C98   1.413080 S    
C78   C84   1.392734 A    
C122  H126  1.111054 S    
C79   C81   1.372186 A    
C18   C85   1.409364 S    
C65   O1    1.386306 S    
N4    Ni4   1.877974 S    
H42   C57   1.111368 S    
C93   C97   1.402526 A    
C117  H106  1.102050 S    
N21   N22   1.422312 A    
C113  H96   1.110383 S    
C36   C48   1.371975 A    
N40   C120  1.449194 S    
C96   C98   1.389653 A    
C4    N4    1.325521 A    
C8    N48   1.420886 S    
C54   H38   1.115963 S    
C33   C45   1.366021 A    
C43   C61   1.466951 S    
C111  H92   1.114569 S    
C17   C86   1.412337 S    
C6    C17   1.386529 A    
N35   C103  1.447213 S    
C73   C77   1.399592 A    
N3    N8    1.402921 A    
N46   H141  1.030248 S    
C91   N43   1.425040 S    
N48   C128  1.446693 S    
C75   C79   1.409160 A    
C51   C60   1.553592 S    
C9    N9    1.339980 A    
C11   N11   1.324483 A    
H46   C63   1.108379 S    
C90   C94   1.402643 A    
N23   N24   1.422312 A    
C12   N12   1.337287 A    
C106  H79   1.111222 S    
C101  H63   1.109425 S    
C34   H22   1.079879 S    
C32   H20   1.074698 S    
C107  H82   1.110550 S    
C10   C21   1.378752 A    
C53   H37   1.114310 S    
C52   C60   1.557770 S    
C51   H31   1.111330 S    
N37   C117  1.448706 S    
N15   N16   1.422312 A    
C90   C99   1.414817 A    
C41   C99   1.486851 S    
C72   H52   1.084516 S    
C128  H152  1.111604 S    
C83   C87   1.389897 A    
C122  H128  1.111259 S    
C25   C41   1.390564 A    
C84   C88   1.398496 A    
C114  H99   1.118301 S    
C115  H101  1.110122 S    
C67   O3    1.385260 S    
C91   C100  1.408667 A    
C92   N44   1.427497 S    
C68   C70   1.365917 A    
C36   N28   1.333198 A    
C30   H18   1.075896 S    
C71   C75   1.390754 A    
C72   C76   1.391499 A    
N28   N31   1.370205 A    
C3    N3    1.326036 A    
N48   H149  1.030184 S    
C31   C44   1.387400 A    
C48   C76   1.409442 S    
C94   C97   1.403415 A    
N8    Ni8   1.884876 S    
C125  H139  1.108812 S    
C35   C47   1.362420 A    
C55   N35   1.462505 S    
C120  H120  1.109645 S    
C9    C21   1.380388 A    
C121  H123  1.110852 S    
C21   C97   1.472957 S    
C14   C23   1.381037 A    
C104  H74   1.110211 S    
C50   C59   1.555674 S    
C106  C107  1.525957 S    
C61   C63   1.557446 S    
C67   C87   1.403905 A    
C124  H135  1.109837 S    
N36   C104  1.448493 S    
C92   C100  1.409850 A    
C30   N22   1.318418 A    
C40   H28   1.080623 S    
O2    C108  1.418299 S    
C50   H30   1.107335 S    
C126  H143  1.108161 S    
N26   N29   1.370205 A    
N15   Ni4   1.868918 S    
C25   N17   1.331584 A    
N43   C123  1.447031 S    
C27   N19   1.321057 A    
C51   C55   1.547388 S    
C28   N20   1.330701 A    
C23   C59   1.461926 S    
C49   C53   1.545427 S    
C16   C24   1.378339 A    
C53   N33   1.462855 S    
C33   N25   1.325312 A    
C24   C60   1.462557 S    
C118  H110  1.110569 S    
C119  H116  1.110669 S    
N33   C101  1.446872 S    
C7    C20   1.391879 A    
C78   N38   1.421682 S    
C8    C19   1.388277 A    
N16   Ni3   1.872501 S    
C80   C82   1.387804 A    
C120  H118  1.110920 S    
C12   C22   1.360018 A    
C42   C100  1.420460 S    
C103  H72   1.108749 S    
C69   C73   1.400346 A    
C112  C113  1.526480 S    
C113  H97   1.111146 S    
N46   C126  1.449099 S    
N17   Ni1   1.857766 S    
N6    Ni6   1.884876 S    
C53   C61   1.576122 S    
N41   H121  1.031827 S    
C127  H147  1.109497 S    
N21   Ni5   1.888786 S    
N11   N12   1.377003 A    
C56   H40   1.115697 S    
C110  H90   1.109876 S    
C102  H66   1.110289 S    
C89   C99   1.408744 A    
C116  H103  1.104367 S    
C74   C78   1.401290 A    
C123  H130  1.110213 S    
N44   C124  1.447185 S    
N10   Ni5   1.869365 S    
C44   C62   1.467464 S    
C89   N41   1.423983 S    
N25   Ni6   1.863178 S    
N14   Ni1   1.872501 S    
N27   N32   1.370615 A    
N20   Ni4   1.876995 S    
C9    H5    1.072128 S    
C10   N10   1.338037 A    
C12   H8    1.074531 S    
C89   C93   1.394295 A    
C115  H100  1.110984 S    
N39   C119  1.448299 S    
N33   H61   1.032112 S    
C5    N5    1.332471 A    
C92   C96   1.365276 A    
C123  H132  1.111707 S    
C108  H85   1.117908 S    
C90   N42   1.433619 S    
H48   C64   1.107893 S    
C1    C17   1.378025 A    
N2    Ni2   1.877974 S    
C3    C19   1.377209 A    
C109  H86   1.111462 S    
C71   H51   1.082497 S    
C37   H25   1.081993 S    
N17   N18   1.375033 A    
C127  H148  1.109883 S    
C95   H59   1.084077 S    
C39   H27   1.081991 S    
N19   N20   1.375033 A    
C93   H57   1.080195 S    
N1    N6    1.402921 A    
C84   H56   1.083970 S    
C31   N23   1.324789 A    
C105  H77   1.111523 S    
C118  H112  1.111451 S    
C119  H114  1.102609 S    
N34   C102  1.448305 S    
C39   N31   1.316605 A    
C49   H33   1.111122 S    
N18   Ni2   1.876995 S    
C51   H35   1.111632 S    
C117  H108  1.111480 S    
H43   C58   1.113428 S    
C67   C69   1.386052 A    
N13   N14   1.422312 A    
N38   H109  1.031444 S    
C95   C98   1.392724 A    
C36   H24   1.081264 S    
C115  C116  1.526916 S    
C68   C88   1.404716 A    
C112  H93   1.111558 S    
N35   H69   1.031528 S    
C7    N7    1.328583 A    
C40   N32   1.320854 A    
C1    H1    1.080559 S    
C96   H60   1.085654 S    
H41   C57   1.113436 S    
C104  H76   1.110145 S    
C3    H3    1.080385 S    
C45   C73   1.415485 S    
C110  H88   1.109897 S    
C102  H68   1.110382 S    
N11   Ni8   1.888941 S    
N45   C125  1.448420 S    
C57   C59   1.548113 S    
N12   Ni7   1.869365 S    
C30   C43   1.390298 A    
N9    N10   1.377003 A    
C82   H54   1.084217 S    
N29   Ni2   1.915172 S    
N31   Ni4   1.915172 S    
C81   C85   1.385250 A    
N24   Ni8   1.885142 S    
C52   C56   1.544428 S    
N37   H105  1.031629 S    
C82   C86   1.395780 A    
C34   C46   1.371002 A    
C128  H151  1.109045 S    
C38   H26   1.081473 S    
C58   C60   1.548234 S    
C122  H127  1.110101 S    
C101  H64   1.108809 S    
N34   H65   1.032153 S    
C1    N1    1.322037 A    
N19   Ni3   1.857766 S    
H44   C58   1.112276 S    
C121  H122  1.105266 S    
N28   Ni7   1.843913 S    
C25   H13   1.073808 S    
C11   C22   1.353634 A    
C26   N18   1.343202 A    
C109  C110  1.524911 S    
C2    C18   1.352474 A    
C28   H16   1.080482 S    
C15   H11   1.080534 S    
C127  H146  1.110169 S    
C113  H95   1.110661 S    
C50   C54   1.544003 S    
N40   H117  1.031306 S    
C33   H21   1.080339 S    
C6    N46   1.423433 S    
N13   Ni2   1.868918 S    
C77   C83   1.364511 A    
C5    N45   1.415658 S    
H47   C64   1.104187 S    
C65   C85   1.407487 A    
C32   N24   1.317534 A    
C69   H49   1.083958 S    
N36   H73   1.032134 S    
C111  H91   1.110653 S    
C70   C74   1.388044 A    
C4    C20   1.371554 A    
C37   C46   1.364731 A    
C7    N47   1.419084 S    
C19   C88   1.423242 S    
C20   C87   1.415884 S    
C52   H36   1.114326 S    
C13   C23   1.379855 A    
N30   Ni1   1.919207 S    
C49   C59   1.555704 S    
C13   N13   1.323142 A    
C106  H80   1.110111 S    
C35   H23   1.079819 S    
N42   H125  1.032257 S    
C124  H134  1.110439 S    
C29   H17   1.079585 S    
N4    N7    1.403310 A    
C107  H81   1.110796 S    
O4    C114  1.414209 S    
C31   H19   1.079857 S    
N32   Ni3   1.919207 S    
C103  H70   1.111278 S    
C126  H142  1.110291 S    
C40   C47   1.372710 A    
C13   H9    1.080341 S    
C125  H138  1.110138 S    
C76   C80   1.404002 A    
N41   C121  1.448415 S    
N43   H129  1.032045 S    
C10   H6    1.072519 S    
C15   C24   1.378528 A    
C55   C62   1.574951 S    
N44   H133  1.032078 S    
C77   N37   1.422038 S    
C119  H115  1.111826 S    
N47   H145  1.028434 S    
C6    N6    1.329375 A    
C4    H4    1.080313 S    
C114  C115  1.523755 S    
C39   C48   1.359090 A    
N38   C118  1.446454 S    
C55   H39   1.114349 S    
C103  H71   1.109454 S    
C32   C44   1.388481 A    
C5    C18   1.391403 A    
C112  H94   1.111629 S    
N2    N5    1.403310 A    
C29   N21   1.323515 A    
C38   C45   1.367366 A    
C49   H29   1.111439 S    
C29   C43   1.387149 A    
N25   N30   1.370615 A    
C102  H67   1.107184 S    
N27   Ni8   1.863178 S    
C110  H89   1.108902 S    
C54   N34   1.469890 S    
C11   H7    1.076277 S    
C116  H102  1.110994 S    
C91   C95   1.389567 A    
C111  C112  1.528977 S    
C8    N8    1.337849 A    
C34   N26   1.334490 A    
C125  H140  1.109569 S    
C2    H2    1.081472 S    
C28   C42   1.377921 A    
C46   C74   1.418877 S    
C121  H124  1.111889 S    
C68   O4    1.385927 S    
C16   H12   1.080280 S    
C80   N40   1.426573 S    
C94   H58   1.076573 S    
C124  H136  1.111501 S    
C83   H55   1.084690 S    
N39   H113  1.031602 S    
C107  H83   1.110617 S    
C26   C41   1.402383 A    
C37   N29   1.323220 A    
C123  H131  1.110566 S    
C65   C71   1.367299 A    
C126  H144  1.109572 S    
C66   C72   1.361967 A    
N5    Ni5   1.888885 S    
N22   Ni6   1.885142 S    
C81   H53   1.084433 S    
C54   C61   1.570939 S    
C109  H87   1.109619 S    
O1    C105  1.416355 S    
N47   C127  1.447735 S    
N42   C122  1.448285 S    
C57   C63   1.519942 S    
C58   C64   1.517473 S    
C105  H78   1.116486 S    
C118  H111  1.110260 S    
C27   C42   1.374013 A    
C62   C64   1.557687 S    
N9    Ni6   1.888941 S    
C108  C109  1.529886 S    
N26   Ni5   1.843913 S    
C47   C75   1.411099 S    
C114  H98   1.108184 S    
C2    N2    1.308382 A    
C15   N15   1.325568 A    
H45   C63   1.103016 S    
C26   H14   1.076520 S    
C117  H107  1.110864 S    
C14   H10   1.079910 S    
O3    C111  1.413837 S    
C105  C106  1.531077 S    
C56   N36   1.470337 S    
C104  H75   1.108141 S    
C79   N39   1.421175 S    
C66   C86   1.400175 A    
C120  H119  1.111853 S    
N45   H137  1.028897 S    
C116  H104  1.110990 S    
C16   N16   1.318291 A    
C70   H50   1.080498 S    
N1    Ni1   1.858380 S    
C66   O2    1.385879 S    
N3    Ni3   1.858380 S    
C50   H34   1.113407 S    
C101  H62   1.111036 S    
C108  H84   1.111479 S    
C38   N30   1.329040 A    
C52   H32   1.107103 S    
N7    Ni7   1.888885 S    
