data_mof_unit_16908.cif
_audit_creation_date              2012-12-10T16:52:15-0500
_audit_creation_method            fapswitch 2.2
_symmetry_space_group_name_H-M    P1
_symmetry_Int_Tables_number       1
_space_group_crystal_system       triclinic
_cell_length_a                    10.990453
_cell_length_b                    10.955528
_cell_length_c                    9.711107
_cell_angle_alpha                 89.827986
_cell_angle_beta                  101.852781
_cell_angle_gamma                 90.05034
_cell_volume                      1144.34179817

loop_
_atom_site_label
_atom_site_type_symbol
_atom_type_description
_atom_site_fract_x
_atom_site_fract_y
_atom_site_fract_z
_atom_type_partial_charge
C1    C     C_R   0.502332 0.265506 0.500453 0.825388
C2    C     C_2   0.478070 0.865617 0.495505 -0.210508
C3    C     C_2   0.460896 0.067573 0.389912 0.273321
C4    C     C_2   0.518008 0.133380 0.502100 0.191120
C5    C     C_2   0.412595 0.450571 0.902066 0.042118
C6    C     C_2   0.423631 0.436090 0.058380 0.158516
C7    C     C_R   0.262534 0.502391 0.443758 0.847668
C8    C     C_R   0.496436 0.734531 0.498875 0.900034
C9    C     C_R   0.737327 0.504380 0.556025 0.830101
C10   C     C_2   0.126548 0.499757 0.414401 0.116354
C11   C     C_2   0.061392 0.563353 0.495401 0.277935
C12   C     C_2   0.872065 0.520872 0.583163 -0.252989
C13   C     C_2   0.927052 0.547011 0.475408 -0.093650
C14   C     C_2   0.485423 0.935284 0.383535 0.344214
Cu1   Cu    Cu3+1 0.500020 0.500020 0.638640 1.042177
Cu2   Cu    Cu3+1 0.499980 0.499980 0.361360 1.079622
H1    H     H_    0.873234 0.552792 0.368468 0.203739
H2    H     H_    0.584961 0.510414 0.909820 0.266296
H3    H     H_    0.362764 0.370210 0.093454 0.136110
H4    H     H_    0.925807 0.514687 0.690167 0.196255
H5    H     H_    0.452757 0.906053 0.587797 0.170501
H6    H     H_    0.329862 0.414996 0.833402 0.152711
N1    N     N_2   0.498650 0.498660 0.846590 -0.248389
N2    N     N_2   0.498620 0.498630 0.152710 -0.033342
O1    O     O_R   0.500020 0.321960 0.617050 -0.613040
O2    O     O_R   0.499980 0.321920 0.382890 -0.542268
O3    O     O_R   0.320700 0.500020 0.574050 -0.559828
O4    O     O_R   0.320660 0.499980 0.339890 -0.535854
O5    O     O_R   0.500020 0.678080 0.617110 -0.545005
O6    O     O_R   0.499980 0.678040 0.382950 -0.537395
O7    O     O_R   0.679340 0.500020 0.660110 -0.580312
O8    O     O_R   0.679300 0.499980 0.425950 -0.591535
O9    O     O_3   0.550349 0.597876 0.107111 -0.610743
H7    H     H_    0.604622 0.632847 0.191613 0.391695
S1    S     S_3+6 0.127907 0.677676 0.617776 0.016620
O10   O     O_2   0.187963 0.618757 0.754738 -0.278923
O11   O     O_2   0.223139 0.749771 0.560979 -0.318948
O12   O     O_3   0.015586 0.772784 0.646219 -0.499492
H8    H     H_    0.058426 0.831393 0.717488 0.388328
S2    S     S_3+6 0.052450 0.399657 0.278608 0.003709
O13   O     O_2   0.964371 0.316459 0.333558 -0.278083
O14   O     O_2   0.980908 0.474285 0.158832 -0.283724
O15   O     O_3   0.158538 0.314391 0.220281 -0.501906
H9    H     H_    0.110702 0.268664 0.138978 0.380437
O16   O     O_3   0.513501 0.884541 0.263545 -0.681488
H10   H     H_    0.523208 0.951582 0.197831 0.342750
O17   O     O_3   0.380403 0.124131 0.279793 -0.715608
H11   H     H_    0.340679 0.060605 0.212858 0.343508
O18   O     O_3   0.599781 0.077847 0.612031 -0.752846
H12   H     H_    0.638491 0.141289 0.679663 0.344651

loop_
_geom_bond_atom_site_label_1
_geom_bond_atom_site_label_2
_ccdc_geom_bond_type
Cu2   O4    S    
C7    C10   S    
O15   H9    S    
Cu1   O7    S    
C5    H6    S    
N2    O9    S    
Cu2   O8    S    
Cu1   O3    S    
S1    O10   D    
C5    N1    D    
C13   H1    S    
C4    O18   S    
C1    C4    S    
C8    O6    A    
C12   H4    S    
C2    H5    S    
Cu1   N1    S    
O9    H7    S    
C6    N2    D    
Cu2   N2    S    
O16   H10   S    
C1    O1    A    
C6    H3    S    
C11   C13   S    
C5    C6    S    
C3    C14   S    
C8    O5    A    
C3    O17   S    
S2    O13   D    
S1    O11   D    
Cu1   O5    S    
C14   O16   S    
S2    O15   S    
Cu2   O2    S    
C1    O2    A    
C2    C14   D    
C9    C12   S    
Cu1   O1    S    
C10   C11   D    
C9    O7    A    
Cu2   O6    S    
C3    C4    D    
O17   H11   S    
S1    O12   S    
C7    O3    A    
C12   C13   D    
C10   S2    S    
O18   H12   S    
C9    O8    A    
C11   S1    S    
Cu1   Cu2   S    
C2    C8    S    
C7    O4    A    
H2    N1    S    
S2    O14   D    
O12   H8    S    
