data_mof_unit_63413.cif
_audit_creation_date              2012-12-10T16:44:46-0500
_audit_creation_method            fapswitch 2.2
_symmetry_space_group_name_H-M    P1
_symmetry_Int_Tables_number       1
_space_group_crystal_system       triclinic
_cell_length_a                    18.478243
_cell_length_b                    18.44178
_cell_length_c                    18.453881
_cell_angle_alpha                 119.788909
_cell_angle_beta                  119.743599
_cell_angle_gamma                 90.423519
_cell_volume                      4461.55895165

loop_
_atom_site_label
_atom_site_type_symbol
_atom_type_description
_atom_site_fract_x
_atom_site_fract_y
_atom_site_fract_z
_atom_type_partial_charge
C1    C     C_R   0.138423 0.361008 0.001479 0.739352
C2    C     C_R   0.533873 0.166870 0.747994 0.620394
C3    C     C_R   0.590026 0.217941 0.748846 -0.291892
C4    C     C_R   0.862375 0.639418 0.000865 0.824280
C5    C     C_R   0.678050 0.263583 0.831662 -0.265326
C6    C     C_2   0.723588 0.779019 0.942517 0.599786
C7    C     C_2   0.685094 0.797841 0.992156 -0.456744
C8    C     C_2   0.769253 0.713722 0.934811 0.423560
C9    C     C_2   0.818494 0.705694 0.012514 0.158846
C10   C     C_2   0.717487 0.280651 0.445078 0.508688
C11   C     C_2   0.703014 0.193030 0.387490 0.324051
C12   C     C_R   0.821459 0.235898 0.165514 -0.393186
C13   C     C_2   0.781523 0.336517 0.556501 -0.171949
C14   C     C_2   0.798876 0.305038 0.612789 -0.310997
C15   C     C_2   0.336282 0.280963 0.052376 -0.100764
C16   C     C_R   0.138531 0.638171 0.277015 0.854083
C17   C     C_2   0.305148 0.192201 0.989486 -0.244299
C18   C     C_2   0.276621 0.332887 0.040641 -0.257915
C19   C     C_2   0.193237 0.304586 0.010982 0.404423
C20   C     C_2   0.220335 0.794457 0.956911 -0.244986
C21   C     C_2   0.306033 0.803386 0.998679 -0.349176
C22   C     C_2   0.161226 0.736133 0.951817 0.549507
C23   C     C_R   0.784128 0.243023 0.082023 0.014591
C24   C     C_2   0.194407 0.704280 0.009170 -0.408400
C25   C     C_2   0.219187 0.776780 0.556299 -0.147304
C26   C     C_2   0.307816 0.809187 0.612271 -0.259383
C27   C     C_2   0.162931 0.723094 0.443949 -0.136425
C28   C     C_R   0.860662 0.361405 0.723012 0.864004
C29   C     C_2   0.195360 0.690989 0.387712 -0.265825
C30   C     C_R   0.639378 0.138598 0.277156 0.794477
C31   C     C_R   0.361646 0.861867 0.722979 0.876978
C32   C     C_R   0.637706 0.860617 0.999123 0.890482
C33   C     C_R   0.361555 0.138478 0.998681 0.823546
C34   C     C_R   0.838812 0.297190 0.082456 -0.008231
C35   C     C_R   0.360553 0.860243 0.999931 0.893919
C36   C     C_R   0.639279 0.139947 0.999455 0.883175
C37   C     C_R   0.139397 0.641199 0.001267 0.875673
C38   C     C_R   0.860104 0.360008 0.999947 0.783918
C39   C     C_R   0.928864 0.343108 0.166262 -0.358772
C40   C     C_R   0.964058 0.335548 0.247663 0.643512
C41   C     C_R   0.911737 0.280650 0.247541 0.496430
C42   C     C_3   0.913313 0.828134 0.175060 -0.283185
C43   C     C_3   0.084952 0.170265 0.918912 -0.252813
C44   C     C_3   0.039861 0.777941 0.923720 -0.190918
C45   C     C_R   0.693749 0.196545 0.998428 -0.057396
C46   C     C_3   0.921386 0.192122 0.305703 -0.236001
C47   C     C_3   0.456394 0.162462 0.856592 -0.254759
C48   C     C_R   0.656709 0.203961 0.914803 -0.127032
C49   C     C_R   0.713129 0.257030 0.915149 0.018710
C50   C     C_R   0.803156 0.303674 0.999071 -0.029655
C51   C     C_R   0.564775 0.161547 0.831074 0.402075
F1    F     F_    0.762895 0.662970 0.846127 -0.610567
F2    F     F_    0.673788 0.321760 0.401202 -0.635061
F3    F     F_    0.751895 0.152388 0.428773 -0.679021
F4    F     F_    0.050563 0.381279 0.327042 -0.617287
F5    F     F_    0.448176 0.122302 0.665865 -0.643822
F6    F     F_    0.717562 0.816304 0.892824 -0.596937
H1    H     H_    0.565073 0.222713 0.685021 0.198280
H2    H     H_    0.338085 0.768411 0.031422 0.158676
H3    H     H_    0.264305 0.727412 0.068076 0.128717
H4    H     H_    0.185586 0.790676 0.593727 0.183824
H5    H     H_    0.343724 0.799093 0.578238 0.164134
H6    H     H_    0.092029 0.708866 0.406767 0.185016
H7    H     H_    0.265173 0.701480 0.421556 0.160730
H8    H     H_    0.780712 0.196322 0.168096 0.158576
H9    H     H_    0.718239 0.303710 0.828861 0.173105
H10   H     H_    0.918694 0.867366 0.146510 0.145324
H11   H     H_    0.968241 0.800513 0.191914 0.159881
H12   H     H_    0.684921 0.763701 0.025922 0.183685
H13   H     H_    0.920719 0.874306 0.247941 0.210992
H14   H     H_    0.074327 0.164838 0.851163 0.145533
H15   H     H_    0.030110 0.185305 0.926647 0.208170
H16   H     H_    0.083267 0.104144 0.904727 0.184166
H17   H     H_    0.067294 0.838939 0.934255 0.133305
H18   H     H_    0.055210 0.793471 0.997416 0.135477
H19   H     H_    0.966791 0.754681 0.869983 0.223744
H20   H     H_    0.916136 0.139749 0.235820 0.141291
H21   H     H_    0.857626 0.179135 0.296649 0.157572
H22   H     H_    0.970872 0.188275 0.369047 0.206217
H23   H     H_    0.811680 0.406454 0.593110 0.215107
H24   H     H_    0.412665 0.123805 0.859286 0.163498
H25   H     H_    0.413393 0.177138 0.800689 0.199644
H26   H     H_    0.500803 0.225302 0.934334 0.147480
H27   H     H_    0.764898 0.237062 0.578695 0.219061
H28   H     H_    0.406810 0.316562 0.110224 0.186879
H29   H     H_    0.235913 0.156874 0.926160 0.179508
H30   H     H_    0.302385 0.395868 0.056304 0.144168
H31   H     H_    0.973392 0.385258 0.169873 0.184455
H32   H     H_    0.191040 0.828640 0.921495 0.194682
O1    O     O_3   0.000000 0.500000 0.000000 -0.509845
O2    O     O_R   0.325040 0.054120 0.939900 -0.643903
O3    O     O_R   0.444330 0.884140 0.060080 -0.639300
O4    O     O_R   0.054210 0.325030 0.939940 -0.647252
O5    O     O_R   0.615830 0.175840 0.060080 -0.650432
O6    O     O_R   0.324160 0.884140 0.939910 -0.641373
O7    O     O_R   0.615850 0.055700 0.939930 -0.593987
O8    O     O_R   0.614980 0.885710 0.939940 -0.572526
O9    O     O_R   0.445830 0.174930 0.060060 -0.629621
O10   O     O_R   0.614300 0.054120 0.229160 -0.603277
O11   O     O_R   0.325070 0.885060 0.770830 -0.649381
O12   O     O_R   0.054160 0.614240 0.229150 -0.640299
O13   O     O_R   0.885070 0.614240 0.060060 -0.619112
O14   O     O_R   0.174980 0.614900 0.229170 -0.634406
O15   O     O_R   0.885740 0.445830 0.770840 -0.617141
O16   O     O_R   0.175880 0.615810 0.060090 -0.650323
O17   O     O_R   0.884210 0.324110 0.939920 -0.640470
O18   O     O_R   0.055710 0.615810 0.939920 -0.584789
O19   O     O_R   0.884190 0.444260 0.060070 -0.630524
O20   O     O_3   0.830069 0.760624 0.105545 -0.626538
O21   O     O_3   0.167207 0.233249 0.010794 -0.596068
O22   O     O_3   0.070848 0.710001 0.881374 -0.563234
O23   O     O_R   0.885120 0.325030 0.770840 -0.638676
O24   O     O_3   0.950193 0.278299 0.332697 -0.551658
O25   O     O_3   0.504834 0.111065 0.826436 -0.590725
O26   O     O_R   0.175010 0.445830 0.060100 -0.645602
O27   O     O_R   0.885710 0.614900 0.939900 -0.605320
O28   O     O_3   0.500040 0.999960 0.000000 -0.522144
O29   O     O_R   0.614930 0.174930 0.229160 -0.604025
O30   O     O_R   0.445880 0.885710 0.770850 -0.609375
O31   O     O_R   0.614330 0.885060 0.060100 -0.643297
Zn1   Zn    Zn3+2 0.956610 0.542450 0.085830 0.989206
Zn2   Zn    Zn3+2 0.129220 0.543380 0.085850 0.984268
Zn3   Zn    Zn3+2 0.957530 0.543380 0.914160 1.030386
Zn4   Zn    Zn3+2 0.956640 0.370790 0.914170 0.977848
Zn5   Zn    Zn3+2 0.543440 0.957510 0.914170 1.057064
Zn6   Zn    Zn3+2 0.542510 0.956570 0.085840 1.002092
Zn7   Zn    Zn3+2 0.370820 0.956570 0.914150 0.979088
Zn8   Zn    Zn3+2 0.543410 0.129170 0.085830 1.011343

loop_
_geom_bond_atom_site_label_1
_geom_bond_atom_site_label_2
_ccdc_geom_bond_type
C43   H16   S    
C47   O25   S    
C37   O18   A    
C43   H15   S    
C23   C45   A    
O27   Zn3   S    
C27   C29   D    
O11   Zn7   S    
O1    Zn3   S    
C15   C18   S    
O4    Zn4   S    
C14   H27   S    
O19   Zn1   S    
O15   Zn3   S    
C28   O23   A    
C12   C23   A    
O2    Zn7   S    
C38   O19   A    
C42   O20   S    
O23   Zn4   S    
C33   O2    A    
C46   H22   S    
O31   Zn6   S    
C45   C48   A    
C42   H13   S    
C32   O8    A    
C33   O9    A    
C47   H25   S    
C44   H19   S    
C10   F2    S    
C28   O15   A    
O29   Zn8   S    
C48   C51   A    
C11   C30   S    
C8    C9    D    
C4    O13   A    
O16   Zn2   S    
C43   O21   S    
O18   Zn3   S    
O13   Zn1   S    
O28   Zn6   S    
C8    F1    S    
C15   H28   S    
C35   O3    A    
C40   F4    S    
O9    Zn8   S    
C13   H23   S    
C26   C31   S    
O26   Zn2   S    
C13   C14   D    
C42   H11   S    
O1    Zn2   S    
C6    F6    S    
C5    C49   A    
C17   C33   S    
C39   H31   S    
C32   O31   A    
O10   Zn6   S    
C9    O20   S    
C34   C50   A    
C51   O25   S    
C1    C19   S    
C17   H29   S    
O8    Zn5   S    
C10   C11   D    
C39   C40   A    
C46   H21   S    
C18   C19   D    
C6    C8    S    
C30   O29   A    
C16   C29   S    
C30   O10   A    
O12   Zn1   S    
C34   C39   A    
C38   O17   A    
C44   H18   S    
C3    H1    S    
C37   O16   A    
C12   C41   A    
C36   O5    A    
C36   O7    A    
C16   O14   A    
C24   H3    S    
C23   C34   A    
C24   C37   S    
C36   C45   S    
C25   H4    S    
C31   O11   A    
C44   H17   S    
O28   Zn7   S    
C31   O30   A    
C11   F3    S    
C27   H6    S    
C21   C35   S    
O30   Zn5   S    
C48   C49   A    
C20   C22   S    
C49   C50   A    
C47   H26   S    
C42   H10   S    
O1    Zn1   S    
C22   C24   D    
C20   H32   S    
C19   O21   S    
C15   C17   D    
C40   C41   A    
C43   H14   S    
C7    C32   S    
C46   O24   S    
O1    Zn4   S    
C4    O27   A    
C41   O24   S    
C5    H9    S    
C3    C5    A    
C10   C13   S    
O3    Zn6   S    
C7    H12   S    
C46   H20   S    
C21   H2    S    
C6    C7    D    
C38   C50   S    
O5    Zn8   S    
C25   C27   S    
C12   H8    S    
C18   H30   S    
C2    C3    A    
C25   C26   D    
C2    F5    S    
O7    Zn5   S    
C47   H24   S    
C26   H5    S    
O28   Zn8   S    
C29   H7    S    
C2    C51   A    
C44   O22   S    
O6    Zn7   S    
C16   O12   A    
C20   C21   D    
C1    O4    A    
C22   O22   S    
O17   Zn4   S    
C1    O26   A    
C14   C28   S    
C4    C9    S    
O14   Zn2   S    
O28   Zn5   S    
C35   O6    A    
