data_mof_unit_54625.cif
_audit_creation_date              2012-12-10T16:43:23-0500
_audit_creation_method            fapswitch 2.2
_symmetry_space_group_name_H-M    P1
_symmetry_Int_Tables_number       1
_space_group_crystal_system       triclinic
_cell_length_a                    10.768168
_cell_length_b                    8.725048
_cell_length_c                    7.461382
_cell_angle_alpha                 103.083678
_cell_angle_beta                  93.372388
_cell_angle_gamma                 92.500143
_cell_volume                      680.467432883

loop_
_atom_site_label
_atom_site_type_symbol
_atom_type_description
_atom_site_fract_x
_atom_site_fract_y
_atom_site_fract_z
_atom_type_partial_charge
C1    C     C_R   0.498775 0.200122 0.454147 0.906640
C2    C     C_R   0.066365 0.484676 0.665119 0.098048
C3    C     C_R   0.129102 0.532024 0.523661 -0.120180
C4    C     C_R   0.059800 0.575550 0.381411 -0.227926
C5    C     C_R   0.931017 0.555999 0.366951 -0.183087
C6    C     C_R   0.870772 0.482823 0.489011 -0.093094
C7    C     C_2   0.495871 0.032764 0.432686 -0.449569
C8    C     C_2   0.525181 0.967021 0.574417 0.191258
C9    C     C_R   0.262958 0.513278 0.507056 0.783975
C10   C     C_R   0.508587 0.799819 0.546646 0.811527
C11   C     C_R   0.736879 0.490595 0.495091 0.786268
C12   C     C_R   0.121319 0.491293 0.843460 0.182812
C13   C     C_R   0.072635 0.388605 0.945017 -0.182656
C14   C     C_R   0.958393 0.305522 0.886956 -0.159021
C15   C     C_R   0.889087 0.333680 0.734939 -0.140747
C16   C     C_R   0.940716 0.431593 0.628061 0.042066
Cu1   Cu    Cu3+1 0.513920 0.517380 0.684380 0.998347
Cu2   Cu    Cu3+1 0.486080 0.482620 0.315620 0.968754
H1    H     H_    0.106111 0.626639 0.283466 0.163992
H2    H     H_    0.596760 0.622075 0.050902 0.232791
H3    H     H_    0.119444 0.379480 0.073829 0.172390
H4    H     H_    0.919490 0.228864 0.967551 0.179080
H5    H     H_    0.796780 0.276862 0.699624 0.192784
H6    H     H_    0.878756 0.598789 0.261501 0.167213
H7    H     H_    0.463237 0.961229 0.297619 0.167630
H8    H     H_    0.403750 0.377253 0.948971 0.246459
N1    N     N_2   0.465100 0.456430 0.038520 -0.208031
N2    N     N_2   0.534900 0.543570 0.961480 -0.202689
O1    O     O_R   0.509050 0.286130 0.619770 -0.533363
O2    O     O_R   0.485540 0.256780 0.308360 -0.557651
O3    O     O_R   0.331410 0.514680 0.655740 -0.589206
O4    O     O_R   0.307900 0.485330 0.344330 -0.599711
O5    O     O_R   0.514460 0.743220 0.691640 -0.540294
O6    O     O_R   0.490950 0.713870 0.380230 -0.622499
O7    O     O_R   0.692100 0.514670 0.655670 -0.574455
O8    O     O_R   0.668590 0.485320 0.344260 -0.581324
C17   C     C_3   0.194461 0.639538 0.948186 -0.800772
H9    H     H_    0.130788 0.715896 0.034693 0.203823
H10   H     H_    0.271596 0.612148 0.038008 0.248398
H11   H     H_    0.230941 0.712957 0.857478 0.241204
Cl1   Cl    Cl    0.590370 0.069621 0.796488 -0.619185

loop_
_geom_bond_atom_site_label_1
_geom_bond_atom_site_label_2
_ccdc_geom_bond_type
C4    H1    S    
C17   H9    S    
C3    C9    S    
C10   O5    A    
Cu1   O1    S    
C7    H7    S    
C2    C12   A    
C14   H4    S    
C15   H5    S    
Cu1   Cu2   S    
C13   H3    S    
C7    C8    D    
C17   H10   S    
C13   C14   A    
C8    Cl1   S    
Cu2   O6    S    
H8    N1    S    
C5    H6    S    
Cu1   O5    S    
Cu2   O2    S    
C1    O1    A    
C11   O8    A    
C2    C3    A    
C17   H11   S    
C5    C6    A    
Cu1   O3    S    
Cu2   O4    S    
C9    O3    A    
C6    C16   A    
C3    C4    A    
C12   C17   S    
C2    C16   A    
C12   C13   A    
C10   O6    A    
C6    C11   S    
C14   C15   A    
C1    O2    A    
Cu1   O7    S    
H2    N2    S    
C9    O4    A    
C1    C7    S    
Cu1   N2    S    
Cu2   O8    S    
C11   O7    A    
C8    C10   S    
Cu2   N1    S    
C15   C16   A    
C4    C5    A    
N1    N2    D    
