data_mof_unit_48685.cif
_audit_creation_date              2012-12-11T16:29:24-0500
_audit_creation_method            fapswitch 2.2
_symmetry_space_group_name_H-M    P1
_symmetry_Int_Tables_number       1
_space_group_crystal_system       triclinic
_cell_length_a                    6.950864
_cell_length_b                    17.253
_cell_length_c                    18.838732
_cell_angle_alpha                 106.197849
_cell_angle_beta                  89.20045
_cell_angle_gamma                 90.158782
_cell_volume                      2169.30844658

loop_
_atom_site_label
_atom_site_type_symbol
_atom_type_description
_atom_site_fract_x
_atom_site_fract_y
_atom_site_fract_z
_atom_type_partial_charge
O1    O     O_R   0.494360 0.415680 0.413760 -0.542281
O2    O     O_R   0.818810 0.432910 0.557230 -0.525135
O3    O     O_R   0.994290 0.584320 0.586240 -0.534141
C1    C     C_R   0.649858 0.417504 0.581940 0.739819
O4    O     O_R   0.823740 0.406440 0.412520 -0.513601
O5    O     O_R   0.999250 0.557660 0.440500 -0.515389
C2    C     C_R   0.656831 0.383265 0.384642 0.865929
O6    O     O_R   0.489400 0.442340 0.559500 -0.524488
O7    O     O_3   0.662500 0.549650 0.509350 -0.362007
V1    V     V_3+5 0.935340 0.490790 0.498270 1.422607
O8    O     O_R   0.329270 0.567090 0.442770 -0.533887
C3    C     C_R   0.161413 0.584386 0.419695 0.703357
O9    O     O_R   0.324340 0.593560 0.587480 -0.535832
C4    C     C_R   0.154440 0.616228 0.615192 0.697223
V2    V     V_3+5 0.435970 0.509210 0.501730 1.401086
O10   O     O_3   0.158940 0.450350 0.490650 -0.363359
H1    H     H_    0.380826 0.865019 0.564953 0.121500
C5    C     C_R   0.004995 0.594612 0.753050 -0.227174
C6    C     C_R   0.929629 0.581830 0.818219 0.342238
C7    C     C_R   0.925258 0.645723 0.882822 -0.121789
C8    C     C_R   0.989761 0.721982 0.882232 -0.210808
C9    C     C_R   0.059195 0.737101 0.816440 0.069161
C10   C     C_R   0.068219 0.671951 0.750506 0.031556
C11   C     C_R   0.122669 0.815249 0.816037 -0.151617
C12   C     C_R   0.194357 0.828195 0.749307 0.031890
C13   C     C_R   0.203903 0.763031 0.683394 0.071952
C14   C     C_R   0.142256 0.684668 0.683968 -0.153978
C15   C     C_R   0.252609 0.906008 0.746431 -0.223585
C16   C     C_R   0.317966 0.919895 0.680398 0.347017
C17   C     C_R   0.328117 0.855534 0.616245 -0.131455
C18   C     C_R   0.270977 0.778466 0.617409 -0.211122
H2    H     H_    0.012033 0.543296 0.704534 0.107611
H3    H     H_    0.873758 0.636256 0.934272 0.136807
H4    H     H_    0.985493 0.768646 0.934270 0.122068
H5    H     H_    0.244603 0.957320 0.794945 0.106317
H6    H     H_    0.278471 0.731474 0.565631 0.119163
C19   C     C_1   0.111220 0.863876 0.132623 -0.214288
C20   C     C_1   0.118806 0.821320 0.176216 0.003833
C21   C     C_1   0.128522 0.771156 0.228149 0.013170
C22   C     C_1   0.136883 0.728953 0.272023 0.032371
C23   C     C_1   0.146627 0.678899 0.324030 0.034382
C24   C     C_1   0.154172 0.636448 0.367691 -0.230024
C25   C     C_1   0.641122 0.365820 0.634237 -0.243350
C26   C     C_1   0.637067 0.322779 0.677414 -0.006252
C27   C     C_1   0.634020 0.271898 0.728724 -0.004255
C28   C     C_1   0.631829 0.229109 0.772134 0.008047
C29   C     C_1   0.628793 0.178360 0.823555 0.009988
C30   C     C_1   0.624593 0.135335 0.866754 -0.179380
C31   C     C_R   0.760922 0.405626 0.236074 0.147144
C32   C     C_R   0.804499 0.413668 0.165124 0.235269
C33   C     C_R   0.733108 0.357612 0.102705 0.253148
C34   C     C_R   0.637794 0.289052 0.110713 0.114345
C35   C     C_R   0.645507 0.268445 0.178435 -0.048205
C36   C     C_R   0.686413 0.330748 0.244336 -0.041796
C37   C     C_R   0.608621 0.188472 0.181598 -0.087397
C38   C     C_R   0.582377 0.172982 0.250902 0.026460
C39   C     C_R   0.614852 0.234615 0.317761 -0.016567
C40   C     C_R   0.655033 0.315338 0.314836 -0.129026
C41   C     C_R   0.522759 0.095764 0.254286 -0.226833
C42   C     C_R   0.498697 0.078127 0.321141 -0.194705
C43   C     C_R   0.547181 0.134785 0.387223 0.307736
C44   C     C_R   0.613421 0.211875 0.385381 0.188558
H7    H     H_    0.489975 0.047899 0.205132 0.127591
H8    H     H_    0.446851 0.018738 0.320372 0.139576
O11   O     O_R   0.775690 0.057750 0.940570 -0.525479
O12   O     O_R   0.441200 0.093570 0.087490 -0.516062
O13   O     O_R   0.265840 0.942320 0.059480 -0.527503
C45   C     C_R   0.608360 0.119225 0.113018 0.761279
O14   O     O_R   0.446270 0.067110 0.942790 -0.508624
O15   O     O_R   0.270950 0.915660 0.913750 -0.538818
C46   C     C_R   0.615446 0.083161 0.918601 0.763485
O16   O     O_R   0.770580 0.084400 0.086300 -0.535666
O17   O     O_3   0.602640 0.950400 0.990690 -0.370053
V3    V     V_3+5 0.329740 0.009200 0.001730 1.481179
O18   O     O_R   0.940900 0.906360 0.912450 -0.539368
C47   C     C_R   0.110797 0.883660 0.884830 0.687598
O19   O     O_R   0.935830 0.932820 0.057160 -0.529263
C48   C     C_R   0.103720 0.915875 0.080552 0.702858
V4    V     V_3+5 0.829130 0.990680 0.998180 1.439107
O20   O     O_3   0.106100 0.049590 0.009310 -0.341539
N1    N     N_2   0.796019 0.472707 0.297994 -0.512176
H9    H     H_    0.933472 0.495277 0.298855 0.283592
C49   C     C_3   0.649806 0.534903 0.310920 -0.443228
H10   H     H_    0.675472 0.580332 0.364597 0.194931
H11   H     H_    0.504746 0.508285 0.312661 0.188077
H12   H     H_    0.653754 0.565905 0.266604 0.211204
Br1   Br    Br    0.951792 0.504305 0.152911 -0.568207
N2    N     N_2   0.753108 0.371245 0.031744 -0.467791
H13   H     H_    0.768255 0.320091 0.987860 0.280602
C50   C     C_3   0.627330 0.431734 0.017096 -0.375316
H14   H     H_    0.510806 0.402033 0.979324 0.196016
H15   H     H_    0.712191 0.470455 0.990114 0.207723
H16   H     H_    0.560589 0.470897 0.068661 0.214818
Br2   Br    Br    0.438977 0.246987 0.040391 -0.559630
N3    N     N_2   0.705511 0.260876 0.449146 -0.538411
H17   H     H_    0.636270 0.261683 0.497923 0.249200
C51   C     C_3   0.909317 0.244447 0.451227 -0.473083
H18   H     H_    0.973418 0.286630 0.500800 0.192420
H19   H     H_    0.983960 0.252864 0.401348 0.195132
H20   H     H_    0.932733 0.181689 0.454109 0.194611
N4    N     N_2   0.864381 0.503828 0.819319 -0.518338
H21   H     H_    0.910358 0.457422 0.774854 0.256497
C52   C     C_3   0.661082 0.498755 0.835156 -0.532622
H22   H     H_    0.626320 0.436966 0.838338 0.206697
H23   H     H_    0.574725 0.511815 0.790601 0.193159
H24   H     H_    0.621111 0.541799 0.889061 0.197603
N5    N     N_2   0.377757 0.998498 0.679036 -0.526431
H25   H     H_    0.407170 0.037061 0.730313 0.254263
C53   C     C_3   0.259321 0.036027 0.635335 -0.552688
H26   H     H_    0.321735 0.095393 0.635432 0.204820
H27   H     H_    0.111187 0.045740 0.659144 0.201792
H28   H     H_    0.253301 0.998084 0.577155 0.197495
N6    N     N_2   0.537108 0.115444 0.456282 -0.522050
H29   H     H_    0.444845 0.151342 0.494976 0.245404
C54   C     C_3   0.544661 0.031936 0.457345 -0.562645
H30   H     H_    0.572972 0.029372 0.514488 0.216461
H31   H     H_    0.663437 0.999689 0.420974 0.207357
H32   H     H_    0.405024 0.001773 0.439619 0.184420

loop_
_geom_bond_atom_site_label_1
_geom_bond_atom_site_label_2
_ccdc_geom_bond_type
O12   C45   A    
C37   C38   A    
N4    H21   S    
O11   V4    S    
O17   V3    S    
N3    H17   S    
C1    O6    A    
C51   H18   S    
C50   H14   S    
C39   C44   A    
O19   C48   A    
C34   C35   A    
C12   C15   A    
C13   C14   A    
C19   C20   T    
C15   C16   A    
O16   V4    S    
C53   H27   S    
O5    C3    A    
C20   C21   S    
V2    O10   S    
O12   V3    S    
C38   C39   A    
C5    C6    A    
C23   C24   T    
C31   N1    S    
O14   C46   A    
C3    C24   S    
N1    C49   S    
O8    V2    S    
C29   C30   T    
C15   H5    S    
C44   N3    S    
C54   H31   S    
O15   V3    S    
N5    H25   S    
C34   Br2   S    
O1    V2    S    
C10   C14   A    
C4    C14   S    
O7    V1    S    
C2    C40   S    
O19   V4    S    
C41   C42   A    
N4    C52   S    
V3    O20   S    
C8    C9    A    
H1    C17   S    
N5    C53   S    
O13   C48   A    
C51   H19   S    
C37   C45   S    
C35   C37   A    
C5    C10   A    
C11   C12   A    
C53   H28   S    
C21   C22   T    
O4    C2    A    
C11   C47   S    
C8    H4    S    
C12   C13   A    
O11   C46   A    
N1    H9    S    
C33   C34   A    
C42   C43   A    
O2    C1    A    
O18   C47   A    
C16   C17   A    
C50   H15   S    
C49   H10   S    
C45   O16   A    
C54   H32   S    
C32   C33   A    
O17   V4    S    
O14   V3    S    
C52   H23   S    
O13   V3    S    
C7    C8    A    
O3    C4    A    
C32   Br1   S    
C7    H3    S    
C22   C23   S    
C49   H11   S    
N2    C50   S    
O6    V2    S    
O9    V2    S    
C25   C26   T    
C43   N6    S    
C9    C11   A    
C5    H2    S    
C30   C46   S    
O2    V1    S    
C51   H20   S    
C26   C27   S    
C50   H16   S    
N6    H29   S    
C36   C40   A    
C28   C29   S    
O1    C2    A    
C9    C10   A    
C33   N2    S    
O5    V1    S    
O8    C3    A    
N3    C51   S    
C35   C36   A    
C1    C25   S    
C19   C48   S    
C41   H7    S    
C38   C41   A    
C42   H8    S    
C6    C7    A    
O7    V2    S    
O4    V1    S    
O3    V1    S    
V1    O10   S    
C53   H26   S    
O15   C47   A    
C6    N4    S    
C39   C40   A    
C17   C18   A    
C52   H24   S    
C43   C44   A    
V4    O20   S    
C27   C28   T    
C13   C18   A    
C49   H12   S    
N2    H13   S    
C31   C32   A    
C52   H22   S    
C18   H6    S    
C16   N5    S    
C54   H30   S    
O9    C4    A    
O18   V4    S    
C31   C36   A    
N6    C54   S    
