data_mof_unit_67063.cif
_audit_creation_date              2012-12-11T17:41:21-0500
_audit_creation_method            fapswitch 2.2
_symmetry_space_group_name_H-M    P1
_symmetry_Int_Tables_number       1
_space_group_crystal_system       triclinic
_cell_length_a                    8.247841
_cell_length_b                    12.685994
_cell_length_c                    14.218191
_cell_angle_alpha                 93.228668
_cell_angle_beta                  90.615939
_cell_angle_gamma                 98.607906
_cell_volume                      1468.30904138

loop_
_atom_site_label
_atom_site_type_symbol
_atom_type_description
_atom_site_fract_x
_atom_site_fract_y
_atom_site_fract_z
_atom_type_partial_charge
Ba1   Ba    Ba6+2 0.855630 0.555280 0.454520 1.645794
Ba2   Ba    Ba6+2 0.334200 0.444810 0.545490 1.649447
C1    C     C_3   0.567854 0.916728 0.141053 -0.410388
C2    C     C_R   0.181232 0.502544 0.197056 0.026101
C3    C     C_R   0.333639 0.557605 0.227786 -0.266644
C4    C     C_3   0.136385 0.810039 0.198019 0.382198
C5    C     C_R   0.446165 0.604523 0.164160 0.014125
C6    C     C_R   0.402507 0.605611 0.069105 -0.149270
C7    C     C_R   0.246933 0.556171 0.035879 0.003865
C8    C     C_R   0.135800 0.501633 0.099075 -0.033240
C9    C     C_R   0.053040 0.504585 0.902339 -0.026432
C10   C     C_R   0.941230 0.451174 0.965713 0.005255
C11   C     C_R   0.008399 0.501138 0.804237 0.041257
C12   C     C_3   0.640538 0.858883 0.218188 0.329526
C13   C     C_R   0.855426 0.446798 0.773785 -0.293402
C14   C     C_R   0.741914 0.401921 0.837475 0.012815
C15   C     C_R   0.785207 0.401879 0.932711 -0.143265
C16   C     C_3   0.122989 0.852763 0.100802 -0.371493
C17   C     C_R   0.203957 0.558878 0.939635 -0.039086
C18   C     C_R   0.763535 0.177417 0.538742 -0.225265
C19   C     C_R   0.432865 0.812592 0.460744 -0.279094
C20   C     C_R   0.407060 0.994338 0.430801 -0.084859
C21   C     C_R   0.344772 0.886475 0.423745 -0.012878
C22   C     C_R   0.577827 0.846221 0.512749 0.071575
C23   C     C_3   0.412332 0.249489 0.249216 0.724300
C24   C     C_R   0.641088 0.957244 0.523757 -0.068225
C25   C     C_R   0.554480 0.031791 0.480901 -0.054043
C26   C     C_R   0.616474 0.142092 0.490130 0.104705
C27   C     C_R   0.853053 0.105202 0.577169 -0.021549
C28   C     C_3   0.226270 0.762080 0.656160 0.284663
C29   C     C_R   0.789442 0.996391 0.573689 -0.111336
C30   C     C_3   0.249369 0.881853 0.678610 -0.361081
C31   C     C_3   0.874250 0.233330 0.254682 0.717247
C32   C     C_3   0.847086 0.176073 0.156711 -0.371502
C33   C     C_3   0.715471 0.673928 0.737572 0.308887
C34   C     C_3   0.507439 0.339363 0.193908 -0.384516
C35   C     C_3   0.731513 0.698015 0.843666 -0.393896
C36   C     C_3   0.967942 0.106918 0.347766 0.165126
C37   C     C_3   0.258165 0.190720 0.108771 0.098787
C38   C     C_3   0.046191 0.196549 0.802476 0.371819
C39   C     C_3   0.056088 0.158867 0.901152 -0.385825
C40   C     C_3   0.540601 0.144240 0.769139 0.346546
C41   C     C_3   0.585400 0.056846 0.828992 -0.412188
C42   C     C_R   0.983796 0.449434 0.061902 -0.048562
H1    H     H_    0.724181 0.918227 0.263119 0.079216
H2    H     H_    0.615088 0.606023 0.723196 0.066068
H3    H     H_    0.498882 0.978051 0.172968 0.140989
H4    H     H_    0.836724 0.762165 0.860341 0.126401
H5    H     H_    0.751811 0.625787 0.879683 0.066277
H6    H     H_    0.617449 0.724481 0.870753 0.117546
H7    H     H_    0.540247 0.824187 0.264016 -0.048697
H8    H     H_    0.483819 0.858748 0.095123 0.099932
H9    H     H_    0.321870 0.284459 0.293003 0.019159
H10   H     H_    0.594938 0.307639 0.145331 0.081197
H11   H     H_    0.424411 0.378763 0.150984 0.028436
H12   H     H_    0.342096 0.903358 0.736044 0.110164
H13   H     H_    0.574584 0.401234 0.244023 0.099255
H14   H     H_    0.667065 0.955913 0.097072 0.121063
H15   H     H_    0.155257 0.793651 0.046242 0.066202
H16   H     H_    0.130538 0.273197 0.799322 0.092133
H17   H     H_    0.918370 0.209633 0.788332 -0.069391
H18   H     H_    0.181713 0.141496 0.914956 0.143284
H19   H     H_    0.027907 0.222094 0.952821 0.056203
H20   H     H_    0.967496 0.084957 0.908616 0.108022
H21   H     H_    0.653758 0.179939 0.733974 -0.061280
H22   H     H_    0.450445 0.108215 0.713465 0.075154
H23   H     H_    0.291672 0.925118 0.615869 0.080856
H24   H     H_    0.676225 0.092155 0.884490 0.113243
H25   H     H_    0.639275 0.996902 0.784189 0.093480
H26   H     H_    0.051554 0.733437 0.199775 0.095513
H27   H     H_    0.474640 0.016837 0.863590 0.127641
H28   H     H_    0.369843 0.557366 0.301136 0.070338
H29   H     H_    0.491023 0.643460 0.021019 0.066819
H30   H     H_    0.696534 0.364489 0.980977 0.069764
H31   H     H_    0.820330 0.444807 0.700074 0.066438
H32   H     H_    0.895067 0.408354 0.107306 0.079966
H33   H     H_    0.290423 0.603203 0.894476 0.098684
H34   H     H_    0.131447 0.906457 0.701223 0.147522
H35   H     H_    0.335002 0.047784 0.399249 0.099802
H36   H     H_    0.859994 0.943960 0.607768 0.113607
H37   H     H_    0.813763 0.261420 0.541496 0.067065
H38   H     H_    0.264211 0.795005 0.209153 -0.077910
H39   H     H_    0.382244 0.728670 0.454522 0.065529
H40   H     H_    0.996087 0.867777 0.086710 0.149962
H41   H     H_    0.208140 0.928725 0.096357 0.124383
H42   H     H_    0.344238 0.738271 0.634350 0.005208
H43   H     H_    0.134309 0.742813 0.597866 0.080159
H44   H     H_    0.051357 0.158327 0.398791 0.091905
H45   H     H_    0.784683 0.287979 0.260652 0.059405
H46   H     H_    0.037334 0.082832 0.285735 0.101318
H47   H     H_    0.916727 0.034233 0.382210 0.094638
H48   H     H_    0.352817 0.208312 0.054536 0.068253
H49   H     H_    0.190298 0.259200 0.120938 0.041107
H50   H     H_    0.170383 0.121197 0.080805 0.073134
H51   H     H_    0.887413 0.230891 0.101029 0.033601
H52   H     H_    0.714649 0.146198 0.144899 0.111713
H53   H     H_    0.913739 0.106661 0.149228 0.104180
H54   H     H_    0.832405 0.652435 0.710998 0.009414
O1    O     O_2   0.887370 0.460630 0.272300 -0.498083
O2    O     O_2   0.192466 0.110519 0.565693 -0.493394
O3    O     O_3   0.093795 0.118908 0.738717 -0.602980
O4    O     O_3   0.129410 0.451380 0.388510 -0.462753
O5    O     O_3   0.575400 0.626570 0.547370 -0.493053
O6    O     O_2   0.344320 0.238700 0.455090 -0.488261
O7    O     O_3   0.526975 0.206749 0.303432 -0.637044
O8    O     O_2   0.406613 0.412836 0.835606 -0.493215
O9    O     O_3   0.468658 0.217489 0.827089 -0.595155
O10   O     O_3   0.670210 0.653170 0.329170 -0.467812
O11   O     O_2   0.777988 0.585988 0.164928 -0.485828
O12   O     O_3   0.680564 0.765402 0.695797 -0.642563
O13   O     O_3   0.035986 0.287387 0.266650 -0.685818
O14   O     O_3   0.733157 0.784720 0.176341 -0.592621
O15   O     O_2   0.845380 0.761330 0.544970 -0.466798
O16   O     O_3   0.088930 0.704860 0.376040 -0.485603
O17   O     O_2   0.013376 0.887006 0.444271 -0.495734
O18   O     O_3   0.835030 0.158886 0.324290 -0.696156
O19   O     O_3   0.330197 0.161790 0.191814 -0.645212
O20   O     O_3   0.093636 0.884842 0.266521 -0.605169
O21   O     O_2   0.302330 0.539400 0.727760 -0.466169
O22   O     O_3   0.060300 0.548700 0.611500 -0.497267
O23   O     O_3   0.519500 0.346920 0.670840 -0.477140
O24   O     O_3   0.174196 0.711102 0.737566 -0.639608
O25   O     O_3   0.614310 0.373510 0.452640 -0.478809
O26   O     O_3   0.100780 0.295230 0.623970 -0.481133
P1    P     P_3+3 0.054400 0.427280 0.286870 0.952012
P2    P     P_3+3 0.668300 0.742890 0.573060 0.971435
P3    P     P_3+3 0.136406 0.842395 0.377896 0.940816
P4    P     P_3+3 0.135310 0.572810 0.713130 0.969213
P5    P     P_3+3 0.059941 0.156105 0.624695 0.955021
P6    P     P_3+3 0.655493 0.655624 0.207026 0.964284
P7    P     P_3+3 0.526565 0.240673 0.424717 0.968484
P8    P     P_3+3 0.534537 0.347196 0.793556 0.952041

loop_
_geom_bond_atom_site_label_1
_geom_bond_atom_site_label_2
_ccdc_geom_bond_type
C13   H31   S    
C4    H38   S    
O4    P1    S    
Ba1   O1    S    
Ba1   O10   S    
C23   O7    S    
C29   H36   S    
O1    P1    D    
Ba2   O25   S    
C32   H52   S    
C12   O14   S    
C9    C17   A    
C24   C25   A    
C2    P1    S    
C38   H16   S    
C33   C35   S    
Ba1   P1    S    
C20   H35   S    
C3    H28   S    
Ba2   O4    S    
C13   C14   A    
C32   H53   S    
O17   P3    D    
C42   H32   S    
Ba1   Ba2   S    
C17   H33   S    
O5    P2    S    
C37   H49   S    
C5    P6    S    
C38   O3    S    
C11   P4    S    
C7    C17   A    
C27   P5    S    
C28   O24   S    
C40   C41   S    
C6    C7    A    
O6    P7    D    
C10   C15   A    
O13   P1    S    
C40   H21   S    
C16   H40   S    
C31   O13   S    
C28   H42   S    
C33   H54   S    
C40   O9    S    
Ba1   O5    S    
O10   P6    S    
O21   P4    D    
C24   C29   A    
C41   H25   S    
C18   H37   S    
C23   H9    S    
C22   P2    S    
Ba1   O15   S    
C39   H18   S    
C12   H1    S    
C18   C27   A    
C4    C16   S    
C16   H41   S    
C8    C42   A    
C19   H39   S    
C5    C6    A    
Ba1   P2    S    
O7    P7    S    
C34   H13   S    
C3    C5    A    
Ba2   O22   S    
O2    P5    D    
C14   C15   A    
O15   P2    D    
C18   C26   A    
C37   O19   S    
C36   H47   S    
C38   H17   S    
C36   H44   S    
Ba1   O22   S    
C36   O18   S    
O8    P8    D    
Ba1   O25   S    
C37   H50   S    
C31   H45   S    
C35   H5    S    
C12   H7    S    
Ba2   O6    S    
Ba2   O21   S    
C31   C32   S    
C32   H51   S    
C35   H4    S    
C33   O12   S    
C1    C12   S    
O12   P2    S    
C30   H23   S    
C38   C39   S    
C20   C25   A    
C11   C13   A    
C15   H30   S    
Ba1   O16   S    
C39   H19   S    
O23   P8    S    
C2    C8    A    
C37   H48   S    
O11   P6    D    
O16   P3    S    
C21   P3    S    
C7    C8    A    
Ba2   O23   S    
C4    H26   S    
C31   O18   S    
C41   H27   S    
O25   P7    S    
C22   C24   A    
O9    P8    S    
C23   O19   S    
C1    H8    S    
O22   P4    S    
Ba2   O26   S    
C36   H46   S    
C26   P7    S    
C19   C21   A    
C27   C29   A    
C34   H11   S    
C28   C30   S    
C35   H6    S    
C9    C11   A    
Ba2   O5    S    
C1    H3    S    
C6    H29   S    
C30   H12   S    
O26   P5    S    
O24   P4    S    
C14   P8    S    
C34   H10   S    
C23   C34   S    
C30   H34   S    
C1    H14   S    
C16   H15   S    
C2    C3    A    
C10   C42   A    
O20   P3    S    
C19   C22   A    
C25   C26   A    
C40   H22   S    
C20   C21   A    
C39   H20   S    
O14   P6    S    
C28   H43   S    
C33   H2    S    
Ba1   O4    S    
C4    O20   S    
C9    C10   A    
O3    P5    S    
C41   H24   S    
Ba2   P4    S    
