data_mof_unit_5387.cif
_audit_creation_date              2012-12-10T18:57:09-0500
_audit_creation_method            fapswitch 2.2
_symmetry_space_group_name_H-M    P1
_symmetry_Int_Tables_number       1
_space_group_crystal_system       triclinic
_cell_length_a                    8.735191
_cell_length_b                    10.852641
_cell_length_c                    9.545714
_cell_angle_alpha                 89.855081
_cell_angle_beta                  97.669384
_cell_angle_gamma                 90.31191
_cell_volume                      896.82294726

loop_
_atom_site_label
_atom_site_type_symbol
_atom_type_description
_atom_site_fract_x
_atom_site_fract_y
_atom_site_fract_z
_atom_type_partial_charge
C1    C     C_R   0.502661 0.262334 0.500149 0.870455
C2    C     C_R   0.522947 0.936424 0.372681 0.581859
C3    C     C_R   0.516083 0.870871 0.499515 -0.325030
C4    C     C_R   0.530555 0.936210 0.626415 -0.065040
C5    C     C_3   0.437240 0.928644 0.746468 -0.397331
C6    C     C_3   0.437918 0.068612 0.746751 0.532009
C7    C     C_R   0.568988 0.594011 0.081644 0.273293
C8    C     C_R   0.418684 0.414392 0.064738 -0.007156
C9    C     C_R   0.418572 0.414452 0.915846 0.005600
C10   C     C_R   0.568625 0.594060 0.934129 0.145235
C11   C     C_3   0.733949 0.631820 0.946210 -0.531933
C12   C     C_R   0.204035 0.498820 0.464095 0.859188
C13   C     C_3   0.735714 0.629541 0.105162 0.454859
C14   C     C_R   0.502052 0.737693 0.499801 0.893360
C15   C     C_R   0.796116 0.499938 0.536125 0.885106
C16   C     C_2   0.038585 0.495497 0.444758 -0.317519
C17   C     C_2   0.961892 0.501044 0.556341 -0.352561
C18   C     C_R   0.531271 0.063170 0.626736 0.026777
C19   C     C_R   0.517352 0.129300 0.500063 -0.396860
C20   C     C_R   0.524674 0.064610 0.373081 0.544254
Cu1   Cu    Cu3+1 0.499990 0.499980 0.640670 0.971261
Cu2   Cu    Cu3+1 0.500010 0.500020 0.359330 1.030089
N1    N     N_R   0.500980 0.500930 0.148050 -0.246911
N2    N     N_R   0.500990 0.500890 0.852140 -0.194437
O1    O     O_R   0.500000 0.319640 0.618810 -0.576232
O2    O     O_R   0.500020 0.319680 0.381230 -0.528145
O3    O     O_R   0.274830 0.499980 0.591380 -0.593521
O4    O     O_R   0.274850 0.500020 0.353800 -0.591706
O5    O     O_R   0.499980 0.680320 0.618770 -0.588179
O6    O     O_R   0.500000 0.680360 0.381190 -0.507256
O7    O     O_R   0.725150 0.499980 0.646200 -0.587617
O8    O     O_R   0.725170 0.500020 0.408620 -0.582362
H1    H     H_    0.979877 0.487418 0.337876 0.169617
H2    H     H_    0.354815 0.343940 0.852487 0.158594
H3    H     H_    0.808815 0.559957 0.908581 0.181873
H4    H     H_    0.748231 0.725575 0.902400 0.236279
H5    H     H_    0.811297 0.557364 0.158684 0.068729
F1    F     F_    0.758412 0.745279 0.164876 -0.576511
H6    H     H_    0.021101 0.507405 0.663780 0.172569
F2    F     F_    0.523906 0.123841 0.247432 -0.579545
F3    F     F_    0.517467 0.878170 0.246406 -0.558930
H7    H     H_    0.320587 0.888094 0.714833 0.149837
H8    H     H_    0.503478 0.887336 0.842590 0.254516
H9    H     H_    0.322336 0.111184 0.718789 0.043812
F4    F     F_    0.522906 0.116730 0.867168 -0.589348
H10   H     H_    0.355160 0.343711 0.112923 0.184958

loop_
_geom_bond_atom_site_label_1
_geom_bond_atom_site_label_2
_ccdc_geom_bond_type
C8    C9    A    
C7    C10   A    
C5    H7    S    
C9    N2    A    
C15   O7    A    
C6    F4    S    
C16   H1    S    
C11   C13   S    
C13   H5    S    
C19   C20   A    
C7    N1    A    
C4    C18   A    
C11   H3    S    
C2    C3    A    
Cu1   O3    S    
C15   O8    A    
Cu2   O4    S    
Cu1   Cu2   S    
C1    O1    A    
Cu1   O7    S    
C13   F1    S    
C9    H2    S    
C3    C14   S    
Cu2   O8    S    
C14   O6    A    
C20   F2    S    
C5    C6    S    
C11   H4    S    
C12   O4    A    
C5    H8    S    
C1    O2    A    
C6    C18   S    
C8    H10   S    
C1    C19   S    
C10   C11   S    
C2    F3    S    
C2    C20   A    
C3    C4    A    
C7    C13   S    
C8    N1    A    
C6    H9    S    
C18   C19   A    
Cu2   O2    S    
Cu1   N2    S    
C15   C17   S    
C17   H6    S    
C12   O3    A    
C4    C5    S    
Cu1   O1    S    
Cu2   O6    S    
C10   N2    A    
Cu2   N1    S    
Cu1   O5    S    
C12   C16   S    
C14   O5    A    
C16   C17   D    
