data_mof_unit_67349.cif
_audit_creation_date              2013-03-05T16:08:10-0500
_audit_creation_method            fapswitch 2.2
_symmetry_space_group_name_H-M    P1
_symmetry_Int_Tables_number       1
_space_group_crystal_system       triclinic
_cell_length_a                    19.944542
_cell_length_b                    22.690797
_cell_length_c                    8.539324
_cell_angle_alpha                 90.0
_cell_angle_beta                  103.422613
_cell_angle_gamma                 89.54241
_cell_volume                      3758.84652626

loop_
_atom_site_label
_atom_site_type_symbol
_atom_site_description
_atom_site_fract_x
_atom_site_fract_y
_atom_site_fract_z
_atom_type_partial_charge
P1    P     P_3+3 0.853370 0.434890 0.996520 0.515190
P2    P     P_3+3 0.853370 0.565110 0.496520 0.500291
P3    P     P_3+3 0.353370 0.934890 0.996520 0.500868
P4    P     P_3+3 0.353370 0.065110 0.496520 0.510828
O1    O     O_2   0.860260 0.414960 0.826400 -0.392348
O2    O     O_2   0.860260 0.585040 0.326400 -0.378851
O3    O     O_2   0.360260 0.914960 0.826400 -0.379119
O4    O     O_2   0.360260 0.085040 0.326400 -0.388863
O5    O     O_3   0.918600 0.470180 0.098890 -0.356844
O6    O     O_3   0.918600 0.529820 0.598890 -0.361474
O7    O     O_3   0.418600 0.970180 0.098890 -0.366628
O8    O     O_3   0.418600 0.029820 0.598890 -0.359528
O9    O     O_3   0.975750 0.362410 0.628650 -0.275580
O10   O     O_3   0.975750 0.637590 0.128650 -0.287209
O11   O     O_3   0.475750 0.862410 0.628650 -0.284322
O12   O     O_3   0.475750 0.137590 0.128650 -0.284898
O13   O     O_2   0.861127 0.319737 0.677783 -0.358558
O14   O     O_2   0.855687 0.674757 0.170414 -0.374558
O15   O     O_2   0.355959 0.823453 0.670799 -0.373685
O16   O     O_2   0.358852 0.178542 0.178767 -0.379843
O17   O     O_3   0.780472 0.480654 0.959241 -0.523996
O18   O     O_3   0.781114 0.519462 0.457092 -0.529472
O19   O     O_3   0.279812 0.979977 0.959255 -0.530012
O20   O     O_3   0.282218 0.018439 0.459118 -0.524431
O21   O     O_3   0.948009 0.237383 0.657400 -0.496899
O22   O     O_3   0.938048 0.759428 0.150329 -0.570643
O23   O     O_3   0.439871 0.737876 0.655690 -0.487919
O24   O     O_3   0.441001 0.260978 0.145728 -0.512283
C1    C     C_3   0.011718 0.149163 0.604355 0.272100
C2    C     C_3   0.990856 0.852720 0.109804 0.278665
C3    C     C_3   0.496533 0.644882 0.598426 0.250482
C4    C     C_3   0.486874 0.349629 0.056746 0.226050
P5    P     P_3+3 0.146350 0.434230 0.693140 0.571906
P6    P     P_3+3 0.146350 0.565770 0.193140 0.558949
P7    P     P_3+3 0.646350 0.934230 0.693140 0.586048
P8    P     P_3+3 0.646350 0.065770 0.193140 0.581718
P9    P     P_3+3 0.092684 0.311374 0.114309 0.603203
P10   P     P_3+3 0.088672 0.691665 0.611575 0.567350
P11   P     P_3+3 0.591671 0.810165 0.108880 0.618456
P12   P     P_3+3 0.589102 0.191257 0.614916 0.596860
O25   O     O_2   0.139400 0.414340 0.863230 -0.365596
O26   O     O_2   0.139400 0.585660 0.363230 -0.385408
O27   O     O_2   0.639400 0.914340 0.863230 -0.314407
O28   O     O_2   0.639400 0.085660 0.363230 -0.404255
O29   O     O_3   0.023740 0.362300 0.060930 -0.262732
O30   O     O_3   0.023740 0.637700 0.560930 -0.322907
O31   O     O_3   0.523740 0.862300 0.060930 -0.267458
O32   O     O_3   0.523740 0.137700 0.560930 -0.262315
O33   O     O_2   0.142876 0.320058 0.003998 -0.325668
O34   O     O_2   0.134408 0.686749 0.488720 -0.362413
O35   O     O_2   0.636550 0.816979 0.985606 -0.330961
O36   O     O_2   0.643395 0.177008 0.518003 -0.331042
O37   O     O_3   0.222354 0.474579 0.737255 -0.571583
O38   O     O_3   0.223149 0.525135 0.235965 -0.570744
O39   O     O_3   0.720684 0.976830 0.743082 -0.552858
O40   O     O_3   0.714941 0.014883 0.209298 -0.551077
O41   O     O_3   0.056359 0.243113 0.056583 -0.461317
O42   O     O_3   0.049213 0.761073 0.569643 -0.522320
O43   O     O_3   0.553762 0.741738 0.058862 -0.473708
O44   O     O_3   0.554187 0.257937 0.529387 -0.455682
C5    C     C_3   0.022730 0.226040 0.175957 0.093770
C6    C     C_3   0.977251 0.754759 0.538177 0.269327
C7    C     C_3   0.520733 0.725975 0.180402 0.094539
C8    C     C_3   0.524976 0.289182 0.639126 0.166484
H1    H     H_    0.989496 0.262061 0.206379 0.123193
H2    H     H_    0.960323 0.727148 0.429575 0.188492
H3    H     H_    0.486499 0.762112 0.205412 0.122256
H4    H     H_    0.472074 0.272996 0.633770 0.156381
H5    H     H_    0.061269 0.212141 0.285121 0.081190
H6    H     H_    0.961260 0.733174 0.640622 0.082479
H7    H     H_    0.559542 0.714168 0.291392 0.099787
H8    H     H_    0.554893 0.283827 0.764168 0.035630
C9    C     C_3   0.976805 0.174270 0.116851 0.006566
C10   C     C_3   0.942993 0.816005 0.511675 -0.060863
C11   C     C_3   0.477057 0.672040 0.127561 -0.002597
C12   C     C_3   0.524846 0.355151 0.598916 0.058289
H9    H     H_    0.008596 0.135135 0.099400 0.180622
H10   H     H_    0.975172 0.845497 0.456539 0.188476
H11   H     H_    0.511033 0.633902 0.116421 0.178871
H12   H     H_    0.574867 0.367196 0.571737 0.136849
C13   C     C_3   0.213123 0.465330 0.256210 0.135055
C14   C     C_3   0.210768 0.534515 0.750654 0.128132
C15   C     C_3   0.740706 0.990574 0.362817 0.167620
C16   C     C_3   0.708027 0.036225 0.766096 0.131026
H13   H     H_    0.204375 0.458214 0.378481 0.106267
H14   H     H_    0.201576 0.543045 0.871940 0.109051
H15   H     H_    0.716272 0.007796 0.456397 0.087320
H16   H     H_    0.698132 0.041867 0.887631 0.130391
H17   H     H_    0.170079 0.447743 0.161903 0.141923
H18   H     H_    0.167426 0.551254 0.654726 0.143474
H19   H     H_    0.731998 0.942447 0.354245 0.138248
H20   H     H_    0.664665 0.053983 0.671720 0.129179
C17   C     C_3   0.279075 0.434234 0.239550 -0.046800
C18   C     C_3   0.276088 0.565033 0.732286 -0.033320
C19   C     C_3   0.818530 0.999847 0.406639 -0.045147
C20   C     C_3   0.773542 0.068498 0.754217 -0.037709
H21   H     H_    0.276943 0.427498 0.109794 0.146542
H22   H     H_    0.275199 0.570099 0.602397 0.138465
H23   H     H_    0.839353 0.988552 0.300441 0.223019
H24   H     H_    0.772324 0.077572 0.626356 0.077904
Ba1   Ba    Ba6+2 0.999900 0.457470 0.844900 1.755341
Ba2   Ba    Ba6+2 0.999900 0.542530 0.344900 1.736485
Ba3   Ba    Ba6+2 0.499900 0.957470 0.844900 1.782291
Ba4   Ba    Ba6+2 0.499900 0.042530 0.344900 1.766804
C21   C     C_3   0.795380 0.535466 0.902822 0.204552
C22   C     C_3   0.798951 0.462824 0.417170 0.207569
C23   C     C_3   0.294649 0.035356 0.905940 0.198431
C24   C     C_3   0.299186 0.964137 0.401169 0.226691
H25   H     H_    0.809328 0.529861 0.785470 0.088790
H26   H     H_    0.812581 0.464563 0.298792 0.085998
H27   H     H_    0.309438 0.030648 0.789248 0.092523
H28   H     H_    0.313686 0.970616 0.284893 0.088861
H29   H     H_    0.837781 0.556947 0.991468 0.078243
H30   H     H_    0.842365 0.444362 0.510526 0.086761
H31   H     H_    0.336465 0.056676 0.996595 0.074300
H32   H     H_    0.342162 0.942408 0.489070 0.073712
C25   C     C_3   0.731024 0.574653 0.880309 -0.052820
C26   C     C_3   0.736792 0.422742 0.406598 -0.068901
C27   C     C_3   0.230003 0.074196 0.882826 -0.056843
C28   C     C_3   0.235931 0.924362 0.375391 -0.064695
H33   H     H_    0.738187 0.615772 0.816356 0.073127
H34   H     H_    0.748758 0.377655 0.371011 0.061492
H35   H     H_    0.238277 0.116609 0.826011 0.077364
H36   H     H_    0.243135 0.885560 0.302214 0.052540
O45   O     O_3   0.081330 0.529680 0.090830 -0.308002
O46   O     O_3   0.081330 0.470320 0.590830 -0.309929
O47   O     O_3   0.581330 0.029680 0.090830 -0.251309
O48   O     O_3   0.581330 0.970320 0.590830 -0.324563
P13   P     P_3+3 0.908476 0.689929 0.071135 0.522764
P14   P     P_3+3 0.913764 0.306336 0.575159 0.564381
P15   P     P_3+3 0.410206 0.191076 0.073172 0.552365
P16   P     P_3+3 0.410295 0.808207 0.574625 0.564948
C29   C     C_3   0.006053 0.218061 0.600914 0.601976
C30   C     C_3   0.969050 0.790517 0.043067 0.482660
C31   C     C_3   0.483210 0.712121 0.564967 0.567550
C32   C     C_3   0.495303 0.281492 0.079394 0.551616
H37   H     H_    0.001083 0.232966 0.475498 -0.154865
H38   H     H_    0.932729 0.795454 0.923516 0.003556
H39   H     H_    0.459145 0.717013 0.435221 -0.119899
H40   H     H_    0.494230 0.261255 0.960279 -0.054377
H41   H     H_    0.947427 0.163498 0.207196 0.152434
H42   H     H_    0.940400 0.835063 0.629793 0.173156
H43   H     H_    0.447392 0.660844 0.217253 0.134827
H44   H     H_    0.519373 0.381433 0.703783 0.170805
C33   C     C_R   0.142116 0.688265 0.824892 0.158001
C34   C     C_R   0.141911 0.312093 0.328520 -0.000180
C35   C     C_R   0.636279 0.192474 0.833107 0.005124
C36   C     C_R   0.646426 0.814410 0.319688 0.063730
C37   C     C_R   0.190214 0.732517 0.893788 0.068849
C38   C     C_R   0.190652 0.268059 0.395543 0.012798
C39   C     C_R   0.685820 0.235515 0.900440 0.033536
C40   C     C_R   0.691229 0.768246 0.391275 -0.005483
C41   C     C_R   0.785992 0.322128 0.036305 0.021450
C42   C     C_R   0.784880 0.677046 0.533674 -0.004560
C43   C     C_R   0.287424 0.821423 0.033111 0.002663
C44   C     C_R   0.287335 0.178464 0.533708 -0.021835
C45   C     C_R   0.746684 0.327027 0.877548 0.006703
C46   C     C_R   0.745271 0.672123 0.375356 0.048015
C47   C     C_R   0.247716 0.826284 0.874468 -0.038845
C48   C     C_R   0.249249 0.174709 0.373848 0.005177
C49   C     C_R   0.201888 0.782132 0.805051 -0.009110
C50   C     C_R   0.203639 0.219299 0.304924 -0.077987
C51   C     C_R   0.699217 0.284006 0.809977 -0.078727
C52   C     C_R   0.701229 0.717545 0.304124 -0.110030
C53   C     C_R   0.836392 0.365040 0.104430 0.227672
C54   C     C_R   0.835190 0.633831 0.602734 0.180770
C55   C     C_R   0.338444 0.864119 0.101508 0.231514
C56   C     C_R   0.335836 0.134053 0.604014 0.212113
H45   H     H_    0.175382 0.787853 0.680499 0.164158
H46   H     H_    0.178073 0.214232 0.179759 0.175787
H47   H     H_    0.672835 0.289730 0.685459 0.149548
H48   H     H_    0.675844 0.712307 0.178887 0.163000
C57   C     C_R   0.870240 0.358455 0.266629 -0.413533
C58   C     C_R   0.868609 0.639365 0.764448 -0.421870
C59   C     C_R   0.375132 0.856180 0.261528 -0.472592
C60   C     C_R   0.368007 0.138880 0.767155 -0.408517
C61   C     C_R   0.162454 0.636183 0.085477 0.147226
C62   C     C_R   0.164382 0.365382 0.584488 0.159611
C63   C     C_R   0.662464 0.136045 0.086023 0.111714
C64   C     C_R   0.665878 0.866515 0.580162 0.133350
C65   C     C_R   0.212953 0.679310 0.152936 -0.007510
C66   C     C_R   0.214643 0.321854 0.652569 -0.018294
C67   C     C_R   0.712703 0.179311 0.154822 -0.000541
C68   C     C_R   0.713842 0.821618 0.649919 -0.031774
C69   C     C_R   0.225792 0.728123 0.057970 0.092297
C70   C     C_R   0.226557 0.272434 0.558752 0.110604
C71   C     C_R   0.723512 0.229539 0.062482 0.114593
C72   C     C_R   0.726056 0.772327 0.555764 0.116022
C73   C     C_R   0.250793 0.675657 0.312728 0.062842
C74   C     C_R   0.251931 0.325124 0.812615 0.104572
C75   C     C_R   0.751809 0.174644 0.313634 0.035538
C76   C     C_R   0.749969 0.824218 0.811272 0.066436
C77   C     C_R   0.798420 0.218231 0.382250 -0.061533
C78   C     C_R   0.794924 0.779407 0.880697 -0.155367
C79   C     C_R   0.298066 0.718845 0.379868 -0.119483
C80   C     C_R   0.297113 0.280341 0.881616 -0.080396
C81   C     C_R   0.812359 0.266396 0.292051 -0.078562
C82   C     C_R   0.809718 0.731620 0.789549 -0.092617
C83   C     C_R   0.312590 0.766580 0.289249 -0.063188
C84   C     C_R   0.311170 0.232210 0.791048 -0.059006
C85   C     C_R   0.774079 0.272729 0.130301 0.094836
C86   C     C_R   0.773675 0.726997 0.626264 0.074063
C87   C     C_R   0.275535 0.771998 0.126574 0.083486
C88   C     C_R   0.275371 0.227796 0.627579 0.090098
C89   C     C_R   0.862419 0.308994 0.359873 0.117269
C90   C     C_R   0.858982 0.688024 0.857425 0.142066
C91   C     C_R   0.362988 0.808974 0.357055 0.110056
C92   C     C_R   0.359399 0.188098 0.859930 0.133529
C93   C     C_R   0.127318 0.643049 0.924165 -0.014606
C94   C     C_R   0.127999 0.358099 0.425237 -0.013086
C95   C     C_R   0.623347 0.145903 0.929525 0.009469
C96   C     C_R   0.636214 0.863117 0.414037 0.054835
H49   H     H_    0.899705 0.395119 0.324693 0.186062
H50   H     H_    0.899577 0.602824 0.821828 0.192599
H51   H     H_    0.409741 0.890127 0.317408 0.198756
H52   H     H_    0.398852 0.102201 0.824717 0.185630
N1    N     N_R   0.069156 0.242664 0.703389 0.229090
O49   O     O_R   0.117141 0.209898 0.792598 -0.410605
O50   O     O_R   0.077459 0.298997 0.708682 -0.354948
N2    N     N_R   0.030571 0.759558 0.024141 0.215122
O51   O     O_R   0.074157 0.739520 0.150965 -0.387608
O52   O     O_R   0.051708 0.769903 0.894533 -0.450904
N3    N     N_R   0.548402 0.742673 0.603405 0.219996
O53   O     O_R   0.590882 0.735889 0.742989 -0.343480
O54   O     O_R   0.555477 0.786978 0.514533 -0.501622
N4    N     N_R   0.560871 0.266664 0.191306 0.244228
O55   O     O_R   0.598880 0.306534 0.278637 -0.380707
O56   O     O_R   0.577580 0.211746 0.218394 -0.348787
H53   H     H_    0.324770 0.461955 0.289777 0.228905
H54   H     H_    0.322325 0.538057 0.787977 0.227992
H55   H     H_    0.828334 0.046971 0.432335 0.153610
H56   H     H_    0.819973 0.040768 0.803315 0.231518
N5    N     N_R   0.287515 0.378298 0.324089 0.238139
O57   O     O_R   0.308307 0.377741 0.480088 -0.337852
O58   O     O_R   0.286805 0.329556 0.243964 -0.386968
N6    N     N_R   0.281947 0.621782 0.811037 0.232974
O59   O     O_R   0.300215 0.623920 0.967281 -0.386775
O60   O     O_R   0.280309 0.669658 0.726832 -0.394434
N7    N     N_R   0.854772 0.964223 0.543824 0.280294
O61   O     O_R   0.921533 0.959598 0.572285 -0.207819
O62   O     O_R   0.821781 0.930851 0.623937 -0.375650
N8    N     N_R   0.780299 0.123449 0.841675 0.234806
O63   O     O_R   0.806114 0.122464 0.996182 -0.392566
O64   O     O_R   0.779510 0.172441 0.762314 -0.362584
N9    N     N_R   0.670492 0.544080 0.788131 0.312540
O65   O     O_R   0.669218 0.524871 0.643996 -0.284545
O66   O     O_R   0.616945 0.536817 0.848486 -0.256732
N10   N     N_R   0.677222 0.445489 0.288901 0.312155
O67   O     O_R   0.680367 0.452298 0.139622 -0.281312
O68   O     O_R   0.620311 0.458059 0.331804 -0.235688
N11   N     N_R   0.170782 0.044761 0.781343 0.312401
O69   O     O_R   0.172071 0.029035 0.635685 -0.265206
O70   O     O_R   0.115995 0.034799 0.835022 -0.242910
N12   N     N_R   0.173805 0.956235 0.293390 0.321499
O71   O     O_R   0.171624 0.982926 0.157494 -0.279756
O72   O     O_R   0.119555 0.956752 0.353503 -0.239092
H57   H     H_    0.722824 0.587077 0.000546 0.126441
H58   H     H_    0.724671 0.419754 0.527059 0.139743
H59   H     H_    0.219523 0.084194 0.002465 0.139630
H60   H     H_    0.229728 0.908099 0.494072 0.123998
N13   N     N_R   0.056767 0.127827 0.502249 0.212116
O73   O     O_R   0.037507 0.084818 0.401291 -0.264812
O74   O     O_R   0.119956 0.146150 0.526728 -0.418959
N14   N     N_R   0.028292 0.883248 0.005694 0.270222
O75   O     O_R   0.995283 0.906005 0.869561 -0.260427
O76   O     O_R   0.095291 0.881321 0.038972 -0.312950
N15   N     N_R   0.545855 0.621451 0.509332 0.211792
O77   O     O_R   0.529666 0.577093 0.411476 -0.258493
O78   O     O_R   0.609164 0.639920 0.541988 -0.403690
N16   N     N_R   0.543614 0.378508 0.004945 0.231529
O79   O     O_R   0.540627 0.435271 0.982351 -0.222024
O80   O     O_R   0.598002 0.349775 0.987046 -0.444439
H61   H     H_    0.034969 0.134835 0.729891 0.140327
H62   H     H_    0.026202 0.846923 0.230650 0.083893
H63   H     H_    0.520136 0.639043 0.728916 0.141325
H64   H     H_    0.485571 0.368820 0.174908 0.163882
H65   H     H_    0.751804 0.364130 0.802499 0.143309
H66   H     H_    0.748826 0.633906 0.302522 0.149958
H67   H     H_    0.251789 0.863950 0.800384 0.163025
H68   H     H_    0.253310 0.137150 0.299299 0.156315
H69   H     H_    0.824680 0.212680 0.506904 0.219114
H70   H     H_    0.818289 0.783443 0.007303 0.214784
H71   H     H_    0.324141 0.713427 0.504014 0.223634
H72   H     H_    0.321869 0.284831 0.006864 0.212316
H73   H     H_    0.244886 0.639254 0.388874 0.169229
H74   H     H_    0.246605 0.362021 0.887890 0.161694
H75   H     H_    0.747050 0.137331 0.387946 0.134176
H76   H     H_    0.744684 0.861009 0.887193 0.192683
N17   N     N_R   0.067430 0.609590 0.867294 0.245414
O81   O     O_R   0.009069 0.636269 0.854239 -0.420940
O82   O     O_R   0.070267 0.561245 0.788282 -0.370096
N18   N     N_R   0.068509 0.392607 0.367372 0.245908
O83   O     O_R   0.010079 0.367161 0.355791 -0.448420
O84   O     O_R   0.071638 0.440029 0.285158 -0.366922
N19   N     N_R   0.562566 0.113464 0.873955 0.241303
O85   O     O_R   0.505620 0.143109 0.849683 -0.460782
O86   O     O_R   0.564680 0.064595 0.796377 -0.367395
N20   N     N_R   0.591908 0.908784 0.338989 0.226291
O87   O     O_R   0.527770 0.908238 0.347195 -0.368226
O88   O     O_R   0.608650 0.935797 0.220955 -0.354778
N21   N     N_R   0.944803 0.120590 0.558456 0.257169
O89   O     O_R   0.933430 0.074861 0.639945 -0.290709
O90   O     O_R   0.903413 0.131629 0.420274 -0.465567
N22   N     N_R   0.932306 0.889074 0.127631 0.246079
O91   O     O_R   0.942871 0.930118 0.236677 -0.297775
O92   O     O_R   0.877670 0.892878 0.010245 -0.363483
N23   N     N_R   0.432797 0.610579 0.557719 0.260652
O93   O     O_R   0.429356 0.562262 0.637483 -0.271387
O94   O     O_R   0.391060 0.616691 0.417123 -0.415368
N24   N     N_R   0.422102 0.364557 0.943647 0.224631
O95   O     O_R   0.380443 0.402845 0.984570 -0.361289
O96   O     O_R   0.410693 0.347127 0.794877 -0.420670
N25   N     N_R   0.928326 0.189505 0.967700 0.313019
O97   O     O_R   0.917758 0.152216 0.850089 -0.293795
O98   O     O_R   0.890269 0.236920 0.956810 -0.328264
N26   N     N_R   0.873463 0.814594 0.407637 0.245927
O99   O     O_R   0.841500 0.863418 0.356708 -0.355524
O100  O     O_R   0.844030 0.765335 0.356505 -0.421197
N27   N     N_R   0.429053 0.683198 0.974954 0.316854
O101  O     O_R   0.421567 0.643641 0.863216 -0.311884
O102  O     O_R   0.388488 0.729089 0.955625 -0.320908
N28   N     N_R   0.468758 0.371885 0.463914 0.274364
O103  O     O_R   0.460271 0.427022 0.421972 -0.280446
O104  O     O_R   0.425863 0.332997 0.387851 -0.292416

loop_
_geom_bond_atom_site_label_1
_geom_bond_atom_site_label_2
_geom_bond_distance
_ccdc_geom_bond_type
N28   O104  1.298646 A    
C29   H37   1.105153 S    
C14   C18   1.520095 S    
C82   C90   1.414214 A    
C24   C28   1.530982 S    
C1    C29   1.566306 S    
N3    O53   1.300517 A    
P6    O26   1.557240 D    
C59   C91   1.402613 A    
C32   H40   1.111748 S    
Ba2   O45   3.009664 S    
N21   O89   1.299763 A    
C31   H39   1.105670 S    
P6    Ba2   3.502998 S    
C42   C46   1.403510 A    
C10   N26   1.463592 S    
C36   C96   1.408784 A    
C19   H23   1.110726 S    
O10   Ba2   2.804478 S    
C6    H6    1.113069 S    
N12   O72   1.300779 A    
C34   C38   1.413178 A    
C81   C89   1.418969 A    
O12   Ba4   2.804478 S    
O11   P16   1.782079 S    
C43   C55   1.433516 A    
P2    O18   1.749748 S    
N8    O64   1.300032 A    
O9    P14   1.766046 S    
C47   C49   1.397698 A    
P4    O8    1.597905 S    
O21   C29   1.419932 S    
C33   C93   1.406895 A    
C84   C92   1.412469 A    
N9    O65   1.300456 A    
C22   C26   1.529158 S    
P8    C63   1.904567 S    
C94   N18   1.406425 S    
N10   O68   1.300714 A    
C41   C85   1.431753 A    
N24   O96   1.299742 A    
C54   C58   1.393194 A    
C28   H60   1.112438 S    
C43   C47   1.405382 A    
P4    C56   1.884799 S    
O37   C14   1.386834 S    
C57   H49   1.075098 S    
C4    H64   1.104724 S    
Ba4   O48   2.847225 S    
O19   C23   1.393696 S    
C19   N7    1.464853 S    
O4    Ba4   2.909424 S    
C62   C66   1.425472 A    
C11   H43   1.101823 S    
C12   H44   1.101723 S    
C7    H7    1.106921 S    
P6    O38   1.745697 S    
N16   O80   1.300297 A    
P8    O28   1.557240 D    
N20   O87   1.297416 A    
P9    O29   1.765645 S    
P1    Ba1   3.501470 S    
C31   N3    1.447474 S    
O40   C15   1.403441 S    
P11   O31   1.766238 S    
P3    Ba3   3.501470 S    
P12   O32   1.770620 S    
C77   H69   1.078594 S    
P12   C35   1.882582 S    
O43   C7    1.400081 S    
C16   H16   1.107754 S    
C80   H72   1.074108 S    
C27   H59   1.112330 S    
O41   C5    1.400228 S    
C26   H58   1.112152 S    
C27   H35   1.108380 S    
C15   H19   1.106885 S    
P7    Ba3   3.495970 S    
O44   C8    1.402521 S    
C60   C92   1.401587 A    
N18   O84   1.294624 A    
P5    O25   1.557883 D    
O18   C22   1.394054 S    
P13   C90   1.863066 S    
C69   C87   1.436866 A    
P6    O45   1.614479 S    
P4    Ba4   3.494634 S    
C4    N24   1.459499 S    
C28   N12   1.459978 S    
C26   N10   1.457372 S    
O2    Ba2   2.909424 S    
P3    O7    1.608285 S    
C45   H65   1.077816 S    
C5    H1    1.116322 S    
C58   C90   1.397752 A    
C9    H9    1.116991 S    
P6    C61   1.909567 S    
C66   C74   1.398365 A    
O11   Ba3   2.810389 S    
C95   N19   1.408430 S    
O38   C13   1.389873 S    
P9    O41   1.737545 S    
C64   C68   1.423971 A    
C76   C78   1.388495 A    
P11   O35   1.540416 D    
N27   O102  1.300249 A    
P12   O44   1.747745 S    
C73   H73   1.075232 S    
C47   H67   1.078086 S    
C48   H68   1.077487 S    
C75   H75   1.076010 S    
P3    C55   1.898074 S    
N19   O86   1.297111 A    
C8    H4    1.110867 S    
C21   H29   1.111363 S    
N13   O73   1.302091 A    
N25   O98   1.302513 A    
P2    Ba2   3.494634 S    
C13   C17   1.523271 S    
N6    O59   1.299932 A    
C62   C94   1.395341 A    
C26   H34   1.107115 S    
C72   C86   1.428769 A    
C64   C96   1.406932 A    
O12   P15   1.758811 S    
N6    O60   1.298756 A    
N14   O75   1.300268 A    
C2    C30   1.549469 S    
C82   C86   1.416979 A    
Ba1   O45   2.862114 S    
Ba3   O47   2.862114 S    
N5    O57   1.300054 A    
C49   H45   1.079543 S    
N22   O92   1.300411 A    
O3    Ba3   2.924135 S    
O23   P16   1.780265 S    
C43   C87   1.429351 A    
O21   P14   1.779845 S    
N2    O51   1.300726 A    
C79   C83   1.401789 A    
C1    H61   1.112080 S    
C6    H2    1.106606 S    
C3    N15   1.472498 S    
C44   C48   1.402630 A    
C3    N23   1.467405 S    
N1    O49   1.303522 A    
C48   C50   1.390809 A    
C35   C39   1.418583 A    
O22   C30   1.410264 S    
C27   N11   1.459293 S    
C84   C88   1.416627 A    
C20   N8    1.444494 S    
C68   C76   1.400304 A    
N17   O81   1.289279 A    
N7    O62   1.300514 A    
C52   H48   1.078769 S    
C17   H21   1.109561 S    
C18   H54   1.112935 S    
C55   C59   1.403143 A    
O15   P16   1.541357 D    
C56   C60   1.396635 A    
C21   H25   1.107532 S    
C41   C53   1.428687 A    
O13   P14   1.544215 D    
C23   H27   1.107843 S    
C6    C10   1.537023 S    
C36   C40   1.414507 A    
Ba2   O46   2.847225 S    
C38   C70   1.415221 A    
N15   O77   1.302136 A    
N3    O54   1.287819 A    
N4    O56   1.294202 A    
O23   C31   1.411275 S    
C78   C82   1.403620 A    
C7    C11   1.514815 S    
C61   C65   1.431867 A    
C20   H24   1.105761 S    
C96   N20   1.409883 S    
C33   C37   1.424088 A    
P10   O30   1.768869 S    
P16   C91   1.878355 S    
N4    O55   1.302989 A    
C78   H70   1.077575 S    
C16   H20   1.109359 S    
C13   H13   1.109823 S    
C44   C88   1.427250 A    
O42   C6    1.406026 S    
C15   H15   1.098420 S    
C37   C69   1.419881 A    
Ba1   Ba2   4.685639 S    
C4    N16   1.466284 S    
N7    O61   1.300209 A    
C40   C72   1.418483 A    
C3    H63   1.111885 S    
C76   H76   1.076411 S    
N11   O69   1.299921 A    
C9    H41   1.100173 S    
C39   C71   1.419030 A    
P1    O1    1.557383 D    
C19   H55   1.101444 S    
P3    O3    1.557383 D    
P4    O20   1.746681 S    
C46   H66   1.078564 S    
C18   H22   1.111133 S    
C17   H53   1.112620 S    
N26   O100  1.294621 A    
C66   C70   1.428243 A    
P10   O42   1.754222 S    
C65   C73   1.399723 A    
O5    Ba2   2.863321 S    
P11   C36   1.879209 S    
C74   H74   1.075036 S    
O7    Ba4   2.863321 S    
O20   C24   1.395949 S    
P9    C34   1.864599 S    
C51   H47   1.078650 S    
P2    C54   1.878644 S    
C80   C84   1.401861 A    
C13   H17   1.108744 S    
N28   O103  1.300257 A    
C83   C87   1.418780 A    
C21   C25   1.530472 S    
N20   O88   1.289445 A    
C35   C95   1.401444 A    
C23   C27   1.530281 S    
C42   C86   1.427488 A    
O1    Ba1   2.924135 S    
N21   O90   1.296540 A    
C38   C50   1.406582 A    
O31   Ba3   2.805162 S    
N23   O93   1.301357 A    
C12   H12   1.111623 S    
P1    O5    1.608285 S    
O8    Ba3   2.848432 S    
C3    C31   1.561490 S    
N19   O85   1.289923 A    
C4    C32   1.561033 S    
C5    C9    1.508719 S    
C14   H14   1.109656 S    
C24   H28   1.106854 S    
C58   H50   1.077205 S    
C59   H51   1.073808 S    
C75   C77   1.395520 A    
N12   O71   1.300573 A    
P8    O40   1.763773 S    
C67   C71   1.431786 A    
P9    O33   1.539228 D    
C73   C79   1.393475 A    
C50   H46   1.078664 S    
P11   O43   1.741737 S    
N8    O63   1.300309 A    
O22   P13   1.766844 S    
O29   Ba1   2.805162 S    
C2    H62   1.113534 S    
N9    O66   1.300649 A    
P5    Ba1   3.495970 S    
C37   C49   1.407804 A    
O16   P15   1.541570 D    
N10   O67   1.300017 A    
N24   O95   1.300199 A    
O24   C32   1.415385 S    
C93   N17   1.408580 S    
O6    Ba1   2.848432 S    
C25   N9    1.459642 S    
C71   C85   1.434434 A    
C14   H18   1.108399 S    
C17   N5    1.449346 S    
C24   H32   1.111641 S    
N15   O78   1.301041 A    
N25   O97   1.293666 A    
Ba4   O47   3.009664 S    
P5    O46   1.603936 S    
O25   Ba1   2.911628 S    
C41   C45   1.403564 A    
P7    O48   1.603936 S    
O27   Ba3   2.911628 S    
N27   O101  1.293980 A    
N26   O99   1.297261 A    
N14   O76   1.300392 A    
C10   H10   1.108406 S    
Ba3   Ba4   4.685639 S    
C44   C56   1.423537 A    
N16   O79   1.301199 A    
C42   C54   1.423267 A    
O14   P13   1.538163 D    
C57   C89   1.406559 A    
O39   C16   1.391506 S    
O17   C21   1.392760 S    
C1    N21   1.458107 S    
O10   P13   1.766508 S    
P1    O17   1.747724 S    
P3    O19   1.749156 S    
P4    O4    1.558022 D    
N2    O52   1.294580 A    
O28   Ba4   2.926527 S    
O30   Ba2   2.811003 S    
C22   H30   1.111075 S    
N18   O83   1.287797 A    
C30   N2    1.450331 S    
N11   O70   1.300645 A    
C53   C57   1.400271 A    
O32   Ba4   2.811003 S    
C63   C95   1.399209 A    
C79   H71   1.073527 S    
C16   C20   1.526675 S    
C61   C93   1.401057 A    
C25   H33   1.107941 S    
C1    N13   1.469244 S    
C60   H52   1.078961 S    
C81   C85   1.421285 A    
C45   C51   1.394012 A    
C74   C80   1.389495 A    
C20   H56   1.113425 S    
C10   H42   1.109461 S    
P2    O2    1.558022 D    
P15   C92   1.868595 S    
O26   Ba2   2.926527 S    
C34   C94   1.396647 A    
C63   C67   1.433660 A    
P5    O37   1.742149 S    
C7    H3    1.114874 S    
P7    O39   1.744580 S    
N13   O74   1.300346 A    
C65   C69   1.432105 A    
P12   O36   1.540270 D    
C29   N1    1.470133 S    
C68   C72   1.429435 A    
N23   O94   1.299142 A    
C9    N25   1.448960 S    
P10   C33   1.886140 S    
C25   H57   1.112491 S    
P1    C53   1.905066 S    
C15   C19   1.526137 S    
C83   C91   1.419919 A    
Ba1   O46   3.012178 S    
C8    C12   1.535621 S    
C70   C88   1.427517 A    
Ba3   O48   3.012178 S    
N5    O58   1.298970 A    
C23   H31   1.111558 S    
C40   C52   1.407990 A    
C2    N22   1.460950 S    
N22   O91   1.300350 A    
C39   C51   1.406895 A    
P8    O47   1.614479 S    
C11   H11   1.112516 S    
O9    Ba1   2.810389 S    
P2    O6    1.597905 S    
P7    O27   1.557883 D    
C22   H26   1.106830 S    
C5    H5    1.105766 S    
P7    C64   1.899527 S    
C32   N4    1.466080 S    
P5    C62   1.891210 S    
C67   C75   1.402248 A    
C30   H38   1.111254 S    
C11   N27   1.447706 S    
P10   O34   1.545243 D    
C46   C52   1.393324 A    
N1    O50   1.289664 A    
P8    Ba4   3.502998 S    
O24   P15   1.765172 S    
P14   C89   1.886007 S    
C18   N6    1.445649 S    
C12   N28   1.455685 S    
C77   C81   1.403301 A    
N17   O82   1.295584 A    
C2    N14   1.464276 S    
C8    H8    1.101813 S    
C28   H36   1.107240 S    
