data_mof_unit_67153.cif
_audit_creation_date              2013-03-05T15:58:57-0500
_audit_creation_method            fapswitch 2.2
_symmetry_space_group_name_H-M    P1
_symmetry_Int_Tables_number       1
_space_group_crystal_system       triclinic
_cell_length_a                    8.309399
_cell_length_b                    12.723287
_cell_length_c                    15.002075
_cell_angle_alpha                 97.602752
_cell_angle_beta                  97.640531
_cell_angle_gamma                 98.139881
_cell_volume                      1537.57174778

loop_
_atom_site_label
_atom_site_type_symbol
_atom_site_description
_atom_site_fract_x
_atom_site_fract_y
_atom_site_fract_z
_atom_type_partial_charge
P1    P     P_3+3 0.998730 0.403530 0.291970 0.486253
O1    O     O_2   0.827880 0.435260 0.277750 -0.360229
O2    O     O_3   0.100280 0.438960 0.391170 -0.413686
O3    O     O_3   0.625580 0.634130 0.333250 -0.370323
O4    O     O_2   0.690621 0.549220 0.172449 -0.409136
O5    O     O_3   0.986920 0.265266 0.256111 -0.538351
O6    O     O_3   0.629568 0.745099 0.184607 -0.546804
H1    H     H_    0.627700 0.858811 0.294557 0.085895
C1    C     C_3   0.513520 0.904428 0.170496 -0.655805
H2    H     H_    0.503032 0.980357 0.214123 0.194238
H3    H     H_    0.618004 0.919581 0.132219 0.237652
P2    P     P_3+3 0.687380 0.751030 0.571310 0.433208
P3    P     P_3+3 0.111839 0.826104 0.371129 0.458630
O7    O     O_2   0.857130 0.766340 0.543890 -0.396126
O8    O     O_3   0.056550 0.691050 0.379010 -0.419788
O9    O     O_2   0.000250 0.885780 0.427841 -0.375690
O10   O     O_3   0.725016 0.791527 0.689376 -0.581871
O11   O     O_3   0.047678 0.844558 0.258502 -0.486593
C2    C     C_3   0.025767 0.745200 0.200780 0.477699
H4    H     H_    0.939820 0.684487 0.224702 0.172393
H5    H     H_    0.145219 0.716586 0.198672 0.002287
C3    C     C_3   0.950522 0.755237 0.104135 -0.862282
H6    H     H_    0.862799 0.813231 0.105260 0.304548
H7    H     H_    0.046072 0.781714 0.063507 0.224066
C4    C     C_3   0.286241 0.800742 0.675768 0.347661
H8    H     H_    0.420885 0.825792 0.696380 0.098376
C5    C     C_3   0.203673 0.902071 0.682931 -0.492913
H9    H     H_    0.298091 0.974713 0.694610 0.171261
H10   H     H_    0.125971 0.905004 0.617589 0.210365
Ba1   Ba    Ba6+2 0.843750 0.550210 0.455600 1.552928
C6    C     C_3   0.878629 0.198639 0.294987 0.266099
H11   H     H_    0.763127 0.230978 0.301056 0.066061
H12   H     H_    0.944735 0.183301 0.359117 0.036651
C7    C     C_3   0.836121 0.089129 0.235468 0.001708
H13   H     H_    0.739668 0.093301 0.177919 0.142045
H14   H     H_    0.787849 0.029504 0.277036 0.029190
C8    C     C_3   0.770484 0.707621 0.733348 0.420122
H15   H     H_    0.891373 0.691219 0.716913 0.105685
H16   H     H_    0.676625 0.633870 0.713584 0.118187
C9    C     C_3   0.784867 0.742332 0.835659 -1.000778
H17   H     H_    0.876400 0.816781 0.857927 0.276900
H18   H     H_    0.824768 0.678791 0.873150 0.210698
H19   H     H_    0.663748 0.757919 0.853144 0.263606
P4    P     P_3+3 0.190990 0.596560 0.708040 0.458833
O12   O     O_2   0.361830 0.564780 0.722310 -0.380342
O13   O     O_3   0.089430 0.561130 0.608830 -0.414303
O14   O     O_3   0.564130 0.365960 0.666760 -0.369714
O15   O     O_3   0.229896 0.736434 0.738600 -0.565941
P5    P     P_3+3 0.093316 0.167723 0.615607 0.458182
O16   O     O_3   0.601940 0.368240 0.453770 -0.401920
O17   O     O_3   0.133170 0.309040 0.621000 -0.363190
O18   O     O_2   0.221522 0.119452 0.564087 -0.413250
O19   O     O_3   0.132989 0.131267 0.724680 -0.642381
Ba2   Ba    Ba6+2 0.346090 0.449880 0.544410 1.561272
P6    P     P_3+3 0.574775 0.619010 0.215281 0.429773
C10   C     C_3   0.546657 0.819447 0.230439 0.437512
H20   H     H_    0.427708 0.783204 0.248483 0.026816
O20   O     O_3   0.587780 0.631850 0.546230 -0.411182
C11   C     C_3   0.406271 0.292904 0.267850 0.440504
H21   H     H_    0.316945 0.328649 0.306292 0.102428
H22   H     H_    0.517221 0.354215 0.271631 0.124983
C12   C     C_3   0.326773 0.259688 0.168826 -0.774321
H23   H     H_    0.197086 0.222127 0.163517 0.296364
H24   H     H_    0.331334 0.331617 0.134475 0.193550
H25   H     H_    0.390899 0.200007 0.133077 0.283968
P7    P     P_3+3 0.502932 0.233578 0.420338 0.430378
O21   O     O_2   0.332590 0.233690 0.456160 -0.341115
O22   O     O_3   0.451407 0.202354 0.302098 -0.574942
H26   H     H_    0.883606 0.675840 0.068622 0.218239
C13   C     C_3   0.149899 0.219132 0.794939 0.717204
H27   H     H_    0.229159 0.289851 0.779500 0.090395
C14   C     C_3   0.234009 0.187260 0.883351 -0.647622
H28   H     H_    0.347610 0.156658 0.870539 0.213491
H29   H     H_    0.153512 0.120548 0.904570 0.239881
P8    P     P_3+3 0.610432 0.379551 0.784317 0.481457
C15   C     C_3   0.561516 0.168703 0.737585 0.428241
H30   H     H_    0.615540 0.192904 0.678332 0.116887
O23   O     O_2   0.473132 0.431561 0.824140 -0.454594
O24   O     O_3   0.593652 0.249634 0.815097 -0.520941
H31   H     H_    0.427829 0.148339 0.716178 0.090607
H32   H     H_    0.765980 0.078281 0.758436 0.257838
C16   C     C_3   0.631323 0.066526 0.757309 -0.570439
H33   H     H_    0.580979 0.000532 0.700174 0.148430
C17   C     C_R   0.816813 0.457968 0.832146 0.328364
C18   C     C_R   0.885647 0.465195 0.924758 -0.084280
C19   C     C_R   0.030560 0.461830 0.108953 -0.246037
C20   C     C_R   0.872974 0.403677 0.070957 0.454354
C21   C     C_R   0.796941 0.417115 0.985646 -0.175373
C22   C     C_R   0.101021 0.470019 0.203683 0.288506
H34   H     H_    0.672307 0.375994 0.963983 0.194154
C23   C     C_R   0.262016 0.523197 0.231637 -0.537587
C24   C     C_R   0.080419 0.540473 0.797249 0.253194
C25   C     C_R   0.148935 0.552340 0.891617 -0.032407
C26   C     C_R   0.052174 0.511167 0.954880 0.004811
C27   C     C_R   0.311376 0.602243 0.924944 -0.107153
C28   C     C_R   0.380355 0.604848 0.015451 -0.178820
C29   C     C_R   0.288672 0.561000 0.078221 0.022515
C30   C     C_R   0.122691 0.513483 0.048069 -0.020336
C31   C     C_R   0.358009 0.563250 0.170185 0.192306
C32   C     C_R   0.915214 0.494830 0.770335 -0.451524
H35   H     H_    0.507791 0.641126 0.034715 0.186659
H36   H     H_    0.388785 0.639202 0.881669 0.170648
H37   H     H_    0.317204 0.528475 0.301945 0.172663
H38   H     H_    0.862439 0.485662 0.699244 0.175354
C33   C     C_R   0.790270 0.176318 0.509379 -0.285038
C34   C     C_R   0.434726 0.807484 0.449495 -0.500590
C35   C     C_R   0.394828 0.985787 0.424561 -0.172490
C36   C     C_R   0.332552 0.876907 0.416769 0.190957
C37   C     C_R   0.585979 0.847387 0.505837 0.308161
C38   C     C_R   0.652060 0.959214 0.512313 -0.054804
C39   C     C_R   0.556466 0.028159 0.468512 -0.094076
C40   C     C_R   0.623880 0.138030 0.470874 0.163782
C41   C     C_R   0.881431 0.110331 0.556173 0.302828
C42   C     C_R   0.810687 0.004222 0.559705 -0.260073
H39   H     H_    0.314782 0.036133 0.395670 0.224762
H40   H     H_    0.881664 0.957339 0.598643 0.174485
H41   H     H_    0.389186 0.722109 0.437548 0.170700
N1    N     N_3   0.102943 0.904985 0.756140 -0.140493
H42   H     H_    0.012905 0.952932 0.743991 0.184027
H43   H     H_    0.178182 0.939482 0.817478 0.142696
N2    N     N_R   0.980233 0.055935 0.200738 0.297686
O25   O     O_R   0.975259 0.025955 0.113957 -0.381990
O26   O     O_R   0.115676 0.058473 0.256033 -0.367629
N3    N     N_3   0.362313 0.868165 0.106062 -0.184875
H44   H     H_    0.369482 0.909167 0.050354 0.155534
H45   H     H_    0.267333 0.894747 0.137432 0.208155
N4    N     N_R   0.988064 0.246025 0.805468 0.191620
O27   O     O_R   0.900850 0.273159 0.736615 -0.478735
O28   O     O_R   0.920611 0.229307 0.876892 -0.421889
N5    N     N_3   0.277674 0.277244 0.958196 -0.179716
H46   H     H_    0.171330 0.298058 0.980852 0.200554
H47   H     H_    0.338361 0.344276 0.936240 0.176895
N6    N     N_3   0.594742 0.031962 0.842587 -0.160452
H48   H     H_    0.467867 0.010554 0.838550 0.112214
H49   H     H_    0.636437 0.094897 0.896564 0.248966
N7    N     N_R   0.806242 0.309849 0.103610 0.244182
O29   O     O_R   0.859708 0.221566 0.076864 -0.369693
O30   O     O_R   0.658594 0.302893 0.123809 -0.449640
N8    N     N_3   0.868763 0.283163 0.502514 -0.117444
H50   H     H_    0.826470 0.305060 0.441287 0.120923
H51   H     H_    0.985112 0.278421 0.485990 0.165429
N9    N     N_3   0.255876 0.748239 0.581515 -0.230511
H52   H     H_    0.318073 0.682858 0.573925 0.155426
H53   H     H_    0.130670 0.725462 0.558240 0.215071

loop_
_geom_bond_atom_site_label_1
_geom_bond_atom_site_label_2
_geom_bond_distance
_ccdc_geom_bond_type
C13   N4    1.457007 S    
P7    O22   1.746727 S    
C20   C21   1.392781 A    
C25   C26   1.427177 A    
C5    H10   1.107877 S    
C27   C28   1.396066 A    
P5    C41   1.863935 S    
C39   C40   1.424455 A    
C15   O24   1.416521 S    
O6    P6    1.742696 S    
H1    C10   1.111014 S    
H32   C16   1.105237 S    
Ba1   Ba2   4.574412 S    
O16   Ba2   2.909986 S    
P3    O11   1.759297 S    
C3    H7    1.105723 S    
C33   C41   1.402185 A    
C2    H5    1.107424 S    
O11   C2    1.408666 S    
C8    C9    1.523834 S    
C7    H13   1.109384 S    
O2    Ba2   2.839499 S    
P8    C17   1.857428 S    
C5    N1    1.466512 S    
C26   C30   1.437042 A    
C32   H38   1.082406 S    
C1    N3    1.456292 S    
C10   H20   1.112633 S    
P1    O1    1.525936 D    
C38   C39   1.429441 A    
C24   C25   1.433856 A    
C12   H24   1.106670 S    
N1    H42   1.042839 S    
C9    H19   1.110847 S    
C2    H4    1.104909 S    
P5    O17   1.770554 S    
P2    O10   1.751037 S    
C35   C36   1.392333 A    
C6    H12   1.097700 S    
C13   H27   1.106762 S    
C22   C23   1.393808 A    
C1    H2    1.113979 S    
C38   C42   1.414256 A    
C3    H26   1.110518 S    
P4    C24   1.881093 S    
C27   H36   1.078205 S    
P2    O20   1.592706 S    
C9    H18   1.107476 S    
P7    O21   1.579530 D    
Ba1   O16   2.837179 S    
C11   H21   1.109224 S    
C25   C27   1.403171 A    
C28   H35   1.078323 S    
O6    C10   1.407353 S    
O7    Ba1   2.870382 S    
P3    C36   1.861032 S    
O19   C13   1.408835 S    
P2    C37   1.889135 S    
C29   C31   1.417645 A    
P4    O13   1.584716 S    
C29   C30   1.413478 A    
C11   H22   1.110141 S    
P1    O5    1.755102 S    
C17   C32   1.398748 A    
C2    C3    1.529681 S    
C17   C18   1.416308 A    
C14   H29   1.111987 S    
C15   C16   1.543943 S    
C19   C20   1.415131 A    
N7    O29   1.299813 A    
Ba2   O21   2.870707 S    
C4    H8    1.108999 S    
P1    O2    1.584561 S    
O2    Ba1   2.919222 S    
N5    H47   1.042536 S    
N4    O28   1.301447 A    
C8    H15   1.106798 S    
C11   O22   1.399908 S    
C33   N8    1.444941 S    
C1    H3    1.111381 S    
C18   C26   1.412682 A    
C6    H11   1.106277 S    
P5    O18   1.545352 D    
C28   C29   1.409902 A    
O13   Ba2   2.920078 S    
C12   H23   1.103298 S    
C6    C7    1.520187 S    
C1    C10   1.526207 S    
O10   C8    1.397098 S    
C15   H30   1.107208 S    
O16   P7    1.768522 S    
C4    O15   1.410721 S    
C35   H39   1.076122 S    
N2    O25   1.300759 A    
O14   Ba2   2.823790 S    
N7    O30   1.296181 A    
C9    H17   1.109972 S    
C33   C40   1.415987 A    
C21   H34   1.078879 S    
O12   Ba2   2.845658 S    
C7    N2    1.461064 S    
P3    O8    1.738492 S    
O3    P6    1.742287 S    
N6    H48   1.042429 S    
N9    H53   1.039009 S    
N4    O27   1.295176 A    
P4    O12   1.526161 D    
C24   C32   1.396258 A    
O8    Ba1   2.801031 S    
N3    H45   1.044491 S    
C41   C42   1.404808 A    
Ba2   O20   2.836618 S    
C18   C21   1.396824 A    
C11   C12   1.521751 S    
P1    C22   1.893305 S    
C12   H25   1.109489 S    
P2    Ba1   3.405346 S    
C3    H6    1.108311 S    
C35   C39   1.412354 A    
C20   N7    1.418491 S    
O4    P6    1.543862 D    
C15   H31   1.098133 S    
C23   H37   1.082241 S    
C14   H28   1.100956 S    
C19   C22   1.447617 A    
C42   H40   1.070096 S    
N8    H50   1.026847 S    
C14   N5    1.461859 S    
C4    C5    1.542024 S    
Ba1   O13   2.838739 S    
O1    Ba1   2.845088 S    
O17   Ba2   2.801624 S    
C23   C31   1.396640 A    
C16   N6    1.461834 S    
N5    H46   1.043473 S    
P2    O7    1.514732 D    
O14   P8    1.734427 S    
C34   H41   1.081334 S    
C37   C38   1.436425 A    
N8    H51   1.037333 S    
C4    N9    1.454898 S    
C34   C36   1.399405 A    
P5    O19   1.761262 S    
Ba1   O20   2.910749 S    
P1    Ba1   3.387661 S    
O5    C6    1.386657 S    
C7    H14   1.109417 S    
C19   C30   1.433370 A    
P8    O23   1.544945 D    
N1    H43   1.045333 S    
N2    O26   1.300069 A    
P4    Ba2   3.388215 S    
C8    H16   1.111002 S    
C16   H33   1.108813 S    
P3    O9    1.548652 D    
P6    C31   1.841854 S    
C5    H9    1.102593 S    
N6    H49   1.045076 S    
N9    H52   1.041343 S    
C13   C14   1.545401 S    
P7    C40   1.857403 S    
P8    O24   1.766018 S    
O3    Ba1   2.824447 S    
P4    O15   1.750331 S    
N3    H44   1.045929 S    
C34   C37   1.405372 A    
