data_mof_unit_56101.cif
_audit_creation_date              2012-12-11T14:08:10-0500
_audit_creation_method            fapswitch 2.2
_symmetry_space_group_name_H-M    P1
_symmetry_Int_Tables_number       1
_space_group_crystal_system       triclinic
_cell_length_a                    10.917442
_cell_length_b                    10.957102
_cell_length_c                    18.723982
_cell_angle_alpha                 89.89246
_cell_angle_beta                  90.52498
_cell_angle_gamma                 60.39124
_cell_volume                      1947.21598776

loop_
_atom_site_label
_atom_site_type_symbol
_atom_type_description
_atom_site_fract_x
_atom_site_fract_y
_atom_site_fract_z
_atom_type_partial_charge
C1    C     C_R   0.228765 0.647248 0.605904 0.521554
C2    C     C_3   0.674379 0.533316 0.814506 -0.091782
C3    C     C_3   0.690625 0.666515 0.816139 0.038690
C4    C     C_3   0.652115 0.619255 0.684243 0.008369
C5    C     C_3   0.794280 0.617948 0.691894 -0.243085
C6    C     C_3   0.655995 0.502182 0.734607 -0.085665
C7    C     C_2   0.693187 0.124902 0.660574 -0.073403
C8    C     C_2   0.718677 0.079393 0.814843 -0.117457
C9    C     C_2   0.826591 0.064013 0.774752 -0.174854
C10   C     C_2   0.801965 0.115128 0.699677 -0.131509
C11   C     C_2   0.152839 0.667437 0.673080 -0.133395
C12   C     C_R   0.631343 0.590196 0.609448 0.543722
C13   C     C_2   0.171515 0.679646 0.833682 -0.005492
C14   C     C_2   0.153221 0.585500 0.795297 -0.168600
C15   C     C_2   0.177793 0.558869 0.717990 -0.036723
C16   C     C_2   0.664133 0.694827 0.332760 -0.000339
C17   C     C_2   0.672338 0.673937 0.171013 -0.103691
C18   C     C_2   0.780997 0.641023 0.216624 -0.153076
C19   C     C_2   0.775563 0.615172 0.292164 -0.157252
C20   C     C_2   0.601032 0.261368 0.313381 -0.100534
C21   C     C_2   0.634032 0.207892 0.161903 -0.119602
C22   C     C_2   0.511341 0.251621 0.195166 -0.164743
C23   C     C_R   0.632067 0.221227 0.599540 0.570313
C24   C     C_2   0.491125 0.303074 0.268535 -0.175817
C25   C     C_2   0.119712 0.682192 0.345112 -0.109093
C26   C     C_2   0.112731 0.691247 0.191122 -0.107425
C27   C     C_2   0.041028 0.804138 0.233297 -0.152189
C28   C     C_2   0.073407 0.800729 0.308541 -0.164043
C29   C     C_R   0.729079 0.040196 0.890230 0.538686
C30   C     C_R   0.724244 0.689508 0.888421 0.535565
C31   C     C_R   0.112611 0.711130 0.905498 0.552438
C32   C     C_R   0.673726 0.112577 0.102131 0.541062
C33   C     C_R   0.697297 0.689443 0.096853 0.547475
C34   C     C_R   0.214857 0.651737 0.404638 0.553339
C35   C     C_R   0.086759 0.713111 0.115494 0.544557
C36   C     C_R   0.644009 0.629029 0.396287 0.559865
C37   C     C_R   0.578825 0.296145 0.387954 0.576052
C38   C     C_3   0.556352 0.794923 0.785488 -0.246937
C39   C     C_3   0.534943 0.767951 0.707481 -0.243624
C40   C     C_3   0.817305 0.643216 0.769495 -0.250433
Cr1   Cr    Cr6+3 0.393010 0.398050 0.501480 0.977893
Cr2   Cr    Cr6+3 0.398820 0.707980 0.501630 0.992609
Cr3   Cr    Cr6+3 0.708140 0.393940 0.496850 1.001834
Cr4   Cr    Cr6+3 0.937950 0.938450 0.008940 1.032627
Cr5   Cr    Cr6+3 0.626180 0.937030 0.994750 1.012551
Cr6   Cr    Cr6+3 0.937790 0.625760 0.001410 0.996863
H1    H     H_    0.567205 0.890701 0.788265 0.125602
H2    H     H_    0.752130 0.402450 0.720344 0.121830
H3    H     H_    0.913574 0.549086 0.789059 0.126192
H4    H     H_    0.884217 0.515350 0.675298 0.139255
H5    H     H_    0.929833 0.026683 0.798824 0.189854
H6    H     H_    0.865085 0.159019 0.679635 0.137538
H7    H     H_    0.614048 0.122814 0.791363 0.160932
H8    H     H_    0.635636 0.073619 0.678608 0.083033
H9    H     H_    0.117392 0.522712 0.823015 0.142446
H10   H     H_    0.462741 0.816151 0.817092 0.175150
H11   H     H_    0.094620 0.774824 0.691774 0.106487
H12   H     H_    0.883085 0.619867 0.197172 0.161821
H13   H     H_    0.862893 0.518132 0.312944 0.141377
H14   H     H_    0.569803 0.692909 0.188280 0.089375
H15   H     H_    0.428928 0.235768 0.171711 0.152306
H16   H     H_    0.384134 0.362433 0.288258 0.131269
H17   H     H_    0.713183 0.231346 0.182725 0.103496
H18   H     H_    0.709097 0.197138 0.296260 0.103416
H19   H     H_    0.968359 0.906722 0.210681 0.157696
H20   H     H_    0.428858 0.781388 0.698722 0.136523
H21   H     H_    0.078507 0.889978 0.330364 0.150954
H22   H     H_    0.186727 0.587390 0.211552 0.081399
H23   H     H_    0.106162 0.596878 0.324322 0.097056
H24   H     H_    0.539271 0.849470 0.673673 0.134111
H25   H     H_    0.835066 0.734851 0.772947 0.120171
H26   H     H_    0.794629 0.700558 0.657285 0.136373
H27   H     H_    0.777836 0.443854 0.832321 0.139654
O1    O     O_R   0.507110 0.256280 0.580300 -0.533130
O2    O     O_R   0.524640 0.695370 0.425100 -0.500392
O3    O     O_R   0.735890 0.504390 0.415980 -0.524949
O4    O     O_R   0.690560 0.277820 0.422350 -0.500528
O5    O     O_3   0.499990 0.499990 0.499980 -0.274947
O6    O     O_R   0.089190 0.825870 0.932320 -0.457640
O7    O     O_R   0.819070 0.053960 0.931440 -0.496810
O8    O     O_R   0.607070 0.076440 0.916460 -0.524190
O9    O     O_R   0.647110 0.806550 0.917690 -0.520169
O10   O     O_R   0.837080 0.593860 0.915300 -0.534645
O11   O     O_R   0.064770 0.636080 0.932550 -0.528772
O12   O     O_R   0.280830 0.527190 0.577940 -0.515458
O13   O     O_R   0.068250 0.829200 0.092940 -0.511963
O14   O     O_R   0.799650 0.057040 0.080330 -0.505790
O15   O     O_R   0.586130 0.079760 0.077080 -0.513454
O16   O     O_R   0.627700 0.809630 0.066580 -0.489070
O17   O     O_R   0.816140 0.597180 0.075920 -0.514286
O18   O     O_R   0.045360 0.639170 0.081440 -0.502911
O19   O     O_3   0.833980 0.833750 0.001700 -0.270059
O20   O     O_R   0.261360 0.738990 0.584270 -0.526595
O21   O     O_R   0.532590 0.694780 0.574370 -0.512181
O22   O     O_R   0.744470 0.503750 0.577000 -0.528726
O23   O     O_R   0.698520 0.277230 0.571620 -0.507929
O24   O     O_R   0.498530 0.256920 0.419280 -0.528416
O25   O     O_R   0.272880 0.527780 0.428680 -0.522158
O26   O     O_R   0.252780 0.739630 0.423250 -0.510276
C41   C     C_3   0.230983 0.408934 0.691309 -0.201010
C42   C     C_3   0.228268 0.303589 0.744940 -0.318970
C43   C     C_3   0.285083 0.158675 0.711702 -0.447951
H28   H     H_    0.219836 0.164206 0.664620 0.153100
H29   H     H_    0.395767 0.117282 0.694892 0.147354
H30   H     H_    0.281917 0.085106 0.751540 0.177984
H31   H     H_    0.294573 0.293230 0.792514 0.190508
H32   H     H_    0.118546 0.339787 0.761934 0.147951
H33   H     H_    0.166183 0.413482 0.644116 0.152543
H34   H     H_    0.341698 0.365618 0.675501 0.236061
C44   C     C_2   0.232095 0.763496 0.803142 0.167588
H35   H     H_    0.301283 0.723210 0.758520 0.093178
O27   O     O_2   0.206333 0.876906 0.827485 -0.532860
C45   C     C_3   0.545771 0.839972 0.309149 -0.252844
C46   C     C_3   0.512155 0.955793 0.364424 -0.271469
C47   C     C_3   0.364668 0.080292 0.350721 -0.429711
H36   H     H_    0.359237 0.127890 0.297542 0.151072
H37   H     H_    0.284668 0.045740 0.352720 0.144512
H38   H     H_    0.337921 0.160900 0.392442 0.175003
H39   H     H_    0.516637 0.918482 0.419951 0.185836
H40   H     H_    0.591295 0.991267 0.360539 0.180489
H41   H     H_    0.570973 0.877190 0.259238 0.155002
H42   H     H_    0.450538 0.830435 0.298183 0.154125
C48   C     C_3   0.561386 0.543362 0.869320 -0.240207
C49   C     C_3   0.617476 0.413882 0.917821 -0.283005
C50   C     C_3   0.501185 0.419759 0.964840 -0.411431
H43   H     H_    0.456575 0.514704 0.998919 0.145606
H44   H     H_    0.415820 0.421503 0.931309 0.170658
H45   H     H_    0.545228 0.325621 0.999845 0.176700
H46   H     H_    0.659971 0.318996 0.884339 0.222252
H47   H     H_    0.704009 0.407118 0.952378 0.168230
H48   H     H_    0.525016 0.635919 0.904598 0.151229
H49   H     H_    0.464847 0.558678 0.843008 0.188018
C51   C     C_2   0.535726 0.474582 0.720786 0.179303
H50   H     H_    0.453804 0.538343 0.683161 0.114942
O28   O     O_2   0.530786 0.378739 0.751241 -0.564962

loop_
_geom_bond_atom_site_label_1
_geom_bond_atom_site_label_2
_ccdc_geom_bond_type
C42   H32   S    
C7    C10   D    
C20   H18   S    
C42   C43   S    
C40   H25   S    
C48   H49   S    
Cr2   O20   S    
Cr5   O9    S    
C9    H5    S    
C15   C41   S    
C10   H6    S    
C16   C45   S    
C37   O24   A    
C46   C47   S    
C48   C49   S    
C2    C48   S    
C25   C28   D    
Cr2   O2    S    
C6    H2    S    
C8    C29   S    
C6    C51   S    
C38   C39   S    
C35   O13   A    
Cr6   O19   S    
C47   H36   S    
C32   O15   A    
Cr3   O3    S    
C23   O23   A    
C43   H30   S    
C18   C19   S    
C30   O10   A    
Cr5   O19   S    
C44   H35   S    
C36   O3    A    
Cr1   O1    S    
C11   C15   D    
C18   H12   S    
C45   H42   S    
C20   C24   D    
C3    C38   S    
C8    C9    D    
C47   H37   S    
C1    C11   S    
C50   H45   S    
Cr3   O22   S    
C12   O22   A    
C4    C12   S    
Cr4   O14   S    
Cr5   O16   S    
C9    C10   S    
C46   H39   S    
Cr4   O19   S    
C25   C34   S    
C14   H9    S    
C41   H34   S    
C21   C22   D    
C12   O21   A    
C2    C6    S    
C17   C33   S    
Cr4   O13   S    
C17   C18   D    
C1    O12   A    
C21   C32   S    
C41   H33   S    
Cr4   O7    S    
Cr5   O15   S    
C4    C6    S    
Cr1   O5    S    
Cr6   O18   S    
C19   H13   S    
C32   O14   A    
C37   O4    A    
C31   O11   A    
Cr3   O5    S    
C30   O9    A    
C3    C30   S    
C29   O8    A    
C13   C44   S    
C27   H19   S    
C36   O2    A    
C33   O16   A    
C14   C15   S    
C4    C39   S    
C47   H38   S    
C28   H21   S    
Cr3   O23   S    
C26   C27   D    
C49   H47   S    
C43   H29   S    
C38   H1    S    
C2    H27   S    
Cr6   O11   S    
C3    C40   S    
Cr2   O5    S    
C51   H50   S    
C39   H20   S    
C22   C24   S    
C5    H4    S    
C25   H23   S    
C23   O1    A    
Cr1   O12   S    
C51   O28   D    
C45   C46   S    
C42   H31   S    
C24   H16   S    
C48   H48   S    
Cr2   O21   S    
C33   O17   A    
C13   C31   S    
Cr4   O6    S    
Cr5   O8    S    
C4    C5    S    
C8    H7    S    
C31   O6    A    
Cr6   O17   S    
Cr3   O4    S    
C45   H41   S    
C34   O26   A    
C26   H22   S    
C2    C3    S    
C11   H11   S    
Cr2   O26   S    
C16   C36   S    
C22   H15   S    
C20   C37   S    
C50   H43   S    
C29   O7    A    
C16   C19   D    
C7    C23   S    
C41   C42   S    
C34   O25   A    
C39   H24   S    
C49   H46   S    
Cr1   O24   S    
C43   H28   S    
C44   O27   D    
C21   H17   S    
C17   H14   S    
Cr6   O10   S    
C26   C35   S    
C38   H10   S    
C1    O20   A    
C5    C40   S    
C27   C28   S    
C50   H44   S    
Cr1   O25   S    
C7    H8    S    
C13   C14   D    
C46   H40   S    
C40   H3    S    
C5    H26   S    
C49   C50   S    
C35   O18   A    
