data_mof_unit_62728.cif
_audit_creation_date              2013-03-05T15:56:44-0500
_audit_creation_method            fapswitch 2.2
_symmetry_space_group_name_H-M    P1
_symmetry_Int_Tables_number       1
_space_group_crystal_system       triclinic
_cell_length_a                    18.812848
_cell_length_b                    18.797494
_cell_length_c                    18.675484
_cell_angle_alpha                 109.038483
_cell_angle_beta                  109.581957
_cell_angle_gamma                 109.949753
_cell_volume                      5073.89918598

loop_
_atom_site_label
_atom_site_type_symbol
_atom_site_description
_atom_site_fract_x
_atom_site_fract_y
_atom_site_fract_z
_atom_type_partial_charge
O1    O     O_R   0.539900 0.091920 0.948590 -0.586642
O2    O     O_R   0.643340 0.091290 0.051390 -0.647023
C1    C     C_R   0.620179 0.120517 0.000251 0.894025
O3    O     O_R   0.448270 0.091350 0.039630 -0.645099
O4    O     O_R   0.551710 0.090720 0.142430 -0.605257
C2    C     C_R   0.500709 0.119542 0.120439 0.777006
Zn1   Zn    Zn3+2 0.430930 0.000420 0.931360 1.022581
Zn2   Zn    Zn3+2 0.569070 0.999580 0.068640 1.019485
O5    O     O_R   0.356660 0.908710 0.948610 -0.641298
O6    O     O_R   0.460100 0.908080 0.051410 -0.591637
O7    O     O_R   0.448290 0.909280 0.857570 -0.588323
O8    O     O_R   0.551730 0.908650 0.960370 -0.599605
C3    C     C_R   0.379811 0.880089 0.000377 0.898929
C4    C     C_R   0.499000 0.880155 0.880293 1.045208
C5    C     C_2   0.428025 0.236619 0.259410 -0.117932
C6    C     C_2   0.488726 0.321086 0.304173 -0.173380
H1    H     H_    0.377696 0.211714 0.275273 0.162996
H2    H     H_    0.532749 0.346623 0.281886 0.187488
C7    C     C_2   0.428580 0.176340 0.186590 -0.260763
C8    C     C_2   0.504179 0.185364 0.191029 0.389927
H3    H     H_    0.366192 0.121709 0.130438 0.132806
C9    C     C_R   0.757115 0.178363 0.999655 -0.122326
H4    H     H_    0.762571 0.122630 0.999051 0.153325
C10   C     C_R   0.820352 0.241589 0.998170 -0.192884
H5    H     H_    0.875200 0.235215 0.997229 0.147101
C11   C     C_R   0.813356 0.313665 0.999799 -0.014081
C12   C     C_R   0.743026 0.322451 0.001433 -0.145370
H6    H     H_    0.737669 0.378282 0.002253 0.157538
C13   C     C_R   0.678413 0.257888 0.000243 -0.190110
H7    H     H_    0.623400 0.264070 0.000915 0.149050
C14   C     C_R   0.686183 0.186554 0.000062 0.004953
C15   C     C_R   0.485104 0.736639 0.814900 0.288982
C16   C     C_R   0.485868 0.674520 0.750798 -0.311938
H8    H     H_    0.475377 0.613939 0.750393 0.216691
C17   C     C_R   0.499287 0.689419 0.686878 -0.249493
C18   C     C_R   0.513678 0.767555 0.686094 0.439605
C19   C     C_R   0.510205 0.829673 0.748508 0.170360
C20   C     C_R   0.497830 0.814447 0.813601 -0.352229
C21   C     C_R   0.322876 0.820745 0.080046 -0.180533
H9    H     H_    0.378985 0.875700 0.141830 0.149033
C22   C     C_R   0.258190 0.757335 0.079936 -0.162682
H10   H     H_    0.264529 0.762793 0.141629 0.152653
C23   C     C_R   0.186464 0.686285 0.000053 -0.012143
C24   C     C_R   0.178091 0.678541 0.920294 -0.183064
H11   H     H_    0.122131 0.623425 0.858510 0.145475
C25   C     C_R   0.241404 0.743330 0.920431 -0.115729
H12   H     H_    0.234874 0.738002 0.858724 0.156520
C26   C     C_R   0.313762 0.813777 0.000301 0.005600
O9    O     O_R   0.539910 0.450960 0.594180 -0.620749
O10   O     O_R   0.643360 0.554400 0.594170 -0.636654
C27   C     C_R   0.620302 0.502377 0.622665 0.886329
O11   O     O_R   0.448310 0.360490 0.412110 -0.631574
O12   O     O_R   0.551750 0.463920 0.412090 -0.600585
C28   C     C_R   0.497049 0.383910 0.380383 0.944006
Zn3   Zn    Zn3+2 0.430950 0.434180 0.503140 0.984479
Zn4   Zn    Zn3+2 0.569090 0.572300 0.503120 1.014352
O13   O     O_R   0.356690 0.452080 0.412090 -0.631107
O14   O     O_R   0.460130 0.555510 0.412070 -0.581323
O15   O     O_R   0.448290 0.542560 0.594160 -0.629315
O16   O     O_R   0.551730 0.645990 0.594150 -0.606302
C29   C     C_R   0.379907 0.502718 0.382340 0.944815
C30   C     C_R   0.499304 0.622904 0.621749 0.959990
O17   O     O_R   0.908290 0.449200 0.857490 -0.610169
O18   O     O_R   0.908310 0.551980 0.960300 -0.621909
C31   C     C_R   0.879470 0.500020 0.880154 0.925990
O19   O     O_R   0.908280 0.357000 0.948510 -0.610209
O20   O     O_R   0.908310 0.459790 0.051330 -0.628452
C32   C     C_R   0.879568 0.379787 0.999838 0.881881
Zn5   Zn    Zn3+2 0.999890 0.431370 0.931260 0.987747
Zn6   Zn    Zn3+2 0.999930 0.568630 0.068560 0.978776
O21   O     O_R   0.091510 0.448020 0.039520 -0.621252
O22   O     O_R   0.091540 0.550800 0.142340 -0.621310
O23   O     O_R   0.091520 0.540220 0.948490 -0.616279
O24   O     O_R   0.091540 0.643000 0.051310 -0.625633
C33   C     C_R   0.120221 0.499743 0.119825 0.884157
C34   C     C_R   0.120195 0.620200 0.999934 0.855997
C35   C     C_R   0.765716 0.578459 0.750788 -0.169133
H13   H     H_    0.777976 0.639448 0.751555 0.160272
C36   C     C_R   0.828666 0.577718 0.814741 -0.264464
H14   H     H_    0.889684 0.637951 0.864549 0.163004
C37   C     C_R   0.813202 0.499180 0.813604 -0.118121
C38   C     C_R   0.735200 0.420497 0.748900 0.522887
C39   C     C_R   0.670361 0.422546 0.687243 -0.268607
H15   H     H_    0.608035 0.363246 0.638999 0.167098
C40   C     C_R   0.686457 0.501094 0.687777 -0.081361
C41   C     C_R   0.317459 0.491546 0.236992 0.314501
C42   C     C_R   0.253001 0.492051 0.173629 -0.234435
H16   H     H_    0.253801 0.484815 0.113930 0.191430
C43   C     C_R   0.186962 0.500936 0.186554 -0.080395
C44   C     C_R   0.184219 0.509944 0.262578 -0.166090
H17   H     H_    0.132673 0.516601 0.272269 0.158198
C45   C     C_R   0.247339 0.508622 0.325740 -0.209263
H18   H     H_    0.245202 0.515634 0.384833 0.164180
C46   C     C_R   0.313883 0.500060 0.313448 -0.137557
O25   O     O_3   0.525237 0.780107 0.620785 -0.564151
C47   C     C_3   0.614926 0.837030 0.655246 -0.176151
H19   H     H_    0.625615 0.835979 0.600085 0.180580
H20   H     H_    0.657402 0.816514 0.690364 0.130170
H21   H     H_    0.635532 0.905267 0.699438 0.187782
N1    N     N_R   0.520358 0.908104 0.746141 0.221756
O26   O     O_R   0.580889 0.984050 0.814532 -0.435622
O27   O     O_R   0.475472 0.903810 0.673018 -0.329056
O28   O     O_3   0.719823 0.344620 0.752610 -0.608012
C48   C     C_3   0.713848 0.284186 0.678825 -0.251058
H22   H     H_    0.712745 0.228530 0.688090 0.203851
H23   H     H_    0.771508 0.313217 0.671323 0.155533
H24   H     H_    0.652228 0.257733 0.618078 0.157654
N2    N     N_R   0.383419 0.479402 0.221435 0.208758
O29   O     O_R   0.410952 0.510155 0.176869 -0.366518
O30   O     O_R   0.406260 0.426821 0.239748 -0.423969
O31   O     O_3   0.582836 0.243098 0.270163 -0.595407
C49   C     C_3   0.648743 0.289579 0.256124 -0.324236
H25   H     H_    0.625353 0.314261 0.211719 0.142707
H26   H     H_    0.675054 0.249103 0.230365 0.188486
H27   H     H_    0.703634 0.347170 0.320004 0.199225
N3    N     N_R   0.468019 0.718357 0.878356 0.228340
O32   O     O_R   0.496444 0.673092 0.906227 -0.362994
O33   O     O_R   0.413401 0.735040 0.898246 -0.413303

loop_
_geom_bond_atom_site_label_1
_geom_bond_atom_site_label_2
_geom_bond_distance
_ccdc_geom_bond_type
O19   C32   1.277177 A    
C42   H16   1.084177 S    
O17   C31   1.276394 A    
Zn3   O15   2.015401 S    
C12   C13   1.381495 A    
O25   C47   1.413140 S    
C22   H10   1.083789 S    
C7    C8    1.343711 D    
C27   C40   1.432949 S    
C48   H23   1.114404 S    
C37   C38   1.401941 A    
C21   C22   1.381520 A    
C35   H13   1.083690 S    
N2    O29   1.301427 A    
C5    C7    1.464829 S    
C11   C12   1.397034 A    
C19   C20   1.408935 A    
O24   C34   1.277090 A    
C19   N1    1.438065 S    
C18   C19   1.393391 A    
C7    H3    1.087088 S    
C10   C11   1.396886 A    
O3    Zn1   2.009731 S    
O4    C2    1.272210 A    
O7    C4    1.275366 A    
O19   Zn5   2.012523 S    
C5    C6    1.334450 D    
C47   H21   1.110074 S    
N3    O32   1.301438 A    
O16   C30   1.273325 A    
O13   C29   1.276526 A    
Zn5   O21   2.009896 S    
O5    C3    1.277023 A    
C49   H25   1.114597 S    
C41   C46   1.411203 A    
C44   C45   1.379299 A    
C3    C26   1.427751 S    
O17   Zn5   2.020881 S    
C24   C25   1.381296 A    
O9    C27   1.277606 A    
C47   H20   1.114196 S    
Zn6   O24   2.012521 S    
C38   O28   1.385342 S    
Zn5   O23   2.013312 S    
O18   Zn6   2.009897 S    
Zn4   O14   2.016148 S    
O11   Zn3   2.014957 S    
O14   C29   1.275786 A    
C35   C40   1.396655 A    
O1    Zn1   2.013735 S    
C22   C23   1.396822 A    
O22   C33   1.277195 A    
C49   H26   1.110468 S    
C48   H22   1.109316 S    
O11   C28   1.282389 A    
O10   C27   1.277663 A    
C35   C36   1.379551 A    
C25   C26   1.397040 A    
C9    C14   1.396696 A    
O20   C32   1.277415 A    
C10   H5    1.083768 S    
O3    C2    1.286516 A    
C21   H9    1.083774 S    
C36   C37   1.395324 A    
C29   C46   1.430071 S    
O9    Zn3   2.016150 S    
O10   Zn4   2.014538 S    
Zn4   O16   2.014957 S    
O1    C1    1.277365 A    
C17   C18   1.405739 A    
Zn1   O7    2.020895 S    
C23   C24   1.396547 A    
C13   H7    1.083794 S    
C4    C20   1.427150 S    
C8    O31   1.394063 S    
C31   C37   1.426295 S    
C39   H15   1.083458 S    
Zn2   O8    2.009730 S    
C47   H19   1.109201 S    
C45   C46   1.397083 A    
C16   H8    1.084351 S    
C15   N3    1.439264 S    
C1    C14   1.427147 S    
Zn2   O6    2.013732 S    
C39   C40   1.398268 A    
O8    C4    1.275865 A    
C15   C20   1.408961 A    
Zn3   O13   2.014452 S    
O23   C34   1.277159 A    
C9    C10   1.381079 A    
C12   H6    1.083767 S    
C24   H11   1.083796 S    
N1    O27   1.301181 A    
O12   Zn4   2.015487 S    
C23   C34   1.427212 S    
C5    H1    1.086032 S    
C25   H12   1.083790 S    
O15   C30   1.280330 A    
O31   C49   1.413367 S    
C41   C42   1.387165 A    
C41   N2    1.438072 S    
O6    C3    1.277583 A    
O4    Zn2   2.020895 S    
Zn6   O22   2.021094 S    
N2    O30   1.300160 A    
O12   C28   1.275147 A    
C2    C8    1.447804 S    
O20   Zn6   2.013101 S    
C11   C32   1.427863 S    
C15   C16   1.381248 A    
C42   C43   1.394972 A    
O2    C1    1.276927 A    
C13   C14   1.396607 A    
O18   C31   1.276286 A    
O21   C33   1.278119 A    
C18   O25   1.386020 S    
C44   H17   1.083732 S    
C45   H18   1.084146 S    
C16   C17   1.392497 A    
N3    O33   1.300703 A    
C17   C30   1.432159 S    
C49   H27   1.109203 S    
C6    C28   1.439684 S    
C33   C43   1.429603 S    
C36   H14   1.084048 S    
Zn1   O5    2.012036 S    
C6    H2    1.086141 S    
C38   C39   1.390959 A    
O2    Zn2   2.012035 S    
O28   C48   1.410578 S    
C9    H4    1.083811 S    
N1    O26   1.300873 A    
C43   C44   1.394740 A    
C48   H24   1.111407 S    
C21   C26   1.396699 A    
