data_mof_unit_40623.cif
_audit_creation_date              2012-12-10T18:57:39-0500
_audit_creation_method            fapswitch 2.2
_symmetry_space_group_name_H-M    P1
_symmetry_Int_Tables_number       1
_space_group_crystal_system       triclinic
_cell_length_a                    10.926781
_cell_length_b                    10.844811
_cell_length_c                    9.56458
_cell_angle_alpha                 90.414089
_cell_angle_beta                  90.17662
_cell_angle_gamma                 90.353719
_cell_volume                      1133.33522785

loop_
_atom_site_label
_atom_site_type_symbol
_atom_type_description
_atom_site_fract_x
_atom_site_fract_y
_atom_site_fract_z
_atom_type_partial_charge
C1    C     C_R   0.497913 0.262520 0.499413 0.801586
C2    C     C_R   0.487206 0.129558 0.496699 -0.117008
C3    C     C_R   0.505613 0.063784 0.371746 -0.216277
C4    C     C_R   0.506037 0.935351 0.372027 -0.213620
C5    C     C_R   0.490566 0.871178 0.498142 -0.077051
C6    C     C_R   0.458393 0.937679 0.617815 0.067431
C7    C     C_3   0.510960 0.935613 0.762079 -0.528951
C8    C     C_3   0.503721 0.075709 0.761844 0.099579
C9    C     C_R   0.602724 0.532885 0.074385 0.262437
C10   C     C_R   0.402874 0.455551 0.073563 -0.094121
C11   C     C_R   0.402927 0.455387 0.924971 -0.044888
C12   C     C_R   0.265502 0.503205 0.499824 0.847100
C13   C     C_R   0.602769 0.532810 0.927077 0.253696
C14   C     C_3   0.666356 0.654503 0.923586 -0.515521
C15   C     C_3   0.667206 0.654050 0.081964 -0.501660
C16   C     C_R   0.499349 0.737757 0.500130 0.798143
C17   C     C_R   0.734614 0.494098 0.500279 0.815080
C18   C     C_2   0.933226 0.507268 0.391592 -0.243288
C19   C     C_2   0.865368 0.469026 0.500725 0.129238
C20   C     C_2   0.066339 0.495607 0.386290 -0.174130
C21   C     C_2   0.133930 0.514519 0.501183 -0.329659
C22   C     C_R   0.454784 0.064863 0.616478 0.066237
Cu1   Cu    Cu3+1 0.499990 0.499980 0.640670 0.948755
Cu2   Cu    Cu3+1 0.500010 0.500020 0.359330 0.934045
H1    H     H_    0.890547 0.553918 0.304237 0.140246
H2    H     H_    0.593725 0.124196 0.768410 0.152303
H3    H     H_    0.323531 0.420687 0.128077 0.136344
H4    H     H_    0.323662 0.420252 0.869395 0.148266
H5    H     H_    0.759163 0.649221 0.877463 0.189618
H6    H     H_    0.606930 0.726629 0.879870 0.214950
H7    H     H_    0.760612 0.646232 0.126924 0.186456
H8    H     H_    0.610076 0.727867 0.128609 0.208976
H9    H     H_    0.108792 0.478490 0.285511 0.165905
H10   H     H_    0.091897 0.540521 0.599482 0.179532
H11   H     H_    0.527007 0.111279 0.275940 0.167695
H12   H     H_    0.525165 0.887276 0.275127 0.152573
H13   H     H_    0.448815 0.889670 0.837706 0.204225
H14   H     H_    0.607249 0.903390 0.762378 0.175017
N1    N     N_R   0.500780 0.500930 0.147930 -0.186336
N2    N     N_R   0.500780 0.500890 0.852020 -0.187644
O1    O     O_R   0.500000 0.319640 0.618810 -0.568319
O2    O     O_R   0.500010 0.319680 0.381230 -0.587094
O3    O     O_R   0.321940 0.499980 0.618760 -0.593175
O4    O     O_R   0.321950 0.500020 0.381180 -0.583001
O5    O     O_R   0.499990 0.680320 0.618770 -0.578261
O6    O     O_R   0.500000 0.680360 0.381190 -0.586053
O7    O     O_R   0.678050 0.499980 0.618820 -0.568128
O8    O     O_R   0.678060 0.500020 0.381240 -0.601880
N3    N     N_2   0.912343 0.386668 0.604023 -0.430918
H15   H     H_    0.984588 0.331048 0.575980 0.267484
C23   C     C_3   0.911797 0.428379 0.748256 -0.686867
H16   H     H_    0.999842 0.404604 0.799542 0.204669
H17   H     H_    0.836264 0.381948 0.805091 0.242503
H18   H     H_    0.900627 0.529909 0.755557 0.218134
N4    N     N_2   0.412319 0.124232 0.857021 -0.398346
H19   H     H_    0.325916 0.086160 0.846213 0.257163
C24   C     C_3   0.452046 0.134771 0.000686 -0.698087
H20   H     H_    0.378760 0.177982 0.064125 0.222523
H21   H     H_    0.535410 0.193676 0.008347 0.232516
H22   H     H_    0.471540 0.041902 0.043346 0.219857

loop_
_geom_bond_atom_site_label_1
_geom_bond_atom_site_label_2
_ccdc_geom_bond_type
C16   O5    A    
C2    C22   A    
C8    C22   S    
N4    H19   S    
C4    H12   S    
C15   H7    S    
C6    C7    S    
Cu1   O5    S    
C8    H2    S    
C19   N3    S    
C5    C16   S    
Cu1   O1    S    
C10   H3    S    
C3    H11   S    
Cu1   Cu2   S    
C23   H18   S    
Cu2   O6    S    
N3    C23   S    
C2    C3    A    
C7    H13   S    
Cu1   O3    S    
C15   H8    S    
C12   O4    A    
C13   C14   S    
C24   H20   S    
C11   N2    A    
C18   H1    S    
C11   H4    S    
C14   H6    S    
C20   H9    S    
C8    N4    S    
C1    O1    A    
C17   C19   S    
C7    H14   S    
C18   C19   D    
C12   O3    A    
C18   C20   S    
N4    C24   S    
C9    C15   S    
C5    C6    A    
Cu2   O4    S    
C23   H16   S    
C24   H21   S    
Cu1   O7    S    
C10   C11   A    
C14   H5    S    
C17   O8    A    
C3    C4    A    
Cu2   O8    S    
C1    O2    A    
C7    C8    S    
Cu2   N1    S    
Cu2   O2    S    
C20   C21   D    
C1    C2    S    
C16   O6    A    
N3    H15   S    
Cu1   N2    S    
C9    C13   A    
C14   C15   S    
C4    C5    A    
C13   N2    A    
C21   H10   S    
C23   H17   S    
C12   C21   S    
C9    N1    A    
C17   O7    A    
C10   N1    A    
C24   H22   S    
C6    C22   A    
