data_mof_unit_51069.cif
_audit_creation_date              2012-12-11T15:36:32-0500
_audit_creation_method            fapswitch 2.2
_symmetry_space_group_name_H-M    P1
_symmetry_Int_Tables_number       1
_space_group_crystal_system       triclinic
_cell_length_a                    15.04768
_cell_length_b                    15.061706
_cell_length_c                    34.845462
_cell_angle_alpha                 91.312428
_cell_angle_beta                  91.689459
_cell_angle_gamma                 59.811859
_cell_volume                      6823.17137318

loop_
_atom_site_label
_atom_site_type_symbol
_atom_type_description
_atom_site_fract_x
_atom_site_fract_y
_atom_site_fract_z
_atom_type_partial_charge
C1    C     C_R   0.611012 0.302885 0.443772 0.552358
C2    C     C_R   0.727540 0.678344 0.179839 0.030039
C3    C     C_R   0.655667 0.095121 0.823528 0.043830
C4    C     C_R   0.709476 0.134208 0.845059 0.296737
C5    C     C_R   0.719317 0.121257 0.885103 -0.106129
C6    C     C_R   0.562516 0.139985 0.759880 -0.121518
C7    C     C_R   0.562715 0.151808 0.720204 -0.077728
C8    C     C_R   0.655591 0.120025 0.701545 0.051290
C9    C     C_R   0.748648 0.070207 0.722449 -0.135384
C10   C     C_R   0.748533 0.057388 0.761908 -0.086476
C11   C     C_R   0.655250 0.096257 0.781153 0.054328
C12   C     C_R   0.610322 0.121027 0.631282 0.290253
C13   C     C_R   0.817968 0.616054 0.159773 -0.127921
C14   C     C_R   0.594581 0.166347 0.594530 0.023629
C15   C     C_R   0.680356 0.258454 0.618514 -0.156606
C16   C     C_R   0.692372 0.216207 0.654509 -0.180784
C17   C     C_R   0.654356 0.150770 0.661589 0.017254
C18   C     C_R   0.628473 0.237914 0.588630 -0.006303
C19   C     C_R   0.044740 0.739305 0.048952 0.547113
C20   C     C_R   0.746676 0.745937 0.063753 0.544038
C21   C     C_R   0.750625 0.041087 0.050572 0.542537
C22   C     C_R   0.015107 0.723180 0.939216 0.574886
C23   C     C_R   0.717232 0.729831 0.954915 0.544610
C24   C     C_R   0.822721 0.633513 0.120966 -0.132713
C25   C     C_R   0.722019 0.023155 0.941685 0.541973
C26   C     C_R   0.754197 0.576953 0.238703 -0.113818
C27   C     C_R   0.747771 0.570877 0.278935 0.295373
C28   C     C_R   0.713950 0.661759 0.301088 0.049206
C29   C     C_R   0.687407 0.754764 0.283530 -0.186127
C30   C     C_R   0.693106 0.759371 0.244150 -0.142416
C31   C     C_R   0.726036 0.670876 0.221586 -0.012884
C32   C     C_R   0.599089 0.731974 0.356207 -0.125785
C33   C     C_R   0.593885 0.610089 0.448903 0.526891
C34   C     C_R   0.573920 0.727647 0.394093 -0.006161
C35   C     C_R   0.737748 0.562656 0.400153 -0.001202
C36   C     C_R   0.771403 0.592176 0.367727 0.097448
C37   C     C_R   0.695821 0.662508 0.342421 0.049831
C38   C     C_R   0.636964 0.634407 0.414785 -0.007973
C39   C     C_R   0.099955 0.728901 0.085949 0.003155
C40   C     C_R   0.140664 0.636479 0.106242 -0.117873
C41   C     C_R   0.164349 0.632003 0.145658 0.013408
C42   C     C_R   0.149808 0.722464 0.164815 0.058583
C43   C     C_R   0.118513 0.812021 0.143676 -0.110550
C44   C     C_R   0.304407 0.591278 0.442180 0.557740
C45   C     C_R   0.093314 0.815495 0.104631 -0.145014
C46   C     C_R   0.234173 0.741524 0.225740 0.292711
C47   C     C_R   0.242137 0.739859 0.266465 0.037635
C48   C     C_R   0.172098 0.723659 0.287700 -0.014996
C49   C     C_R   0.092886 0.716629 0.268533 -0.163962
C50   C     C_R   0.085279 0.719158 0.228801 -0.187789
C51   C     C_R   0.157123 0.727924 0.207091 0.024025
C52   C     C_R   0.224574 0.595055 0.338342 -0.126499
C53   C     C_R   0.252283 0.560903 0.376127 0.261204
C54   C     C_R   0.207977 0.733849 0.395846 -0.168677
C55   C     C_R   0.606764 0.298453 0.553199 0.538560
C56   C     C_R   0.172750 0.769866 0.358458 0.015627
C57   C     C_R   0.188280 0.697764 0.328950 -0.015645
C58   C     C_R   0.250702 0.629413 0.404755 0.005068
C59   C     C_R   0.722295 0.100951 0.086675 0.018120
C60   C     C_R   0.792707 0.122750 0.105903 -0.131526
C61   C     C_R   0.780068 0.150937 0.144648 -0.127555
C62   C     C_R   0.697920 0.156046 0.164465 0.032610
C63   C     C_R   0.620649 0.147755 0.144186 -0.130386
C64   C     C_R   0.632770 0.120230 0.105462 -0.133718
C65   C     C_R   0.618525 0.244871 0.224369 -0.152506
C66   C     C_R   0.587897 0.607137 0.559053 0.571464
C67   C     C_R   0.610214 0.250287 0.263853 -0.136887
C68   C     C_R   0.680808 0.169242 0.286863 0.021139
C69   C     C_R   0.761762 0.078640 0.269926 0.037978
C70   C     C_R   0.769719 0.072348 0.228978 0.043405
C71   C     C_R   0.697564 0.158098 0.206697 0.022783
C72   C     C_R   0.742215 0.199327 0.349870 -0.146621
C73   C     C_R   0.726258 0.228088 0.388288 -0.180611
C74   C     C_R   0.564264 0.228860 0.385643 0.287626
C75   C     C_R   0.581376 0.199316 0.346722 -0.099660
C76   C     C_R   0.669623 0.185713 0.328735 -0.018930
C77   C     C_R   0.297603 0.589602 0.551590 0.536444
C78   C     C_R   0.635016 0.248662 0.406165 0.026516
C79   C     C_R   0.693135 0.690735 0.919250 -0.030149
C80   C     C_R   0.772490 0.606542 0.899941 -0.151859
C81   C     C_R   0.760747 0.588875 0.861241 -0.125808
C82   C     C_R   0.668908 0.653951 0.841376 0.100528
C83   C     C_R   0.584585 0.731205 0.861629 0.302197
C84   C     C_R   0.597091 0.748415 0.900619 -0.116387
C85   C     C_R   0.594872 0.631699 0.779312 0.273928
C86   C     C_R   0.593840 0.629757 0.738969 -0.144769
C87   C     C_R   0.661098 0.648490 0.718397 -0.050468
C88   C     C_R   0.736808 0.713208 0.101970 0.020955
C89   C     C_R   0.733262 0.667832 0.737861 0.035527
C90   C     C_R   0.734597 0.670759 0.778389 0.227801
C91   C     C_R   0.666805 0.650504 0.798970 0.046328
C92   C     C_R   0.723036 0.557180 0.656120 -0.113852
C93   C     C_R   0.708652 0.548213 0.616673 0.212369
C94   C     C_R   0.556567 0.720015 0.617548 0.221480
C95   C     C_R   0.573277 0.727238 0.656954 -0.134194
C96   C     C_R   0.654335 0.645281 0.676325 -0.061569
C97   C     C_R   0.620596 0.626838 0.597489 0.024416
C98   C     C_R   0.051725 0.705469 0.899548 -0.005792
C99   C     C_R   0.644364 0.770471 0.121663 -0.129146
C100  C     C_R   0.020844 0.792068 0.876626 -0.200337
C101  C     C_R   0.039285 0.781614 0.837773 -0.199209
C102  C     C_R   0.089617 0.684428 0.820592 -0.002112
C103  C     C_R   0.123689 0.595416 0.843142 0.303770
C104  C     C_R   0.104693 0.606351 0.882937 0.300427
C105  C     C_R   0.205412 0.619357 0.764771 -0.106303
C106  C     C_R   0.220880 0.617649 0.725573 -0.132384
C107  C     C_R   0.137554 0.676169 0.700671 0.022463
C108  C     C_R   0.038703 0.736938 0.714872 -0.130747
C109  C     C_R   0.023098 0.738500 0.754091 -0.124696
C110  C     C_R   0.639946 0.753362 0.160360 -0.127337
C111  C     C_R   0.106335 0.679274 0.779186 0.041974
C112  C     C_R   0.196848 0.728113 0.644964 -0.124119
C113  C     C_R   0.236026 0.706994 0.608130 -0.128330
C114  C     C_R   0.186947 0.576582 0.600186 -0.130785
C115  C     C_R   0.147055 0.598447 0.636939 -0.124785
C116  C     C_R   0.155557 0.671464 0.659767 0.024907
C117  C     C_R   0.235575 0.627764 0.586166 0.018513
C118  C     C_R   0.680971 0.065733 0.903344 -0.017392
C119  C     C_R   0.621728 0.033349 0.881976 -0.150138
C120  C     C_R   0.608467 0.048853 0.842359 -0.187033
Cr1   Cr    Cr6+3 0.426010 0.422500 0.497000 1.046326
Cr2   Cr    Cr6+3 0.651300 0.426310 0.501970 1.018938
Cr3   Cr    Cr6+3 0.422670 0.651170 0.501050 1.016857
Cr4   Cr    Cr6+3 0.905130 0.911420 0.992650 1.010782
Cr5   Cr    Cr6+3 0.911860 0.682710 0.002320 1.018280
Cr6   Cr    Cr6+3 0.682710 0.906840 0.004710 1.013617
H1    H     H_    0.576716 0.831832 0.107678 0.131008
H2    H     H_    0.886207 0.557832 0.174585 0.098522
H3    H     H_    0.147226 0.568955 0.091851 0.127205
H4    H     H_    0.061577 0.888014 0.089853 0.129247
H5    H     H_    0.039112 0.704606 0.284481 0.121416
H6    H     H_    0.895001 0.588442 0.106471 0.125069
H7    H     H_    0.024398 0.711262 0.214796 0.113605
H8    H     H_    0.235153 0.539870 0.315838 0.121626
H9    H     H_    0.107049 0.881478 0.158032 0.127813
H10   H     H_    0.203991 0.787389 0.417977 0.124644
H11   H     H_    0.861642 0.110044 0.092011 0.125666
H12   H     H_    0.576228 0.105883 0.091190 0.126955
H13   H     H_    0.524022 0.190766 0.330154 0.114125
H14   H     H_    0.548842 0.319466 0.276739 0.126802
H15   H     H_    0.562705 0.309202 0.207327 0.110095
H16   H     H_    0.838440 0.160725 0.159858 0.098273
H17   H     H_    0.810030 0.190512 0.336224 0.110008
H18   H     H_    0.783320 0.239862 0.403379 0.132678
H19   H     H_    0.555601 0.153763 0.159068 0.108376
H20   H     H_    0.846513 0.559153 0.913880 0.126700
H21   H     H_    0.533680 0.811456 0.915416 0.138930
H22   H     H_    0.519689 0.795061 0.672896 0.128464
H23   H     H_    0.542068 0.611297 0.723190 0.122861
H24   H     H_    0.825642 0.528409 0.846130 0.126610
H25   H     H_    0.785299 0.493082 0.671254 0.133119
H26   H     H_    0.978772 0.869231 0.888421 0.153318
H27   H     H_    0.776281 0.511014 0.220083 0.091053
H28   H     H_    0.115703 0.553975 0.648467 0.101607
H29   H     H_    0.297664 0.570725 0.714559 0.114492
H30   H     H_    0.270486 0.574685 0.783839 0.147784
H31   H     H_    0.013729 0.850228 0.820924 0.117790
H32   H     H_    0.974113 0.782273 0.695665 0.100547
H33   H     H_    0.946193 0.785640 0.764893 0.109459
H34   H     H_    0.204201 0.784165 0.662729 0.115447
H35   H     H_    0.273039 0.747634 0.598017 0.159022
H36   H     H_    0.569121 0.800951 0.175467 0.112208
H37   H     H_    0.185023 0.515733 0.583682 0.122402
H38   H     H_    0.592091 0.989562 0.895344 0.132102
H39   H     H_    0.761263 0.150029 0.901919 0.122881
H40   H     H_    0.727490 0.238486 0.677498 0.136170
H41   H     H_    0.490179 0.190881 0.704430 0.130827
H42   H     H_    0.489939 0.169420 0.774192 0.112914
H43   H     H_    0.566862 0.019022 0.825970 0.093774
H44   H     H_    0.820993 0.044416 0.708384 0.099597
H45   H     H_    0.821157 0.020231 0.777676 0.107773
H46   H     H_    0.659879 0.824519 0.300446 0.103304
H47   H     H_    0.707023 0.312375 0.614676 0.184910
H48   H     H_    0.670400 0.832541 0.231182 0.112568
H49   H     H_    0.543569 0.790131 0.337073 0.114506
O1    O     O_R   0.324990 0.503440 0.453910 -0.450525
O2    O     O_R   0.639980 0.519500 0.542640 -0.456627
O3    O     O_R   0.500750 0.673190 0.545480 -0.465491
O4    O     O_R   0.336260 0.640450 0.538210 -0.501555
O5    O     O_3   0.499990 0.499990 0.500010 -0.247594
O6    O     O_R   0.834210 0.019400 0.034570 -0.519264
O7    O     O_R   0.002210 0.824620 0.031030 -0.497370
O8    O     O_R   0.024400 0.669340 0.039790 -0.518744
O9    O     O_R   0.830490 0.694950 0.045870 -0.503727
O10   O     O_R   0.675430 0.831160 0.051290 -0.519062
O11   O     O_R   0.698870 0.998880 0.039560 -0.500499
O12   O     O_R   0.522030 0.339050 0.458320 -0.434737
O13   O     O_R   0.811290 0.006780 0.950620 -0.524973
O14   O     O_R   0.980960 0.812920 0.953200 -0.510979
O15   O     O_R   0.001480 0.656720 0.955830 -0.480100
O16   O     O_R   0.809240 0.683250 0.968050 -0.503236
O17   O     O_R   0.652500 0.818540 0.967340 -0.520726
O18   O     O_R   0.677620 0.987170 0.961730 -0.495168
O19   O     O_3   0.833240 0.833660 0.999890 -0.241032
O20   O     O_R   0.676180 0.324490 0.458320 -0.550883
O21   O     O_R   0.643570 0.521510 0.464260 -0.519896
O22   O     O_R   0.504630 0.675350 0.460920 -0.530428
O23   O     O_R   0.339850 0.642450 0.459830 -0.518682
O24   O     O_R   0.321120 0.501280 0.538470 -0.526188
O25   O     O_R   0.518440 0.337050 0.536710 -0.507228
O26   O     O_R   0.672300 0.322330 0.542880 -0.495998
C121  C     C_3   0.476979 0.818721 0.410511 -0.250233
C122  C     C_3   0.440783 0.922204 0.391231 -0.480039
H50   H     H_    0.506401 0.935390 0.387818 0.144305
H51   H     H_    0.403612 0.925681 0.362901 0.137728
H52   H     H_    0.382677 0.985104 0.409375 0.127782
H53   H     H_    0.412871 0.802077 0.409094 0.171684
H54   H     H_    0.493407 0.830431 0.440919 0.167262
C123  C     C_3   0.800818 0.452888 0.415954 -0.248799
C124  C     C_3   0.889982 0.370257 0.392429 -0.466490
H55   H     H_    0.869646 0.377078 0.361410 0.193732
H56   H     H_    0.962372 0.371111 0.397883 0.124281
H57   H     H_    0.906945 0.293052 0.401570 0.120315
H58   H     H_    0.829103 0.455118 0.445571 0.144103
H59   H     H_    0.747957 0.421853 0.416434 0.199244
C125  C     C_3   0.122169 0.883886 0.350979 -0.270398
C126  C     C_3   0.024090 0.944549 0.373961 -0.449528
H60   H     H_    0.972920 0.911856 0.369171 0.155642
H61   H     H_    0.042598 0.942604 0.405113 0.145389
H62   H     H_    0.982733 0.025961 0.364728 0.126111
H63   H     H_    0.176773 0.910821 0.359038 0.135037
H64   H     H_    0.100960 0.901370 0.320198 0.149813
C127  C     C_3   0.329297 0.748356 0.286186 -0.243171
C128  C     C_3   0.315051 0.855795 0.282689 -0.419412
H65   H     H_    0.322826 0.872689 0.252584 0.202189
H66   H     H_    0.238574 0.915166 0.293025 0.129933
H67   H     H_    0.375131 0.860664 0.300274 0.115337
H68   H     H_    0.336997 0.729712 0.317098 0.147128
H69   H     H_    0.403801 0.691364 0.273563 0.155349
O27   O     O_3   0.297641 0.762770 0.204532 -0.586260
C129  C     C_3   0.381906 0.670359 0.191258 -0.133815
H70   H     H_    0.359296 0.641449 0.165403 0.139927
H71   H     H_    0.416389 0.609955 0.213658 0.094898
H72   H     H_    0.442747 0.686479 0.182624 0.143979
C130  C     C_3   0.197795 0.531834 0.166373 -0.274480
C131  C     C_3   0.308837 0.481121 0.181256 -0.441638
H73   H     H_    0.360791 0.475009 0.158076 0.148065
H74   H     H_    0.315802 0.525030 0.205936 0.147863
H75   H     H_    0.333391 0.402535 0.191371 0.132110
H76   H     H_    0.146022 0.544261 0.190400 0.141165
H77   H     H_    0.191636 0.475841 0.146739 0.130166
O28   O     O_3   0.294227 0.457614 0.383771 -0.500862
C132  C     C_3   0.214318 0.434415 0.383502 -0.091322
H78   H     H_    0.179681 0.442114 0.354251 0.085415
H79   H     H_    0.153909 0.483319 0.404422 0.098816
H80   H     H_    0.246984 0.353347 0.392258 0.155236
C133  C     C_3   0.884233 0.557928 0.361887 -0.269883
C134  C     C_3   0.902117 0.647066 0.353509 -0.466681
H81   H     H_    0.878696 0.673801 0.323613 0.153134
H82   H     H_    0.859050 0.711991 0.373806 0.151899
H83   H     H_    0.985347 0.620959 0.356777 0.128213
H84   H     H_    0.928508 0.524617 0.388820 0.138299
H85   H     H_    0.916233 0.500130 0.338324 0.161495
C135  C     C_3   0.836320 0.989700 0.295506 -0.278496
C136  C     C_3   0.811146 0.903497 0.295342 -0.443234
H86   H     H_    0.730657 0.934421 0.304398 0.147573
H87   H     H_    0.821231 0.867012 0.266645 0.160282
H88   H     H_    0.863292 0.843726 0.316015 0.131627
H89   H     H_    0.917311 0.960752 0.287690 0.132683
H90   H     H_    0.833654 0.013706 0.325768 0.148514
C137  C     C_3   0.853063 0.975809 0.208837 -0.270944
C138  C     C_3   0.809099 0.917486 0.186321 -0.422876
H91   H     H_    0.746060 0.917975 0.202169 0.147192
H92   H     H_    0.779798 0.951334 0.157643 0.173138
H93   H     H_    0.870348 0.836595 0.181604 0.136265
H94   H     H_    0.897284 0.995748 0.189435 0.134703
H95   H     H_    0.912032 0.921027 0.228940 0.149300
O29   O     O_3   0.473637 0.248877 0.402255 -0.510648
C139  C     C_3   0.478210 0.154844 0.409248 -0.133120
H96   H     H_    0.409079 0.170801 0.425324 0.128047
H97   H     H_    0.546882 0.103329 0.427261 0.098358
H98   H     H_    0.477296 0.115656 0.381933 0.097356
O30   O     O_3   0.762845 0.483096 0.297706 -0.577389
C140  C     C_3   0.821171 0.391059 0.276806 -0.149201
H99   H     H_    0.893441 0.384303 0.266246 0.098158
H100  H     H_    0.774145 0.384131 0.253007 0.128726
H101  H     H_    0.843444 0.325445 0.296202 0.129649
O31   O     O_3   0.534049 0.606089 0.800492 -0.521850
C141  C     C_3   0.431732 0.654167 0.786119 -0.069308
H102  H     H_    0.424417 0.608153 0.762188 0.094981
H103  H     H_    0.403026 0.734752 0.777028 0.124388
H104  H     H_    0.381430 0.657265 0.809370 0.161053
C142  C     C_3   0.809409 0.684533 0.715981 -0.235575
C143  C     C_3   0.915265 0.587759 0.716216 -0.419502
H105  H     H_    0.947397 0.570308 0.745887 0.182203
H106  H     H_    0.910424 0.521218 0.704472 0.132535
H107  H     H_    0.968097 0.599246 0.698182 0.129088
H108  H     H_    0.783944 0.706332 0.685730 0.123159
H109  H     H_    0.815447 0.749474 0.728788 0.152829
O32   O     O_3   0.807556 0.686317 0.797752 -0.592971
C144  C     C_3   0.762886 0.790777 0.808533 -0.142116
H110  H     H_    0.713199 0.808243 0.833742 0.123110
H111  H     H_    0.718691 0.843698 0.784535 0.101692
H112  H     H_    0.825287 0.806226 0.817344 0.144287
O33   O     O_3   0.774562 0.457167 0.598196 -0.552532
C145  C     C_3   0.862617 0.460703 0.587929 -0.120946
H113  H     H_    0.914447 0.389030 0.572069 0.135973
H114  H     H_    0.905795 0.464792 0.613764 0.100906
H115  H     H_    0.842224 0.526312 0.568531 0.101604
O34   O     O_3   0.489810 0.789207 0.843562 -0.547930
C146  C     C_3   0.478693 0.883766 0.832614 -0.148245
H116  H     H_    0.535629 0.872326 0.810620 0.098121
H117  H     H_    0.484460 0.927551 0.857769 0.103683
H118  H     H_    0.401112 0.931000 0.819370 0.140761
O35   O     O_3   0.469338 0.798383 0.600010 -0.550220
C147  C     C_3   0.481943 0.884262 0.595845 -0.116948
H119  H     H_    0.556469 0.863130 0.582437 0.102870
H120  H     H_    0.474351 0.923803 0.623886 0.139721
H121  H     H_    0.419748 0.939794 0.576521 0.138053
O36   O     O_3   0.143005 0.521008 0.906262 -0.527102
C148  C     C_3   0.087810 0.468934 0.899399 -0.069420
H122  H     H_    0.131105 0.402924 0.879659 0.146861
H123  H     H_    0.008094 0.518822 0.887878 0.083586
H124  H     H_    0.081383 0.437463 0.926985 0.131042
O37   O     O_3   0.180006 0.497575 0.827534 -0.554875
C149  C     C_3   0.115270 0.474747 0.804322 -0.139019
H125  H     H_    0.146208 0.390618 0.804888 0.125744
H126  H     H_    0.116535 0.495182 0.774071 0.136971
H127  H     H_    0.034410 0.512409 0.814322 0.118631
O38   O     O_3   0.578410 0.051304 0.638180 -0.593642
C150  C     C_3   0.664796 0.951224 0.636584 -0.148872
H128  H     H_    0.693582 0.930983 0.606813 0.110504
H129  H     H_    0.641615 0.895706 0.645474 0.125630
H130  H     H_    0.727971 0.941518 0.656629 0.117055
C151  C     C_3   0.543244 0.136893 0.562449 -0.259941
C152  C     C_3   0.617920 0.076194 0.530450 -0.447088
H131  H     H_    0.643733 0.123681 0.515824 0.158718
H132  H     H_    0.686135 0.006758 0.542296 0.141448
H133  H     H_    0.579025 0.051507 0.508733 0.122965
H134  H     H_    0.512866 0.088770 0.573262 0.173261
H135  H     H_    0.475271 0.206206 0.550572 0.156417
O39   O     O_3   0.746646 0.189165 0.826391 -0.547775
C153  C     C_3   0.851069 0.152421 0.836251 -0.131250
H136  H     H_    0.896565 0.067036 0.838308 0.086536
H137  H     H_    0.857888 0.188798 0.863401 0.122551
H138  H     H_    0.885445 0.174862 0.813363 0.142156

loop_
_geom_bond_atom_site_label_1
_geom_bond_atom_site_label_2
_ccdc_geom_bond_type
C70   C137  S    
C136  H87   S    
Cr3   O23   S    
C144  H110  S    
C114  C115  A    
C64   H12   S    
C133  H84   S    
C122  H51   S    
C66   C97   S    
C143  H105  S    
C21   C59   S    
C146  H118  S    
C106  C107  A    
C108  C109  A    
C140  H99   S    
Cr1   O24   S    
O36   C148  S    
C127  C128  S    
C152  H131  S    
C22   O15   A    
C20   O9    A    
C83   O34   S    
C80   H20   S    
C59   C60   A    
C25   C118  S    
C102  C111  S    
Cr3   O3    S    
Cr4   O14   S    
C32   H49   S    
C134  H82   S    
Cr1   O5    S    
Cr6   O10   S    
C121  C122  S    
C15   H47   S    
C6    C11   A    
C72   C73   A    
C94   C97   A    
C10   H45   S    
C153  H136  S    
C99   C110  A    
C82   C91   S    
C149  H125  S    
C32   C34   A    
C75   C76   A    
Cr4   O7    S    
Cr1   O12   S    
C49   H5    S    
C152  H133  S    
C147  H119  S    
Cr5   O16   S    
C53   O28   S    
Cr6   O17   S    
C145  H113  S    
C87   C89   A    
O34   C146  S    
C153  H138  S    
C47   C127  S    
C112  H34   S    
C142  H108  S    
C143  H107  S    
C8    C17   S    
C4    C5    A    
C53   C58   A    
C6    C7    A    
C33   C38   S    
C137  H94   S    
Cr6   O18   S    
C135  H89   S    
C151  H135  S    
C129  H72   S    
C141  H103  S    
C69   C70   A    
C88   C99   A    
C3    C11   S    
C113  H35   S    
C150  H128  S    
Cr4   O19   S    
C30   H48   S    
C73   H18   S    
Cr2   O2    S    
C40   H3    S    
C44   O23   A    
C22   C98   S    
C52   H8    S    
C130  H76   S    
C110  H36   S    
C21   O11   A    
C85   C86   A    
C100  H26   S    
C123  H59   S    
C149  H127  S    
Cr2   O26   S    
C36   C37   A    
C1    O20   A    
C109  C111  A    
C79   C84   A    
C120  H43   S    
C115  C116  A    
C55   O26   A    
C92   C96   A    
C103  O37   S    
C131  H73   S    
C130  H77   S    
C145  H115  S    
C33   O21   A    
C104  O36   S    
C107  C108  A    
C9    C10   A    
C27   O30   S    
C132  H80   S    
Cr5   O9    S    
C94   C95   A    
C23   O17   A    
C69   C135  S    
C153  H137  S    
C1    O12   A    
C66   O2    A    
C6    H42   S    
C35   C38   A    
O39   C153  S    
Cr3   O4    S    
C39   C40   A    
Cr4   O13   S    
C16   C17   A    
C41   C130  S    
C126  H60   S    
C46   C51   A    
C29   C30   A    
C65   H15   S    
C83   C84   A    
C141  H102  S    
C150  H130  S    
C92   H25   S    
C123  C124  S    
C32   C37   A    
C43   C45   A    
Cr5   O15   S    
C18   C55   S    
C113  C117  A    
O35   C147  S    
C124  H56   S    
C121  H53   S    
C148  H123  S    
C3    C4    A    
C109  H33   S    
C93   C97   A    
C112  C116  A    
C52   C53   A    
C7    H41   S    
Cr3   O22   S    
C44   O1    A    
C119  H38   S    
C138  H91   S    
C68   C76   S    
C124  H57   S    
C131  H75   S    
C5    C118  A    
C143  H106  S    
C75   H13   S    
C28   C37   S    
C34   C121  S    
C100  C101  A    
C62   C71   S    
C140  H100  S    
C61   C62   A    
C107  C116  S    
C56   C125  S    
C114  C117  A    
C10   C11   A    
C63   C64   A    
C127  H69   S    
C45   H4    S    
C48   C57   S    
C49   C50   A    
C142  C143  S    
C36   C133  S    
O31   C141  S    
C26   H27   S    
C152  H132  S    
C63   H19   S    
C101  C102  A    
C15   C18   A    
C140  H101  S    
C41   C42   A    
C35   C36   A    
Cr2   O20   S    
C148  H122  S    
C128  H65   S    
C138  H93   S    
C126  H62   S    
Cr2   O5    S    
C26   C27   A    
C77   O4    A    
C28   C29   A    
C30   C31   A    
C132  H78   S    
C93   O33   S    
C149  H126  S    
O32   C144  S    
C125  H63   S    
C44   C58   S    
C68   C69   A    
C65   C67   A    
C12   C17   A    
C147  H120  S    
C130  C131  S    
C70   C71   A    
C145  H114  S    
C105  C111  A    
C136  H88   S    
C101  H31   S    
O37   C149  S    
C139  H96   S    
C1    C78   S    
C46   O27   S    
C9    H44   S    
C19   O7    A    
C146  H117  S    
C122  H52   S    
C4    O39   S    
C147  H121  S    
C67   C68   A    
Cr6   O11   S    
O33   C145  S    
C86   C87   A    
C80   C81   A    
C99   H1    S    
C60   C61   A    
Cr1   O25   S    
C62   C63   A    
C24   H6    S    
C55   O25   A    
C135  H90   S    
O28   C132  S    
C151  H134  S    
C129  H71   S    
C22   O14   A    
C24   C88   A    
C48   C49   A    
C98   C100  A    
C115  H28   S    
C126  H61   S    
C56   C57   A    
C128  H67   S    
C25   O18   A    
C134  H81   S    
C46   C47   A    
C2    C110  A    
C144  H111  S    
C146  H116  S    
C50   H7    S    
C119  C120  A    
C105  C106  A    
C123  H58   S    
Cr4   O6    S    
C90   C91   A    
C137  C138  S    
Cr5   O19   S    
C90   O32   S    
C20   C88   S    
C92   C93   A    
C131  H74   S    
C151  C152  S    
C52   C57   A    
O29   C139  S    
C82   C83   A    
C74   C78   A    
C139  H98   S    
C103  C104  A    
C85   O31   S    
C89   C90   A    
C15   C16   A    
C72   H17   S    
C122  H50   S    
Cr5   O8    S    
C14   C18   A    
C95   C96   A    
C72   C76   A    
C23   O16   A    
C81   C82   A    
C85   C91   A    
C142  H109  S    
C21   O6    A    
C66   O3    A    
C59   C64   A    
C135  C136  S    
C137  H95   S    
C77   C117  S    
C14   C151  S    
Cr1   O1    S    
C108  H32   S    
C81   H24   S    
C141  H104  S    
C2    C13   A    
Cr6   O19   S    
C118  C119  A    
C20   O10   A    
C13   H2    S    
C74   O29   S    
C16   H40   S    
C8    C9    A    
C150  H129  S    
C94   O35   S    
C73   C78   A    
C5    H39   S    
C134  H83   S    
C60   H11   S    
C26   C31   A    
C121  H54   S    
C102  C103  A    
C112  C113  A    
C50   C51   A    
C54   C56   A    
C89   C142  S    
C74   C75   A    
C144  H112  S    
C125  C126  S    
C86   H23   S    
C19   O8    A    
C127  H68   S    
C138  H92   S    
C132  H79   S    
C65   C71   A    
O27   C129  S    
C13   C24   A    
C2    C31   S    
C25   O13   A    
C47   C48   A    
C33   O22   A    
C54   H10   S    
C87   C96   S    
O30   C140  S    
C43   H9    S    
C67   H14   S    
C77   O24   A    
C19   C39   S    
C133  H85   S    
C40   C41   A    
C12   C14   A    
C106  H29   S    
C12   O38   S    
C136  H86   S    
C27   C28   A    
C54   C58   A    
C34   C38   A    
C95   H22   S    
Cr2   O21   S    
Cr3   O5    S    
C128  H66   S    
C133  C134  S    
C84   H21   S    
C42   C51   S    
C39   C45   A    
O38   C150  S    
C139  H97   S    
C35   C123  S    
C114  H37   S    
C98   C104  A    
C29   H46   S    
C125  H64   S    
C7    C8    A    
C3    C120  A    
C79   C80   A    
C61   H16   S    
C105  H30   S    
C124  H55   S    
C42   C43   A    
C148  H124  S    
C129  H70   S    
C23   C79   S    
