data_mof_unit_22445.cif
_audit_creation_date              2013-03-05T16:17:54-0500
_audit_creation_method            fapswitch 2.2
_symmetry_space_group_name_H-M    P1
_symmetry_Int_Tables_number       1
_space_group_crystal_system       triclinic
_cell_length_a                    8.428518
_cell_length_b                    22.775533
_cell_length_c                    26.934689
_cell_angle_alpha                 95.751096
_cell_angle_beta                  91.693125
_cell_angle_gamma                 90.357166
_cell_volume                      5141.99946261

loop_
_atom_site_label
_atom_site_type_symbol
_atom_site_description
_atom_site_fract_x
_atom_site_fract_y
_atom_site_fract_z
_atom_type_partial_charge
P1    P     P_3+3 0.092730 0.547450 0.611370 0.540348
O1    O     O_2   0.919820 0.530450 0.618560 -0.337053
O2    O     O_3   0.151800 0.530410 0.558380 -0.391030
O3    O     O_3   0.654050 0.426350 0.586890 -0.405748
O4    O     O_2   0.809084 0.450690 0.671682 -0.375547
O5    O     O_3   0.115531 0.622646 0.634274 -0.569608
O6    O     O_3   0.619410 0.360075 0.668486 -0.464081
H1    H     H_    0.777590 0.328684 0.615398 0.114562
C1    C     C_3   0.650419 0.256717 0.642453 -0.808851
H2    H     H_    0.693765 0.225732 0.611432 0.232674
H3    H     H_    0.725159 0.251991 0.676330 0.248559
P2    P     P_3+3 0.606840 0.368620 0.459370 0.527815
P3    P     P_3+3 0.062654 0.319402 0.559381 0.487639
O7    O     O_2   0.782760 0.360070 0.473730 -0.341369
O8    O     O_3   0.056430 0.397060 0.562000 -0.387846
O9    O     O_2   0.915811 0.293801 0.528727 -0.400120
O10   O     O_3   0.608861 0.368083 0.393918 -0.607967
O11   O     O_3   0.038505 0.294598 0.618851 -0.595924
C2    C     C_3   0.083495 0.338631 0.657467 0.769041
H4    H     H_    0.039018 0.382710 0.649977 0.050769
C3    C     C_3   0.011083 0.324786 0.706543 -0.893272
H5    H     H_    0.881719 0.331512 0.705509 0.247179
H6    H     H_    0.036205 0.278558 0.713853 0.269027
C4    C     C_3   0.216968 0.346212 0.363586 0.748793
H7    H     H_    0.323217 0.362510 0.385846 0.060205
C5    C     C_3   0.238675 0.355464 0.308255 -0.892725
H8    H     H_    0.277773 0.401055 0.303902 0.216504
H9    H     H_    0.332321 0.325940 0.292127 0.253184
H10   H     H_    0.125954 0.346093 0.286577 0.299290
Ba1   Ba    Ba6+2 0.848110 0.472730 0.522970 1.665515
C6    C     C_3   0.060632 0.663966 0.602915 0.725937
H11   H     H_    0.042660 0.643612 0.564332 -0.127672
C7    C     C_3   0.186446 0.713316 0.603655 -0.150441
H12   H     H_    0.158326 0.742864 0.574339 0.112229
H13   H     H_    0.304224 0.694504 0.596850 0.161580
C8    C     C_3   0.696398 0.320937 0.370592 0.501996
H14   H     H_    0.808438 0.312754 0.391374 0.133923
C9    C     C_3   0.738428 0.337471 0.318568 -0.126554
H15   H     H_    0.627123 0.347024 0.297830 0.126147
H16   H     H_    0.811428 0.378381 0.322688 0.087903
P4    P     P_3+3 0.096970 0.452510 0.388620 0.532331
O12   O     O_2   0.269870 0.469530 0.381410 -0.386491
O13   O     O_3   0.037890 0.469550 0.441610 -0.286943
O14   O     O_3   0.535640 0.573600 0.413100 -0.328972
O15   O     O_3   0.081676 0.375039 0.382884 -0.605772
P5    P     P_3+3 0.126083 0.680743 0.444174 0.473466
O16   O     O_3   0.647280 0.568810 0.525990 -0.362372
O17   O     O_3   0.133260 0.602900 0.438000 -0.327511
O18   O     O_2   0.295727 0.702544 0.460373 -0.411165
O19   O     O_3   0.106446 0.703965 0.384297 -0.524283
Ba2   Ba    Ba6+2 0.341700 0.527220 0.477020 1.653944
P6    P     P_3+3 0.641645 0.431974 0.651327 0.534001
C10   C     C_3   0.658096 0.319404 0.627756 0.492724
H17   H     H_    0.575703 0.321887 0.595224 0.099131
H18   H     H_    0.526076 0.244934 0.649935 0.303229
O20   O     O_3   0.542410 0.431140 0.474010 -0.332877
C11   C     C_3   0.531023 0.611120 0.629222 0.370745
H19   H     H_    0.414163 0.597171 0.611910 0.072493
H20   H     H_    0.613989 0.573339 0.625709 0.100939
C12   C     C_3   0.508033 0.630638 0.684374 -0.746910
H21   H     H_    0.459235 0.675883 0.689084 0.296659
H22   H     H_    0.423453 0.600941 0.700482 0.192946
H23   H     H_    0.622891 0.630131 0.705522 0.279650
P7    P     P_3+3 0.588837 0.641950 0.541989 0.489521
O21   O     O_2   0.406930 0.639920 0.526240 -0.401956
O22   O     O_3   0.594179 0.658572 0.606749 -0.498200
H24   H     H_    0.060194 0.355355 0.738024 0.269360
C13   C     C_3   0.984358 0.670966 0.357862 0.214230
H25   H     H_    0.015437 0.623449 0.352834 0.132470
H26   H     H_    0.870724 0.676844 0.377720 0.060819
C14   C     C_3   0.961212 0.692266 0.306219 -0.079192
H27   H     H_    0.859545 0.668197 0.286212 0.157539
H28   H     H_    0.932891 0.740095 0.310341 0.145748
P8    P     P_3+3 0.538737 0.560707 0.347476 0.530022
C15   C     C_3   0.501185 0.673173 0.353586 0.471742
H29   H     H_    0.542897 0.678097 0.393353 0.087178
O23   O     O_2   0.366617 0.547684 0.327475 -0.377947
O24   O     O_3   0.586105 0.628668 0.326097 -0.552165
H30   H     H_    0.371809 0.663333 0.350909 0.175610
H31   H     H_    0.453820 0.766231 0.352104 0.255176
C16   C     C_3   0.528841 0.731786 0.332635 -0.861483
H32   H     H_    0.497806 0.727825 0.292085 0.296708
H33   H     H_    0.655118 0.745410 0.338455 0.238041
C17   C     C_R   0.988737 0.447287 0.179434 0.538084
O25   O     O_2   0.008695 0.403491 0.201547 -0.555912
N1    N     N_R   0.923014 0.497331 0.203914 -0.167610
C18   C     C_R   0.899546 0.546920 0.178791 0.588675
C19   C     C_2   0.730097 0.505863 0.270978 -0.246870
C20   C     C_3   0.687044 0.502929 0.325362 0.131949
C21   C     C_1   0.971130 0.486561 0.342464 0.157666
C22   C     C_2   0.008472 0.488196 0.295115 -0.253340
C23   C     C_2   0.882288 0.497884 0.256321 0.179087
C24   C     C_R   0.009817 0.496420 0.103086 -0.064824
C25   C     C_R   0.031583 0.446055 0.128854 -0.072726
C26   C     C_R   0.096433 0.395452 0.103616 -0.053810
C27   C     C_R   0.943816 0.547248 0.128417 -0.078028
C28   C     C_2   0.835697 0.507977 0.358977 0.042058
H34   H     H_    0.130889 0.484132 0.284212 0.187032
H35   H     H_    0.116370 0.356188 0.122489 0.184160
C29   C     C_2   0.338132 0.482968 0.641304 -0.409232
C30   C     C_R   0.151756 0.442334 0.974718 0.039647
C31   C     C_R   0.087749 0.548005 0.976768 0.038045
C32   C     C_R   0.140977 0.494864 0.950415 0.092088
C33   C     C_R   0.198515 0.390072 0.946096 -0.189721
C34   C     C_R   0.236718 0.389730 0.896055 -0.065948
C35   C     C_R   0.230882 0.441444 0.871987 -0.078502
C36   C     C_R   0.183820 0.494242 0.899182 -0.055370
C37   C     C_R   0.180203 0.546461 0.875196 -0.085278
C38   C     C_R   0.223235 0.545209 0.824610 0.623422
N2    N     N_R   0.262441 0.492557 0.797568 -0.158758
C39   C     C_R   0.269381 0.441194 0.821080 0.565598
C40   C     C_2   0.443920 0.478624 0.728633 -0.113005
C41   C     C_3   0.485613 0.484956 0.675212 0.162153
C42   C     C_1   0.205878 0.507868 0.658169 0.115592
C43   C     C_2   0.170108 0.507361 0.706765 0.247703
C44   C     C_2   0.295968 0.491269 0.744453 -0.012229
O26   O     O_2   0.308297 0.395099 0.797634 -0.543474
C45   C     C_R   0.114612 0.443555 0.026368 0.038236
C46   C     C_R   0.054068 0.495942 0.051992 0.092320
C47   C     C_R   0.037333 0.547850 0.027092 0.039051
C48   C     C_R   0.136686 0.394091 0.053686 -0.196340
H36   H     H_    0.537297 0.469334 0.755302 0.176089
H37   H     H_    0.270920 0.348268 0.876114 0.175569
H38   H     H_    0.203837 0.347941 0.960929 0.134944
H39   H     H_    0.187998 0.353539 0.037863 0.137123
O27   O     O_2   0.841646 0.591050 0.200406 -0.565841
C49   C     C_R   0.923295 0.597422 0.102867 -0.046032
H40   H     H_    0.636126 0.511175 0.243388 0.171139
H41   H     H_    0.871562 0.637059 0.121065 0.175962
C50   C     C_R   0.088106 0.599771 0.951688 -0.191114
C51   C     C_R   0.133725 0.598947 0.902272 -0.048885
O28   O     O_2   0.225729 0.591063 0.804625 -0.542578
C52   C     C_R   0.969017 0.597858 0.053556 -0.191059
H42   H     H_    0.056445 0.642332 0.969517 0.137225
H43   H     H_    0.131316 0.640006 0.885136 0.181345
H44   H     H_    0.945936 0.638107 0.036897 0.135752
H45   H     H_    0.347794 0.467473 0.602057 0.194198
H46   H     H_    0.572055 0.049111 0.372905 0.192646
H47   H     H_    0.661085 0.947582 0.368487 0.180906
C53   C     C_R   0.344029 0.331587 0.509603 -0.347334
C54   C     C_R   0.637713 0.943412 0.538679 -0.081738
C55   C     C_R   0.688051 0.884216 0.535493 0.543012
O29   O     O_2   0.703309 0.859428 0.573543 -0.511835
N3    N     N_R   0.721143 0.854127 0.489733 -0.175871
C56   C     C_R   0.705803 0.881801 0.446403 0.526161
O30   O     O_2   0.734846 0.854688 0.406270 -0.586715
C57   C     C_R   0.655085 0.941052 0.448266 -0.058309
C58   C     C_R   0.621097 0.971932 0.494766 -0.009731
C59   C     C_R   0.603254 0.974702 0.584785 -0.087483
C60   C     C_R   0.553269 0.033251 0.587327 -0.103545
C61   C     C_R   0.536036 0.062385 0.543841 -0.045243
C62   C     C_R   0.569889 0.031546 0.497382 -0.011915
C63   C     C_R   0.636377 0.970061 0.404765 -0.100130
C64   C     C_R   0.584962 0.028501 0.407323 -0.068055
C65   C     C_R   0.551534 0.059936 0.453498 -0.095202
C66   C     C_R   0.499900 0.119063 0.456740 0.574506
N4    N     N_R   0.472295 0.149970 0.502659 -0.174305
C67   C     C_R   0.486623 0.121736 0.545834 0.508730
C68   C     C_2   0.919753 0.776515 0.478097 -0.161157
C69   C     C_3   0.976892 0.715589 0.488549 0.150295
C70   C     C_1   0.701743 0.694024 0.509014 0.313182
C71   C     C_2   0.652698 0.747726 0.502436 -0.176586
C72   C     C_2   0.767930 0.792711 0.487738 0.151758
C73   C     C_R   0.285373 0.231468 0.526935 -0.161737
C74   C     C_R   0.244069 0.291250 0.529288 0.333010
C75   C     C_R   0.485621 0.313372 0.487659 0.181046
C76   C     C_R   0.529484 0.253733 0.486367 -0.187066
C77   C     C_R   0.428896 0.211994 0.505439 0.148487
O31   O     O_2   0.477167 0.142778 0.418527 -0.491570
O32   O     O_2   0.457145 0.148358 0.586094 -0.597010
C78   C     C_2   0.841210 0.673899 0.494542 -0.393819
H48   H     H_    0.528300 0.055694 0.623599 0.179897
H49   H     H_    0.206586 0.200287 0.541783 0.159768
H50   H     H_    0.614850 0.953976 0.619179 0.186989
H51   H     H_    0.532609 0.760844 0.511523 0.154184
H52   H     H_    0.006016 0.809285 0.469431 0.147915
H53   H     H_    0.640911 0.239624 0.470358 0.175167
H54   H     H_    0.310413 0.377477 0.510953 0.162317
H55   H     H_    0.875427 0.629928 0.501768 0.184983
N5    N     N_R   0.914106 0.690142 0.622397 0.241215
O33   O     O_R   0.856159 0.736356 0.603859 -0.376711
O34   O     O_R   0.864706 0.677346 0.665371 -0.273689
Br1   Br    Br    0.204648 0.761006 0.667716 -0.322455
Br2   Br    Br    0.567639 0.249617 0.362372 -0.387097
N6    N     N_R   0.824998 0.291500 0.288877 0.272023
O35   O     O_R   0.852174 0.297980 0.242461 -0.312964
O36   O     O_R   0.877652 0.244764 0.307853 -0.278502
N7    N     N_R   0.103528 0.682151 0.277104 0.283309
O37   O     O_R   0.151338 0.628660 0.264526 -0.369527
O38   O     O_R   0.178093 0.726413 0.261125 -0.354578
N8    N     N_R   0.255460 0.341150 0.662646 0.221500
O39   O     O_R   0.331396 0.321441 0.700291 -0.330479
O40   O     O_R   0.334141 0.359633 0.626689 -0.502577
N9    N     N_R   0.018362 0.526634 0.725020 0.268293
O41   O     O_R   0.949455 0.497959 0.757987 -0.407011
O42   O     O_R   0.966885 0.578848 0.717704 -0.289774
Br3   Br    Br    0.840169 0.556258 0.420453 -0.445465
N10   N     N_R   0.198365 0.283273 0.369690 0.251692
O43   O     O_R   0.172420 0.267184 0.413723 -0.391983
O44   O     O_R   0.200351 0.243002 0.331804 -0.266441

loop_
_geom_bond_atom_site_label_1
_geom_bond_atom_site_label_2
_geom_bond_distance
_ccdc_geom_bond_type
N9    O42   1.299863 A    
Ba1   Ba2   4.574626 S    
C24   C25   1.409185 A    
C47   C52   1.416538 A    
C31   C32   1.422450 A    
P4    O12   1.528543 D    
C57   C58   1.411566 A    
C40   C44   1.353083 D    
C14   N7    1.459346 S    
P7    C70   1.829777 S    
C49   H41   1.083598 S    
C42   C43   1.353002 D    
C11   H19   1.108052 S    
C54   C59   1.407434 A    
C30   C45   1.432553 A    
P6    C41   1.874498 S    
C48   H39   1.076421 S    
P5    O18   1.546686 D    
N9    O41   1.301634 A    
C5    H8    1.105875 S    
N4    C67   1.386715 Am   
P3    O11   1.767929 S    
O3    P6    1.733770 S    
C12   H23   1.109335 S    
C4    O15   1.406241 S    
P8    C20   1.885832 S    
C12   H22   1.106795 S    
C66   N4    1.387049 Am   
C2    C3    1.532323 S    
C17   N1    1.385478 Am   
O6    P6    1.755912 S    
Ba2   O20   2.770489 S    
C51   H43   1.083566 S    
P2    C75   1.852005 S    
C9    H15   1.111470 S    
C26   H35   1.083636 S    
C11   H20   1.110626 S    
C58   C62   1.422901 A    
C35   C36   1.409427 A    
H47   C63   1.083233 S    
C43   C44   1.518500 S    
C66   O31   1.220172 D    
C37   C38   1.417872 A    
C34   H37   1.083604 S    
N7    O38   1.300577 A    
P1    O1    1.528408 D    
Ba2   O21   2.811701 S    
N2    C39   1.385655 Am   
C33   C34   1.394276 A    
C37   C51   1.400818 A    
C54   C58   1.409205 A    
C16   H33   1.109019 S    
C45   C46   1.422572 A    
C54   C55   1.411097 A    
O17   Ba2   2.730155 S    
C60   H48   1.083265 S    
N6    O35   1.300287 A    
C19   C23   1.361162 D    
C13   H25   1.111050 S    
P8    O23   1.548935 D    
P2    O10   1.762324 S    
C7    Br1   1.946069 S    
C52   H44   1.076559 S    
C53   H54   1.081973 S    
C61   C62   1.410004 A    
C6    C7    1.538700 S    
O4    P6    1.540746 D    
N10   O43   1.300068 A    
C1    H18   1.109416 S    
O10   C8    1.412150 S    
C1    H2    1.110270 S    
C11   O22   1.400266 S    
C21   C28   1.316137 D    
O12   Ba2   2.818604 S    
C26   C48   1.394063 A    
O5    C6    1.398137 S    
C4    N10   1.467115 S    
C30   C32   1.422304 A    
C3    H5    1.101921 S    
C3    H24   1.110126 S    
P4    O13   1.539177 S    
C78   H55   1.078578 S    
C50   H42   1.076569 S    
O7    Ba1   2.811290 S    
N4    C77   1.456654 S    
O19   C13   1.403762 S    
C40   C41   1.511775 S    
C56   C57   1.414637 A    
N5    O34   1.301028 A    
C16   H32   1.110205 S    
C35   C39   1.417813 A    
C53   C75   1.394415 A    
P5    O17   1.765617 S    
N8    O39   1.302181 A    
C61   C67   1.413291 A    
C28   Br3   1.892943 S    
Ba1   O16   2.771106 S    
C73   C77   1.411348 A    
C29   C42   1.325407 D    
C17   O25   1.221991 D    
C22   C23   1.501698 S    
C14   H28   1.111988 S    
O2    Ba2   2.747033 S    
N1    C18   1.385866 Am   
O11   C2    1.412198 S    
C11   C12   1.525658 S    
O16   Ba2   2.964639 S    
C71   H51   1.085081 S    
C10   H17   1.108018 S    
Ba1   O20   2.965397 S    
P1    O5    1.768549 S    
C27   C49   1.400854 A    
C20   C28   1.520891 S    
N7    O37   1.301088 A    
P1    O2    1.539152 S    
C45   C48   1.416276 A    
P7    O22   1.746610 S    
O2    Ba1   2.958037 S    
C15   H29   1.112056 S    
N8    O40   1.292739 A    
C40   H36   1.085963 S    
P3    C74   1.840495 S    
C68   C69   1.521620 S    
C62   C65   1.408108 A    
C36   C37   1.409267 A    
P5    C69   1.884347 S    
C18   C27   1.418500 A    
C38   O28   1.222254 D    
C7    H12   1.109059 S    
C73   H49   1.082594 S    
C17   C25   1.417304 A    
C4    H7    1.103964 S    
O14   P8    1.763510 S    
C1    H3    1.107964 S    
C64   C65   1.408394 A    
P2    O20   1.545226 S    
C8    Br2   1.938304 S    
O14   Ba2   2.694665 S    
C13   H26   1.113032 S    
C76   H53   1.082192 S    
C43   N9    1.439146 S    
P2    O7    1.539758 D    
C30   C33   1.416475 A    
C68   H52   1.085502 S    
P3    O8    1.764187 S    
N3    C72   1.451923 S    
C75   C76   1.407277 A    
C68   C72   1.359154 D    
Ba1   O13   2.746432 S    
C1    C10   1.520831 S    
P1    C42   1.865085 S    
O6    C10   1.410374 S    
C59   H50   1.083259 S    
N2    C44   1.463921 S    
C56   O30   1.222099 D    
C76   C77   1.414160 A    
C31   C47   1.432787 A    
N5    O33   1.301155 A    
O8    Ba1   2.729476 S    
C71   C72   1.497122 S    
C53   C74   1.396193 A    
C73   C74   1.403196 A    
P2    Ba1   3.407669 S    
C55   O29   1.222593 D    
C6    H11   1.100499 S    
C67   O32   1.221188 D    
C29   C41   1.518311 S    
C49   C52   1.394820 A    
C4    C5    1.541916 S    
H31   C16   1.110667 S    
H1    C10   1.095945 S    
C32   C36   1.435419 A    
C46   C47   1.422247 A    
O16   P7    1.755606 S    
C33   H38   1.076402 S    
C15   C16   1.519783 S    
C24   C27   1.409701 A    
C9    N6    1.464363 S    
C34   C35   1.400618 A    
P5    O19   1.750528 S    
C5    H9    1.110034 S    
O1    Ba1   2.818208 S    
C6    N5    1.463143 S    
N3    C56   1.384029 Am   
P7    O21   1.577836 D    
C2    H4    1.109017 S    
C3    H6    1.110865 S    
C50   C51   1.394659 A    
C63   C64   1.398092 A    
C14   H27   1.110316 S    
C19   H40   1.085653 S    
N1    C23   1.461380 S    
C59   C60   1.396699 A    
C9    H16   1.107760 S    
O13   Ba2   2.958807 S    
C21   C22   1.326654 D    
C70   C71   1.320470 D    
C13   C14   1.525997 S    
C8    C9    1.537605 S    
P1    Ba1   3.416200 S    
C7    H13   1.096775 S    
C69   C78   1.504508 S    
P4    C21   1.843237 S    
C55   N3    1.385632 Am   
C22   H34   1.083084 S    
C25   C26   1.400693 A    
C57   C63   1.407034 A    
C15   O24   1.406374 S    
N6    O36   1.301068 A    
C29   H45   1.085944 S    
C39   O26   1.221563 D    
C70   C78   1.319777 D    
C19   C20   1.527268 S    
C5    H10   1.108530 S    
C8    H14   1.109824 S    
P8    O24   1.752516 S    
P3    O9    1.545205 D    
C65   C66   1.412949 A    
P4    O15   1.759281 S    
C60   C61   1.407178 A    
C12   H21   1.108733 S    
N10   O44   1.302484 A    
C24   C46   1.435452 A    
H46   C64   1.083259 S    
C38   N2    1.386323 Am   
C15   H30   1.110664 S    
P4    Ba2   3.416636 S    
C18   O27   1.221857 D    
O3    Ba1   2.695299 S    
C2    N8    1.452224 S    
C31   C50   1.416355 A    
