data_mof_unit_63599.cif
_audit_creation_date              2012-12-10T16:35:58-0500
_audit_creation_method            fapswitch 2.2
_symmetry_space_group_name_H-M    P1
_symmetry_Int_Tables_number       1
_space_group_crystal_system       triclinic
_cell_length_a                    14.331503
_cell_length_b                    16.420927
_cell_length_c                    13.048119
_cell_angle_alpha                 89.943631
_cell_angle_beta                  107.26847
_cell_angle_gamma                 90.086935
_cell_volume                      2932.28174031

loop_
_atom_site_label
_atom_site_type_symbol
_atom_type_description
_atom_site_fract_x
_atom_site_fract_y
_atom_site_fract_z
_atom_type_partial_charge
C1    C     C_R   0.315073 0.844584 0.475143 0.514359
C2    C     C_R   0.685301 0.843662 0.522803 0.561824
C3    C     C_R   0.185298 0.656352 0.522782 0.561861
C4    C     C_R   0.185302 0.343662 0.522803 0.561824
C5    C     C_R   0.546624 0.997204 0.786087 0.576911
C6    C     C_R   0.046624 0.497204 0.786087 0.576911
C7    C     C_R   0.455097 0.000148 0.214382 0.531803
C8    C     C_R   0.955096 0.500148 0.214382 0.531803
C9    C     C_2   0.444459 0.001009 0.099251 0.271567
C10   C     C_2   0.944458 0.501009 0.099251 0.271568
C11   C     C_2   0.507639 0.959204 0.061024 -0.032702
C12   C     C_R   0.315142 0.155523 0.475224 0.513242
C13   C     C_2   0.007639 0.459204 0.061024 -0.032702
C14   C     C_2   0.563942 0.991081 0.903420 0.249722
C15   C     C_2   0.063942 0.491081 0.903420 0.249722
C16   C     C_2   0.497261 0.956201 0.945313 0.246759
C17   C     C_2   0.997261 0.456201 0.945313 0.246759
C18   C     C_2   0.755774 0.222161 0.534485 0.230034
C19   C     C_2   0.755733 0.777871 0.534591 0.226450
C20   C     C_2   0.255774 0.722161 0.534485 0.230034
C21   C     C_2   0.255733 0.277871 0.534590 0.226450
C22   C     C_2   0.673302 0.279082 0.349811 0.260237
C23   C     C_R   0.815073 0.344584 0.475143 0.514359
C24   C     C_2   0.673750 0.721362 0.349652 0.260074
C25   C     C_2   0.173301 0.779083 0.349812 0.260236
C26   C     C_2   0.173750 0.221362 0.349652 0.260075
C27   C     C_R   0.815142 0.655523 0.475224 0.513242
C28   C     C_2   0.243145 0.781674 0.459852 0.002254
C29   C     C_2   0.243296 0.218497 0.459851 0.005969
C30   C     C_2   0.743145 0.281674 0.459852 0.002253
C31   C     C_2   0.743296 0.718497 0.459851 0.005969
C32   C     C_R   0.685297 0.156353 0.522783 0.561862
Cl1   Cl    Cl    0.394630 0.901098 0.866637 -0.392039
Cl2   Cl    Cl    0.855053 0.775673 0.654128 -0.457796
Cl3   Cl    Cl    0.894630 0.401098 0.866638 -0.392037
Cl4   Cl    Cl    0.671967 0.035002 0.987924 -0.462488
Cl5   Cl    Cl    0.171967 0.535002 0.987924 -0.462489
Cl6   Cl    Cl    0.354565 0.065129 0.016077 -0.408091
Cl7   Cl    Cl    0.854564 0.565129 0.016077 -0.408090
Cl8   Cl    Cl    0.355409 0.724190 0.653766 -0.436249
Cl9   Cl    Cl    0.355053 0.275673 0.654127 -0.457796
Cl10  Cl    Cl    0.855408 0.224191 0.653768 -0.436248
H1    H     H_    0.567819 0.926167 0.115636 0.152016
H2    H     H_    0.067820 0.426168 0.115636 0.152016
H3    H     H_    0.636764 0.334608 0.314163 0.121981
H4    H     H_    0.637379 0.665853 0.313567 0.124253
H5    H     H_    0.136762 0.834609 0.314167 0.121981
H6    H     H_    0.137379 0.165853 0.313567 0.124253
O1    O     O_3   0.500010 1.000000 0.500000 -0.506722
O2    O     O_R   0.103010 0.337110 0.452470 -0.526530
O3    O     O_R   0.316670 0.095240 0.537470 -0.505800
O4    O     O_R   0.316670 0.904760 0.537470 -0.496825
O5    O     O_R   0.816670 0.595240 0.537470 -0.505799
O6    O     O_R   0.816670 0.404760 0.537470 -0.496825
O7    O     O_R   0.703490 0.904800 0.585920 -0.485420
O8    O     O_R   0.703490 0.095200 0.585920 -0.481567
O9    O     O_R   0.203490 0.404800 0.585920 -0.485420
O10   O     O_R   0.203490 0.595200 0.585920 -0.481567
O11   O     O_R   0.458050 1.000000 0.725250 -0.479577
O12   O     O_3   0.000010 0.500000 0.500000 -0.506722
O13   O     O_R   0.958050 0.500000 0.725250 -0.479577
O14   O     O_R   0.461630 0.932310 0.264690 -0.532099
O15   O     O_R   0.461630 0.067690 0.264690 -0.488229
O16   O     O_R   0.961630 0.432310 0.264690 -0.532098
O17   O     O_R   0.961630 0.567690 0.264690 -0.488229
O18   O     O_R   0.618750 0.000000 0.745380 -0.488599
O19   O     O_R   0.118750 0.500000 0.745380 -0.488599
O20   O     O_2   0.662442 0.217351 0.295336 -0.420031
O21   O     O_2   0.662959 0.783339 0.295545 -0.448466
O22   O     O_2   0.162439 0.717353 0.295336 -0.420031
O23   O     O_R   0.376880 0.837120 0.424150 -0.520346
O24   O     O_2   0.162958 0.283338 0.295545 -0.448466
O25   O     O_R   0.376880 0.162880 0.424150 -0.518926
O26   O     O_R   0.876880 0.337120 0.424150 -0.520347
O27   O     O_R   0.876880 0.662880 0.424150 -0.518926
O28   O     O_R   0.603010 0.162890 0.452470 -0.527092
O29   O     O_R   0.603010 0.837110 0.452470 -0.526530
O30   O     O_R   0.103010 0.662890 0.452470 -0.527092
Zn1   Zn    Zn3+2 0.485630 0.096680 0.411850 1.036617
Zn2   Zn    Zn3+2 0.485630 0.903320 0.411850 1.019078
Zn3   Zn    Zn3+2 0.985630 0.596680 0.411850 1.036617
Zn4   Zn    Zn3+2 0.985630 0.403320 0.411850 1.019078
Zn5   Zn    Zn3+2 0.399590 0.000000 0.573760 1.063192
Zn6   Zn    Zn3+2 0.899590 0.500000 0.573760 1.063192
Zn7   Zn    Zn3+2 0.629190 1.000000 0.602520 1.085387
Zn8   Zn    Zn3+2 0.129190 0.500000 0.602520 1.085387

loop_
_geom_bond_atom_site_label_1
_geom_bond_atom_site_label_2
_ccdc_geom_bond_type
C19   Cl2   S    
C12   C29   S    
C26   O24   D    
O28   Zn1   S    
C19   C31   D    
O18   Zn7   S    
O6    Zn6   S    
O15   Zn1   S    
C25   C28   S    
C1    O23   A    
O5    Zn6   S    
C6    O13   A    
O14   Zn2   S    
O11   Zn5   S    
C2    O7    A    
C18   Cl10  S    
C14   Cl4   S    
C20   Cl8   S    
O9    Zn8   S    
C15   C17   D    
C11   C16   S    
C15   Cl5   S    
C6    C15   S    
O12   Zn4   S    
C4    O9    A    
O16   Zn4   S    
C1    C28   S    
C11   H1    S    
C18   C30   D    
C25   H5    S    
C26   H6    S    
C8    O17   A    
C12   O25   A    
O26   Zn4   S    
C27   O27   A    
O10   Zn8   S    
O23   Zn2   S    
C24   O21   D    
C5    O11   A    
C27   C31   S    
C23   C30   S    
O1    Zn7   S    
O12   Zn8   S    
O27   Zn3   S    
C20   C28   D    
C21   C29   D    
C10   C13   D    
O1    Zn1   S    
C4    O2    A    
C10   Cl7   S    
O7    Zn7   S    
O4    Zn5   S    
C7    O14   A    
C16   Cl1   S    
O12   Zn3   S    
O17   Zn3   S    
C7    O15   A    
O25   Zn1   S    
C3    C20   S    
C9    C11   D    
C22   O20   D    
C5    C14   S    
C8    O16   A    
C21   Cl9   S    
C6    O19   A    
C14   C16   D    
C18   C32   S    
C23   O26   A    
O3    Zn5   S    
C12   O3    A    
O2    Zn4   S    
C23   O6    A    
O29   Zn2   S    
C7    C9    S    
O19   Zn8   S    
C22   C30   S    
C2    C19   S    
C5    O18   A    
O13   Zn6   S    
C32   O28   A    
C27   O5    A    
O1    Zn2   S    
C13   C17   S    
C24   H4    S    
O1    Zn5   S    
C24   C31   S    
C2    O29   A    
C4    C21   S    
O12   Zn6   S    
O30   Zn3   S    
O8    Zn7   S    
C9    Cl6   S    
C1    O4    A    
C3    O10   A    
C22   H3    S    
C26   C29   S    
C8    C10   S    
C25   O22   D    
C17   Cl3   S    
C3    O30   A    
C32   O8    A    
C13   H2    S    
