data_mof_unit_21602.cif
_audit_creation_date              2012-12-10T18:04:33-0500
_audit_creation_method            fapswitch 2.2
_symmetry_space_group_name_H-M    P1
_symmetry_Int_Tables_number       1
_space_group_crystal_system       triclinic
_cell_length_a                    19.427425
_cell_length_b                    17.592753
_cell_length_c                    12.591984
_cell_angle_alpha                 89.521778
_cell_angle_beta                  99.354446
_cell_angle_gamma                 89.169535
_cell_volume                      4245.7841672

loop_
_atom_site_label
_atom_site_type_symbol
_atom_type_description
_atom_site_fract_x
_atom_site_fract_y
_atom_site_fract_z
_atom_type_partial_charge
C1    C     C_R   0.410942 0.102781 0.443349 0.836117
C2    C     C_R   0.408025 0.900741 0.441896 0.857708
C3    C     C_R   0.910949 0.602790 0.443359 0.836125
C4    C     C_R   0.908038 0.400725 0.441902 0.857630
C5    C     C_R   0.712247 0.253906 0.520220 0.056851
C6    C     C_R   0.715076 0.749864 0.518097 0.064538
C7    C     C_R   0.212236 0.753925 0.520254 0.056834
C8    C     C_R   0.215093 0.249880 0.518103 0.064419
C9    C     C_R   0.696949 0.310013 0.593865 0.118860
C10   C     C_R   0.678900 0.681994 0.534936 0.095610
C11   C     C_R   0.197003 0.809976 0.594021 0.118816
C12   C     C_R   0.178991 0.182012 0.535227 0.095671
C13   C     C_R   0.227120 0.881314 0.591573 -0.217448
C14   C     C_R   0.204371 0.112361 0.503403 -0.207462
C15   C     C_R   0.727040 0.381361 0.591333 -0.217501
C16   C     C_R   0.704283 0.612370 0.503017 -0.207400
C17   C     C_R   0.275950 0.894329 0.525377 -0.208571
C18   C     C_R   0.265351 0.109262 0.460289 -0.216017
C19   C     C_R   0.775906 0.394341 0.525186 -0.208665
C20   C     C_R   0.765319 0.609292 0.460049 -0.215988
C21   C     C_R   0.682407 0.183149 0.523673 -0.305450
C22   C     C_R   0.689172 0.818694 0.550013 -0.290981
C23   C     C_R   0.182380 0.683174 0.523638 -0.305463
C24   C     C_R   0.189182 0.318739 0.549898 -0.290816
C25   C     C_R   0.614679 0.224966 0.658956 0.148976
C26   C     C_R   0.585647 0.757319 0.592326 0.130212
C27   C     C_R   0.114747 0.724903 0.659089 0.149144
C28   C     C_R   0.085799 0.257362 0.592740 0.129920
C29   C     C_R   0.354201 0.845302 0.405323 -0.173984
C30   C     C_R   0.367891 0.170134 0.414123 -0.149928
C31   C     C_R   0.854249 0.345247 0.405338 -0.173903
C32   C     C_R   0.867935 0.670176 0.414185 -0.149798
C33   C     C_R   0.639876 0.027561 0.131121 -0.263066
C34   C     C_R   0.139785 0.527996 0.131149 -0.263107
C35   C     C_R   0.378212 0.007641 0.757834 -0.005813
C36   C     C_R   0.878193 0.507364 0.757839 -0.005770
C37   C     C_R   0.350086 0.020303 0.850408 -0.302240
C38   C     C_R   0.850027 0.519895 0.850412 -0.302309
C39   C     C_R   0.587396 0.895742 0.555241 0.926297
C40   C     C_R   0.588454 0.103059 0.556156 0.890652
C41   C     C_R   0.087402 0.395749 0.555250 0.926557
C42   C     C_R   0.088455 0.603058 0.556159 0.890661
C43   C     C_R   0.394035 0.024809 0.949690 0.245695
C44   C     C_R   0.893955 0.524540 0.949696 0.245713
C45   C     C_R   0.467484 0.015020 0.953677 -0.056719
C46   C     C_R   0.967432 0.515065 0.953685 -0.056804
C47   C     C_R   0.493058 0.002897 0.855838 0.091317
C48   C     C_R   0.993052 0.503106 0.855837 0.091159
C49   C     C_R   0.517793 0.016762 0.048538 -0.025107
C50   C     C_R   0.017725 0.516921 0.048565 -0.025060
C51   C     C_R   0.589014 0.029277 0.039284 0.000124
C52   C     C_R   0.088903 0.529727 0.039336 0.000193
C53   C     C_R   0.608540 0.032178 0.936762 0.141875
C54   C     C_R   0.108407 0.532892 0.936820 0.141655
C55   C     C_R   0.564772 0.995664 0.855511 0.280115
C56   C     C_R   0.064800 0.496240 0.855516 0.280289
C57   C     C_R   0.501514 0.001993 0.150920 -0.043053
C58   C     C_R   0.001497 0.501973 0.150935 -0.043070
C59   C     C_R   0.620741 0.011080 0.229601 0.423199
C60   C     C_R   0.120712 0.511259 0.229593 0.423197
C61   C     C_R   0.650830 0.294335 0.667037 0.157505
C62   C     C_R   0.615612 0.685460 0.576889 0.159019
C63   C     C_R   0.150923 0.794254 0.667236 0.157506
C64   C     C_R   0.115780 0.185498 0.577392 0.159119
C65   C     C_R   0.630398 0.170228 0.584372 -0.129227
C66   C     C_R   0.623306 0.823350 0.577559 -0.073168
C67   C     C_R   0.130409 0.670217 0.584395 -0.129524
C68   C     C_R   0.123368 0.323394 0.577627 -0.073310
C69   C     C_R   0.364315 0.794734 0.323484 -0.254634
C70   C     C_R   0.399432 0.235069 0.380513 -0.261650
C71   C     C_R   0.864433 0.294621 0.323602 -0.254573
C72   C     C_R   0.899543 0.735137 0.380808 -0.261663
C73   C     C_R   0.319847 0.733931 0.299434 0.338045
C74   C     C_R   0.368315 0.306052 0.387561 0.337316
C75   C     C_R   0.820002 0.233780 0.299600 0.338080
C76   C     C_R   0.868467 0.806125 0.388015 0.337302
C77   C     C_R   0.268260 0.720155 0.361735 -0.220474
C78   C     C_R   0.307705 0.312556 0.433119 -0.215086
C79   C     C_R   0.768384 0.220030 0.361851 -0.220476
C80   C     C_R   0.807822 0.812600 0.433489 -0.215048
C81   C     C_R   0.258583 0.769302 0.447040 0.059448
C82   C     C_R   0.274880 0.247018 0.466832 0.061352
C83   C     C_R   0.758633 0.269241 0.447051 0.059416
C84   C     C_R   0.774921 0.747037 0.466952 0.061374
C85   C     C_R   0.296563 0.836895 0.459386 0.103270
C86   C     C_R   0.302563 0.175262 0.446691 0.101211
C87   C     C_R   0.796581 0.336859 0.459332 0.103256
C88   C     C_R   0.802580 0.675294 0.446671 0.101215
H1    H     H_    0.694779 0.032443 0.126691 0.206195
H2    H     H_    0.194670 0.533058 0.126696 0.206392
H3    H     H_    0.450098 0.988277 0.164788 0.184517
H4    H     H_    0.950112 0.488117 0.164802 0.184529
H5    H     H_    0.344258 0.008217 0.681119 0.144504
H6    H     H_    0.844240 0.507809 0.681128 0.144528
H7    H     H_    0.294409 0.030154 0.843917 0.157467
H8    H     H_    0.794319 0.529518 0.843921 0.157514
H9    H     H_    0.214061 0.927284 0.641807 0.171398
H10   H     H_    0.176987 0.059838 0.510206 0.188089
H11   H     H_    0.713930 0.427369 0.641466 0.171328
H12   H     H_    0.676855 0.559851 0.509619 0.188103
H13   H     H_    0.697981 0.136808 0.477239 0.209917
H14   H     H_    0.716067 0.871435 0.544596 0.172004
H15   H     H_    0.197919 0.636867 0.477115 0.209993
H16   H     H_    0.216029 0.371487 0.544266 0.172200
H17   H     H_    0.407507 0.801406 0.279733 0.194409
H18   H     H_    0.450201 0.231142 0.355636 0.183338
H19   H     H_    0.907652 0.301276 0.279902 0.194355
H20   H     H_    0.950336 0.731220 0.356009 0.183281
H21   H     H_    0.735577 0.171934 0.339680 0.188847
H22   H     H_    0.787322 0.869246 0.439218 0.201840
H23   H     H_    0.235420 0.672091 0.339519 0.188760
H24   H     H_    0.287170 0.369200 0.438713 0.201907
H25   H     H_    0.296908 0.950330 0.526039 0.149462
H26   H     H_    0.282616 0.055250 0.433366 0.127774
H27   H     H_    0.796848 0.450350 0.525767 0.149400
H28   H     H_    0.782585 0.555300 0.433053 0.127732
N1    N     N_R   0.552340 1.000000 0.237260 -0.136540
N2    N     N_R   0.052340 0.500000 0.237260 -0.136532
N3    N     N_R   0.448170 1.000000 0.762060 -0.111796
N4    N     N_R   0.948170 0.500000 0.762060 -0.111805
O1    O     O_R   0.448200 0.076800 0.373930 -0.604877
O2    O     O_R   0.448200 0.923200 0.373930 -0.620042
O3    O     O_R   0.948200 0.576800 0.373930 -0.604844
O4    O     O_R   0.948200 0.423200 0.373930 -0.620058
O5    O     O_R   0.414750 0.076790 0.542400 -0.621644
O6    O     O_R   0.414750 0.923210 0.542400 -0.608890
O7    O     O_R   0.914750 0.576790 0.542400 -0.621575
O8    O     O_R   0.914750 0.423210 0.542400 -0.608978
O9    O     O_R   0.585240 0.923200 0.457600 -0.577434
O10   O     O_R   0.585240 0.076800 0.457600 -0.586461
O11   O     O_R   0.085240 0.423200 0.457600 -0.577550
O12   O     O_R   0.085240 0.576800 0.457600 -0.586488
O13   O     O_R   0.551780 0.923190 0.626070 -0.557349
O14   O     O_R   0.551780 0.076810 0.626070 -0.592076
O15   O     O_R   0.051780 0.423190 0.626070 -0.557113
O16   O     O_R   0.051780 0.576810 0.626070 -0.592085
Zn1   Zn    Zn3+2 0.522330 1.000000 0.387520 0.979212
Zn2   Zn    Zn3+2 0.022330 0.500000 0.387520 0.979194
Zn3   Zn    Zn3+2 0.477660 1.000000 0.612480 0.966255
Zn4   Zn    Zn3+2 0.977660 0.500000 0.612480 0.966319
N5    N     N_2   0.563270 0.210085 0.724985 -0.290377
H29   H     H_    0.576899 0.225706 0.804251 0.232675
C89   C     C_3   0.493079 0.233866 0.678679 -0.710110
H30   H     H_    0.488379 0.296817 0.674940 0.220280
H31   H     H_    0.455728 0.211541 0.728832 0.240969
H32   H     H_    0.478934 0.211416 0.596194 0.246313
N6    N     N_2   0.514669 0.764262 0.607211 -0.305383
H33   H     H_    0.478879 0.743749 0.544917 0.211993
C90   C     C_3   0.499548 0.746434 0.713379 -0.634422
H34   H     H_    0.470577 0.692375 0.711716 0.206705
H35   H     H_    0.466443 0.792621 0.738731 0.265535
H36   H     H_    0.547893 0.740725 0.773779 0.264942
N7    N     N_2   0.063373 0.709989 0.725168 -0.290328
H37   H     H_    0.077045 0.725552 0.804450 0.232761
C91   C     C_3   0.993176 0.733819 0.678969 -0.710247
H38   H     H_    0.988508 0.796772 0.675250 0.220350
H39   H     H_    0.955853 0.711514 0.729187 0.240892
H40   H     H_    0.978964 0.711379 0.596489 0.246416
N8    N     N_2   0.014889 0.264284 0.607984 -0.305339
H41   H     H_    0.978997 0.243594 0.545963 0.212038
C92   C     C_3   0.000057 0.246693 0.714391 -0.634380
H42   H     H_    0.971242 0.192554 0.713196 0.206731
H43   H     H_    0.966911 0.292871 0.739669 0.265416
H44   H     H_    0.048520 0.241258 0.774594 0.264967
N9    N     N_2   0.671575 0.067021 0.917213 -0.314208
H45   H     H_    0.700907 0.096219 0.978737 0.250523
C93   C     C_3   0.709520 0.034821 0.838021 -0.662094
H46   H     H_    0.752813 0.072914 0.826341 0.229302
H47   H     H_    0.674992 0.029324 0.759181 0.244711
H48   H     H_    0.731957 0.978421 0.866303 0.267675
N10   N     N_2   0.171299 0.568087 0.917346 -0.314450
H49   H     H_    0.200473 0.597360 0.978954 0.250511
C94   C     C_3   0.209479 0.536047 0.838335 -0.661676
H50   H     H_    0.252619 0.574368 0.826691 0.229319
H51   H     H_    0.175053 0.530339 0.759445 0.244778
H52   H     H_    0.232143 0.479770 0.866768 0.267761
N11   N     N_2   0.364977 0.050243 0.040048 -0.323774
H53   H     H_    0.348003 0.106135 0.032460 0.243684
C95   C     C_3   0.313768 0.000594 0.074493 -0.786847
H54   H     H_    0.302012 0.019861 0.153462 0.249014
H55   H     H_    0.334318 0.941202 0.084151 0.254389
H56   H     H_    0.264600 0.002128 0.015481 0.238789
N12   N     N_2   0.864810 0.549803 0.040059 -0.323808
H57   H     H_    0.847653 0.605634 0.032487 0.243651
C96   C     C_3   0.813766 0.499924 0.074486 -0.786802
H58   H     H_    0.801953 0.519092 0.153468 0.248973
H59   H     H_    0.834506 0.440605 0.084111 0.254447
H60   H     H_    0.764595 0.501304 0.015481 0.238766
Br1   Br    Br    0.596285 0.892355 0.848178 -0.539202
Br2   Br    Br    0.096768 0.393100 0.848180 -0.539221
N13   N     N_2   0.639564 0.349392 0.745323 -0.329221
H61   H     H_    0.589452 0.353307 0.761812 0.236866
C97   C     C_3   0.691676 0.347808 0.841549 -0.792226
H62   H     H_    0.689724 0.293186 0.885861 0.251671
H63   H     H_    0.681459 0.395292 0.894701 0.243505
H64   H     H_    0.744723 0.354826 0.820963 0.258060
N14   N     N_2   0.579888 0.617186 0.594005 -0.303175
H65   H     H_    0.526227 0.620854 0.578975 0.249720
C98   C     C_3   0.606485 0.577339 0.693634 -0.774005
H66   H     H_    0.596723 0.611469 0.763586 0.246226
H67   H     H_    0.663396 0.565701 0.700469 0.235286
H68   H     H_    0.579776 0.522093 0.695639 0.252290
N15   N     N_2   0.139726 0.849250 0.745640 -0.329246
H69   H     H_    0.089627 0.853178 0.762183 0.236856
C99   C     C_3   0.191871 0.847553 0.841827 -0.791968
H70   H     H_    0.189891 0.792901 0.886056 0.251635
H71   H     H_    0.181720 0.895006 0.895071 0.243575
H72   H     H_    0.244911 0.854540 0.821198 0.258098
N16   N     N_2   0.080161 0.117225 0.594886 -0.303130
H73   H     H_    0.026494 0.120837 0.580074 0.249633
C100  C     C_3   0.106952 0.077553 0.694579 -0.774296
H74   H     H_    0.097306 0.111804 0.764484 0.246261
H75   H     H_    0.163855 0.065940 0.701201 0.235242
H76   H     H_    0.080292 0.022301 0.696901 0.252278
Br3   Br    Br    0.331998 0.666720 0.185196 -0.505945
Br4   Br    Br    0.412000 0.395126 0.344015 -0.455054
Br5   Br    Br    0.832250 0.166483 0.185503 -0.505605
Br6   Br    Br    0.912257 0.895233 0.344814 -0.455173
Br7   Br    Br    0.693909 0.999569 0.350014 -0.528818
Br8   Br    Br    0.193914 0.499664 0.349942 -0.528820

loop_
_geom_bond_atom_site_label_1
_geom_bond_atom_site_label_2
_ccdc_geom_bond_type
C27   N7    S    
C89   H32   S    
C83   C87   A    
N10   H49   S    
N9    H45   S    
C8    C24   A    
C71   H19   S    
C91   H39   S    
C14   C18   A    
C53   C55   A    
C35   N3    A    
N6    H33   S    
C48   C56   A    
C72   C76   A    
C18   H26   S    
N13   C97   S    
C92   H42   S    
C17   H25   S    
C93   H47   S    
C94   H50   S    
O5    Zn3   S    
C15   C19   A    
N15   C99   S    
O3    Zn2   S    
C37   H7    S    
C18   C86   A    
C75   C79   A    
C63   N15   S    
C2    C29   S    
C17   C85   A    
C55   Br1   S    
C57   N1    A    
C28   C68   A    
C1    O5    A    
N2    Zn2   S    
C11   C63   A    
C60   Br8   S    
C5    C83   A    
C3    O7    A    
C96   H59   S    
C75   Br5   S    
O12   Zn2   S    
C89   H30   S    
C6    C22   A    
C58   N2    A    
C49   C57   A    
C4    O4    A    
C42   O16   A    
O1    Zn1   S    
C26   N6    S    
C77   H23   S    
C22   C66   A    
C40   O10   A    
C30   C70   A    
C19   H27   S    
C21   C65   A    
O16   Zn4   S    
C23   H15   S    
C72   H20   S    
C3    O3    A    
C49   C51   A    
C70   C74   A    
C98   H68   S    
C50   C52   A    
N8    C92   S    
C60   N2    A    
N4    Zn4   S    
C45   C49   A    
C8    C12   A    
C30   C86   A    
C29   C85   A    
C7    C23   A    
C80   C84   A    
C95   H56   S    
C21   H13   S    
C2    O2    A    
C98   H66   S    
C33   C59   A    
C91   H40   S    
C34   C60   A    
C10   C62   A    
N1    Zn1   S    
C92   H43   S    
C93   H46   S    
C52   C54   A    
C38   C44   A    
C14   H10   S    
C41   C68   S    
C29   C69   A    
C45   C47   A    
O15   Zn4   S    
C46   C48   A    
O6    Zn3   S    
C71   C75   A    
C6    C84   A    
C79   H21   S    
N13   H61   S    
C26   C66   A    
C84   C88   A    
C31   C87   A    
O2    Zn1   S    
C32   C72   A    
C70   H18   S    
C90   H36   S    
C76   Br6   S    
O14   Zn3   S    
C20   H28   S    
C69   H17   S    
C16   H12   S    
C96   H60   S    
C44   C46   A    
N11   C95   S    
C82   C86   A    
C40   O14   A    
C28   N8    S    
C24   H16   S    
N5    C89   S    
C50   C58   A    
C37   C43   A    
C74   Br4   S    
N12   H57   S    
C34   H2    S    
C100  H74   S    
C5    C9    A    
C9    C61   A    
C33   H1    S    
N12   C96   S    
N10   C94   S    
C78   C82   A    
C35   H5    S    
C7    C11   A    
N8    H41   S    
C77   C81   A    
C16   C20   A    
C97   H64   S    
C97   H63   S    
N16   H73   S    
C25   C65   A    
C56   Br2   S    
C25   C61   A    
N14   C98   S    
C69   C73   A    
C43   C45   A    
C44   N12   S    
C94   H51   S    
C27   C63   A    
N11   H53   S    
C93   H48   S    
C2    O6    A    
C53   N9    S    
C7    C81   A    
C12   C14   A    
O13   Zn3   S    
C40   C65   S    
C74   C78   A    
C42   C67   S    
C39   C66   S    
C100  H75   S    
C64   N16   S    
N7    C91   S    
O7    Zn4   S    
O4    Zn2   S    
C80   H22   S    
C36   C38   A    
C28   C64   A    
C41   O15   A    
C92   H44   S    
C47   N3    A    
C48   N4    A    
C47   C55   A    
C39   O13   A    
C94   H52   S    
C35   C37   A    
C89   H31   S    
C12   C64   A    
C99   H70   S    
C43   N11   S    
C4    O8    A    
C57   H3    S    
N6    C90   S    
C9    C15   A    
C54   N10   S    
C25   N5    S    
C76   C80   A    
C62   N14   S    
C15   H11   S    
C6    C10   A    
C42   O12   A    
C54   C56   A    
C33   C51   A    
C39   O9    A    
C46   C50   A    
C34   C52   A    
C22   H14   S    
C13   C17   A    
N3    Zn3   S    
C61   N13   S    
C90   H35   S    
C26   C62   A    
C19   C87   A    
O11   Zn2   S    
C10   C16   A    
C90   H34   S    
C79   C83   A    
C11   C13   A    
C96   H58   S    
C23   C67   A    
C59   Br7   S    
C20   C88   A    
C31   C71   A    
C1    C30   S    
N16   C100  S    
C99   H71   S    
O8    Zn4   S    
N14   H65   S    
C13   H9    S    
C3    C32   S    
C36   N4    A    
C1    O1    A    
C4    C31   S    
C27   C67   A    
C24   C68   A    
C95   H54   S    
C59   N1    A    
C36   H6    S    
C8    C82   A    
C100  H76   S    
O9    Zn1   S    
C41   O11   A    
N9    C93   S    
C97   H62   S    
C5    C21   A    
C38   H8    S    
C91   H38   S    
C98   H67   S    
C73   C77   A    
C73   Br3   S    
C78   H24   S    
C99   H72   S    
N15   H69   S    
C51   C53   A    
N7    H37   S    
N5    H29   S    
O10   Zn1   S    
C58   H4    S    
C81   C85   A    
C95   H55   S    
C32   C88   A    
