data_mof_unit_46938.cif
_audit_creation_date              2012-12-10T18:31:49-0500
_audit_creation_method            fapswitch 2.2
_symmetry_space_group_name_H-M    P1
_symmetry_Int_Tables_number       1
_space_group_crystal_system       triclinic
_cell_length_a                    10.651193
_cell_length_b                    14.944961
_cell_length_c                    15.224834
_cell_angle_alpha                 82.146158
_cell_angle_beta                  89.445316
_cell_angle_gamma                 103.868956
_cell_volume                      2328.52034244

loop_
_atom_site_label
_atom_site_type_symbol
_atom_type_description
_atom_site_fract_x
_atom_site_fract_y
_atom_site_fract_z
_atom_type_partial_charge
C1    C     C_R   0.477688 0.441409 0.663266 0.849384
C2    C     C_3   0.121244 0.497666 0.504229 -0.011560
C3    C     C_3   0.076954 0.509270 0.406225 -0.262295
C4    C     C_3   0.097643 0.578007 0.552744 -0.301614
C5    C     C_R   0.437938 0.405795 0.757163 -0.105809
C6    C     C_R   0.497027 0.592754 0.244283 -0.051756
C7    C     C_R   0.336444 0.284802 0.877642 -0.221668
C8    C     C_R   0.385939 0.310396 0.789959 -0.000357
C9    C     C_R   0.438622 0.472342 0.813446 -0.250203
C10   C     C_R   0.379382 0.448321 0.898287 0.105561
C11   C     C_R   0.335163 0.352788 0.932270 0.167856
C12   C     C_R   0.740969 0.498983 0.503540 0.853290
C13   C     C_R   0.377008 0.517145 0.953565 -0.009781
C14   C     C_R   0.366679 0.488692 0.045800 0.071772
C15   C     C_R   0.315176 0.393315 0.078465 -0.206983
C16   C     C_R   0.295619 0.326559 0.021511 -0.203791
C17   C     C_R   0.385811 0.612478 0.921046 -0.082619
C18   C     C_R   0.418065 0.680696 0.978606 -0.078008
C19   C     C_R   0.440921 0.652321 0.068435 0.057134
C20   C     C_R   0.413206 0.555853 0.101893 0.087163
C21   C     C_R   0.493644 0.717495 0.125649 -0.179225
C22   C     C_R   0.520181 0.687851 0.212856 -0.123442
C23   C     C_R   0.514321 0.558183 0.337076 0.926858
C24   C     C_R   0.444824 0.528092 0.188604 -0.243236
C25   C     C_R   0.722818 0.849993 0.613808 -0.242269
C26   C     C_R   0.676226 0.757084 0.603745 0.034184
C27   C     C_R   0.507144 0.792928 0.516595 0.043659
C28   C     C_R   0.542237 0.886486 0.531507 0.016513
C29   C     C_R   0.660721 0.916931 0.572586 0.069310
C30   C     C_R   0.468893 0.951503 0.500996 0.072195
C31   C     C_R   0.530757 0.048200 0.491047 -0.050284
C32   C     C_R   0.664617 0.076117 0.509249 -0.070348
C33   C     C_R   0.720442 0.012815 0.563516 -0.014531
C34   C     C_R   0.258064 0.498499 0.503098 0.874424
C35   C     C_R   0.336862 0.924009 0.478696 -0.031737
C36   C     C_R   0.279418 0.988543 0.430578 -0.252400
C37   C     C_R   0.334080 0.084096 0.425743 0.146269
C38   C     C_R   0.456285 0.113617 0.463203 -0.020564
C39   C     C_R   0.266855 0.151548 0.390502 -0.099050
C40   C     C_R   0.319404 0.244341 0.399855 -0.067615
C41   C     C_R   0.494217 0.206578 0.479136 -0.053910
C42   C     C_3   0.894150 0.398827 0.545198 -0.207919
C43   C     C_3   0.040368 0.402325 0.554428 -0.234560
C44   C     C_3   0.936515 0.524549 0.405592 -0.101420
C45   C     C_3   0.952248 0.571837 0.563622 -0.203441
C46   C     C_3   0.877631 0.498336 0.505134 -0.111716
H1    H     H_    0.857760 0.350633 0.497025 0.162839
H2    H     H_    0.144246 0.645632 0.512759 0.216261
H3    H     H_    0.258177 0.253885 0.048526 0.145828
H4    H     H_    0.433408 0.455273 0.213018 0.163030
H5    H     H_    0.559429 0.739323 0.255395 0.160714
H6    H     H_    0.300457 0.211639 0.903753 0.145795
H7    H     H_    0.489395 0.543758 0.791348 0.172546
H8    H     H_    0.288085 0.369108 0.147793 0.130153
H9    H     H_    0.517926 0.791650 0.103493 0.131448
H10   H     H_    0.574559 0.229998 0.520013 0.133826
H11   H     H_    0.269411 0.297278 0.375440 0.126968
H12   H     H_    0.184449 0.962938 0.406660 0.199455
H13   H     H_    0.810675 0.869089 0.649210 0.156089
H14   H     H_    0.726762 0.705910 0.631779 0.120972
H15   H     H_    0.431197 0.768679 0.472825 0.148951
H16   H     H_    0.060184 0.344288 0.522154 0.181584
H17   H     H_    0.074604 0.441329 0.382873 0.092628
H18   H     H_    0.938642 0.642186 0.538333 0.136696
H19   H     H_    0.145974 0.578204 0.617095 0.232083
N1    N     N_R   0.573860 0.731700 0.552730 -0.111761
N2    N     N_R   0.426060 0.268290 0.447230 -0.095945
O1    O     O_R   0.462770 0.383110 0.605620 -0.600642
O2    O     O_R   0.510160 0.531900 0.639510 -0.621836
O3    O     O_R   0.661510 0.425600 0.483070 -0.617187
O4    O     O_R   0.708900 0.574390 0.516960 -0.645311
O5    O     O_R   0.489840 0.468100 0.360490 -0.607994
O6    O     O_R   0.537230 0.616890 0.394380 -0.605591
O7    O     O_R   0.291100 0.425610 0.483040 -0.647911
O8    O     O_R   0.338490 0.574400 0.516930 -0.591991
Zn1   Zn    Zn3+2 0.468350 0.400660 0.477370 0.963437
Zn2   Zn    Zn3+2 0.531650 0.599340 0.522630 0.972069
C47   C     C_1   0.936874 0.623445 0.372349 0.318689
N3    N     N_1   0.936846 0.700014 0.346666 -0.186974
C48   C     C_2   0.172604 0.579140 0.340016 0.382549
H20   H     H_    0.192672 0.560301 0.275890 0.073021
O9    O     O_2   0.224485 0.656901 0.356293 -0.592484
C49   C     C_2   0.428626 0.780963 0.945247 0.416547
H21   H     H_    0.400909 0.825798 0.988259 0.060584
O10   O     O_2   0.469916 0.814770 0.869857 -0.538551
C50   C     C_1   0.383540 0.236961 0.736919 0.232740
N4    N     N_1   0.381452 0.177910 0.694641 -0.168727
C51   C     C_1   0.813268 0.356342 0.627300 0.219558
N5    N     N_1   0.749883 0.323049 0.691049 -0.190676
C52   C     C_1   0.340989 0.637964 0.833489 0.284163
N6    N     N_1   0.305079 0.658127 0.763752 -0.095537
C53   C     C_1   0.843524 0.045129 0.603185 0.310690
N7    N     N_1   0.941613 0.070860 0.634876 -0.162177
C54   C     C_1   0.079342 0.385769 0.647513 0.260937
N8    N     N_1   0.109834 0.372841 0.719993 -0.163467
C55   C     C_2   0.749385 0.162211 0.457206 0.364902
H22   H     H_    0.710387 0.201791 0.403854 0.067729
O11   O     O_2   0.864908 0.187457 0.469083 -0.586370
C56   C     C_2   0.246947 0.834454 0.515864 0.381015
H23   H     H_    0.162241 0.806392 0.480009 0.075566
O12   O     O_2   0.261080 0.794980 0.589457 -0.549251
C57   C     C_2   0.140776 0.130994 0.347339 0.416574
H24   H     H_    0.123413 0.179530 0.291632 0.051018
O13   O     O_2   0.052217 0.065017 0.376837 -0.548676
C58   C     C_2   0.858067 0.463120 0.342517 0.364351
H25   H     H_    0.854871 0.389380 0.349893 0.078146
O14   O     O_2   0.798220 0.494712 0.282735 -0.562102
C59   C     C_2   0.900964 0.553705 0.659847 0.441746
H26   H     H_    0.800442 0.552086 0.674182 0.064350
O15   O     O_2   0.969341 0.541452 0.722068 -0.548546

loop_
_geom_bond_atom_site_label_1
_geom_bond_atom_site_label_2
_ccdc_geom_bond_type
O2    Zn2   S    
C35   C36   A    
O5    Zn1   S    
C43   C54   S    
C7    C8    A    
C41   N2    A    
C44   C58   S    
C7    C11   A    
C58   O14   D    
O7    Zn1   S    
C30   C35   A    
C49   H21   S    
C1    C5    S    
C36   C37   A    
C19   C21   A    
C7    H6    S    
C36   H12   S    
C4    H19   S    
C15   C16   A    
C6    C22   A    
C29   C33   A    
C1    O1    A    
C59   H26   S    
C18   C19   A    
C42   C46   S    
C20   C24   A    
C27   H15   S    
C19   C20   A    
C40   N2    A    
C55   O11   D    
C9    C10   A    
C45   C59   S    
C34   O8    A    
C2    C34   S    
C21   C22   A    
C25   C29   A    
C54   N8    T    
C23   O6    A    
C35   C56   S    
C3    C48   S    
C44   C46   S    
C17   C18   A    
C4    C45   S    
C24   H4    S    
C3    C44   S    
C26   N1    A    
C15   H8    S    
C14   C20   A    
C16   H3    S    
C38   C41   A    
C12   C46   S    
C33   C53   S    
C39   C40   A    
C21   H9    S    
C50   N4    T    
C25   C26   A    
C45   C46   S    
C1    O2    A    
C2    C4    S    
C41   H10   S    
C5    C9    A    
C37   C38   A    
C11   C16   A    
C31   C32   A    
C2    C43   S    
C6    C24   A    
C55   H22   S    
C18   C49   S    
C57   O13   D    
O8    Zn2   S    
C34   O7    A    
C48   O9    D    
C49   O10   D    
C12   O4    A    
O3    Zn1   S    
C9    H7    S    
C42   C43   S    
O4    Zn2   S    
C39   C57   S    
C4    H2    S    
N1    Zn2   S    
C12   O3    A    
C28   C29   A    
C40   H11   S    
C56   O12   D    
C47   N3    T    
C23   O5    A    
C17   C52   S    
C48   H20   S    
C10   C13   A    
C5    C8    A    
C3    H17   S    
O1    Zn1   S    
C58   H25   S    
C45   H18   S    
C31   C38   A    
C13   C17   A    
C32   C33   A    
C44   C47   S    
C2    C3    S    
C37   C39   A    
C27   N1    A    
C56   H23   S    
C32   C55   S    
C52   N6    T    
C30   C31   A    
C6    C23   S    
C28   C30   A    
C53   N7    T    
C59   O15   D    
C8    C50   S    
C42   H1    S    
C57   H24   S    
C10   C11   A    
C42   C51   S    
C51   N5    T    
C27   C28   A    
O6    Zn2   S    
C14   C15   A    
N2    Zn1   S    
C25   H13   S    
C13   C14   A    
C26   H14   S    
C43   H16   S    
C22   H5    S    
