data_mof_unit_53711.cif
_audit_creation_date              2012-12-10T19:04:48-0500
_audit_creation_method            fapswitch 2.2
_symmetry_space_group_name_H-M    P1
_symmetry_Int_Tables_number       1
_space_group_crystal_system       triclinic
_cell_length_a                    15.841759
_cell_length_b                    10.852743
_cell_length_c                    9.601649
_cell_angle_alpha                 88.590095
_cell_angle_beta                  89.713386
_cell_angle_gamma                 91.286586
_cell_volume                      1649.83698252

loop_
_atom_site_label
_atom_site_type_symbol
_atom_type_description
_atom_site_fract_x
_atom_site_fract_y
_atom_site_fract_z
_atom_type_partial_charge
C1    C     C_R   0.503956 0.263235 0.501483 0.853820
C2    C     C_3   0.083407 0.503095 0.499001 0.003298
C3    C     C_3   0.974100 0.621411 0.516560 -0.231726
C4    C     C_3   0.916973 0.504794 0.502795 0.015577
C5    C     C_3   0.029543 0.577264 0.393502 -0.345847
C6    C     C_3   0.971620 0.461520 0.381345 0.490870
C7    C     C_1   0.174985 0.501525 0.499222 -0.000198
C8    C     C_1   0.825309 0.504033 0.501127 0.009246
C9    C     C_R   0.457632 0.062012 0.598367 -0.025847
C10   C     C_R   0.506257 0.130436 0.502218 -0.160027
C11   C     C_R   0.545864 0.069725 0.392456 0.167789
C12   C     C_R   0.340051 0.499690 0.500092 0.815600
C13   C     C_R   0.532541 0.941404 0.379776 0.195718
C14   C     C_R   0.492801 0.871907 0.490313 -0.206973
C15   C     C_R   0.449720 0.935988 0.592221 -0.034405
C16   C     C_3   0.438959 0.918985 0.747245 0.325752
C17   C     C_3   0.453648 0.058511 0.754770 0.057453
C18   C     C_R   0.572952 0.520428 0.071660 0.128319
C19   C     C_R   0.433616 0.449642 0.077318 0.278954
C20   C     C_R   0.431729 0.455048 0.927811 0.237039
C21   C     C_R   0.572578 0.522159 0.925514 0.134287
C22   C     C_3   0.631017 0.631857 0.917530 0.067971
C23   C     C_R   0.497564 0.737738 0.497873 0.810218
C24   C     C_3   0.635053 0.625039 0.076750 -0.525365
C25   C     C_R   0.660012 0.500768 0.499793 0.828462
C26   C     C_3   0.970501 0.431208 0.609769 -0.320601
C27   C     C_3   0.024980 0.388951 0.486297 0.445394
C28   C     C_1   0.250481 0.500518 0.499727 -0.194971
C29   C     C_1   0.749724 0.502563 0.499813 -0.157868
C30   C     C_3   0.028694 0.546549 0.619122 0.296926
Cu1   Cu    Cu3+1 0.500000 0.499980 0.640670 0.941104
Cu2   Cu    Cu3+1 0.500000 0.500020 0.359330 0.969868
H1    H     H_    0.487297 0.862393 0.800799 0.090201
H2    H     H_    0.398232 0.107484 0.795802 0.132713
H3    H     H_    0.600385 0.715305 0.873311 0.140971
H4    H     H_    0.696809 0.595138 0.118759 0.210625
H5    H     H_    0.609606 0.705507 0.127932 0.220606
H6    H     H_    0.945515 0.374254 0.698990 0.146803
H7    H     H_    0.054921 0.636326 0.306306 0.159296
H8    H     H_    0.951761 0.716340 0.532087 0.150102
N1    N     N_R   0.500530 0.500930 0.147930 -0.206608
N2    N     N_R   0.500530 0.500890 0.852020 -0.242156
O1    O     O_R   0.500000 0.319640 0.618810 -0.591528
O2    O     O_R   0.500010 0.319680 0.381230 -0.540831
O3    O     O_R   0.379070 0.499970 0.618770 -0.556349
O4    O     O_R   0.379080 0.500010 0.381190 -0.564863
O5    O     O_R   0.499990 0.680320 0.618770 -0.611312
O6    O     O_R   0.500000 0.680360 0.381190 -0.543764
O7    O     O_R   0.620920 0.499990 0.618810 -0.552888
O8    O     O_R   0.620930 0.500030 0.381230 -0.569502
O9    O     O_3   0.057645 0.270606 0.467395 -0.574747
C31   C     C_3   0.991647 0.181788 0.479204 -0.320651
H9    H     H_    0.939498 0.201633 0.405384 0.185813
H10   H     H_    0.967192 0.174465 0.587864 0.157471
H11   H     H_    0.016922 0.090701 0.452912 0.188092
N3    N     N_2   0.531870 0.094019 0.824963 -0.450753
H12   H     H_    0.532865 0.183826 0.857703 0.263137
C32   C     C_3   0.613084 0.055116 0.772981 -0.702452
H13   H     H_    0.660467 0.061837 0.857289 0.218815
H14   H     H_    0.634736 0.116472 0.685197 0.231574
H15   H     H_    0.610659 0.958332 0.738723 0.214617
N4    N     N_2   0.367440 0.387535 0.153418 -0.362075
H16   H     H_    0.311986 0.434991 0.159592 0.251700
C33   C     C_3   0.356382 0.255744 0.136111 -0.663277
H17   H     H_    0.399685 0.220150 0.056031 0.189704
H18   H     H_    0.290643 0.233613 0.104030 0.213564
H19   H     H_    0.368066 0.207256 0.237006 0.242757
N5    N     N_2   0.360109 0.406413 0.857537 -0.366298
H20   H     H_    0.361224 0.314416 0.834116 0.244611
C34   C     C_3   0.277929 0.456968 0.886175 -0.666346
H21   H     H_    0.283215 0.542701 0.946701 0.193181
H22   H     H_    0.245855 0.479341 0.786976 0.248742
H23   H     H_    0.237716 0.388079 0.944287 0.215819
N6    N     N_2   0.710379 0.603637 0.850582 -0.374761
H24   H     H_    0.739693 0.525696 0.888252 0.259894
C35   C     C_3   0.767168 0.707932 0.825785 -0.703887
H25   H     H_    0.820474 0.679602 0.759338 0.228692
H26   H     H_    0.792291 0.741542 0.926126 0.226945
H27   H     H_    0.734153 0.783576 0.769994 0.223236
O10   O     O_3   0.934940 0.416082 0.258613 -0.585752
C36   C     C_3   0.998884 0.394904 0.160162 -0.322078
H28   H     H_    0.044367 0.326049 0.199798 0.197019
H29   H     H_    0.032631 0.482022 0.128419 0.161464
H30   H     H_    0.969186 0.357034 0.065492 0.186034
N7    N     N_2   0.064120 0.592986 0.746726 -0.425675
H31   H     H_    0.112454 0.656851 0.729610 0.247795
C37   C     C_3   0.003079 0.631879 0.847898 -0.702248
H32   H     H_    0.035942 0.655098 0.945976 0.223280
H33   H     H_    0.955935 0.556796 0.871281 0.241518
H34   H     H_    0.970589 0.715182 0.808239 0.219156
N8    N     N_2   0.611168 0.132840 0.314067 -0.430824
H35   H     H_    0.669514 0.093127 0.322529 0.233720
C38   C     C_3   0.591895 0.173995 0.173672 -0.627820
H36   H     H_    0.628512 0.260167 0.148827 0.230748
H37   H     H_    0.524170 0.193235 0.162529 0.243379
H38   H     H_    0.609882 0.103568 0.097983 0.213505
N9    N     N_2   0.556009 0.884253 0.254333 -0.421645
H39   H     H_    0.613949 0.912465 0.214481 0.242146
C39   C     C_3   0.489615 0.885235 0.150698 -0.614543
H40   H     H_    0.471090 0.981004 0.124237 0.226070
H41   H     H_    0.433209 0.832319 0.189997 0.240165
H42   H     H_    0.511652 0.842448 0.053828 0.199041
O11   O     O_3   0.354547 0.889325 0.786141 -0.592850
C40   C     C_3   0.338240 0.762316 0.772381 -0.248130
H43   H     H_    0.383527 0.706201 0.833602 0.172759
H44   H     H_    0.338606 0.737403 0.660910 0.171118
H45   H     H_    0.273988 0.740569 0.813657 0.168175

loop_
_geom_bond_atom_site_label_1
_geom_bond_atom_site_label_2
_ccdc_geom_bond_type
C37   H32   S    
C38   H36   S    
Cu1   N2    S    
C18   C21   A    
C19   C20   A    
C35   H27   S    
C4    C8    S    
C40   H44   S    
N9    H39   S    
N7    H31   S    
C22   H3    S    
C26   C27   S    
C24   H4    S    
Cu1   O1    S    
C12   C28   S    
C18   C24   S    
C8    C29   T    
C35   H26   S    
C5    C6    S    
C19   N4    S    
C32   H14   S    
C15   C16   S    
N3    H12   S    
C25   O8    A    
N4    C33   S    
C16   O11   S    
C2    C7    S    
C36   H29   S    
C1    O1    A    
Cu1   Cu2   S    
C27   O9    S    
C16   C17   S    
Cu2   N1    S    
C2    C27   S    
C9    C10   A    
C31   H11   S    
C32   H15   S    
C38   H37   S    
Cu1   O5    S    
C21   C22   S    
Cu2   O6    S    
Cu1   O7    S    
C40   H43   S    
N9    C39   S    
C31   H10   S    
C36   H28   S    
N7    C37   S    
C25   C29   S    
C23   O5    A    
N6    H24   S    
O9    C31   S    
C33   H19   S    
C35   H25   S    
C12   O4    A    
C18   N1    A    
N8    H35   S    
N5    H20   S    
C32   H13   S    
C7    C28   T    
C33   H18   S    
C14   C23   S    
C3    C30   S    
N4    H16   S    
C16   H1    S    
N8    C38   S    
C1    O2    A    
C6    O10   S    
C6    C27   S    
C34   H23   S    
C24   H5    S    
Cu2   O2    S    
C20   N2    A    
C30   N7    S    
C17   N3    S    
Cu2   O8    S    
C34   H21   S    
N6    C35   S    
C4    C6    S    
C39   H41   S    
C3    H8    S    
C26   C30   S    
C38   H38   S    
C37   H33   S    
C22   C24   S    
C2    C5    S    
C17   H2    S    
C22   N6    S    
C3    C4    S    
C36   H30   S    
C31   H9    S    
C9    C17   S    
C23   O6    A    
Cu2   O4    S    
C20   N5    S    
C26   H6    S    
C1    C10   S    
O10   C36   S    
C3    C5    S    
C4    C26   S    
C12   O3    A    
C39   H40   S    
C2    C30   S    
C33   H17   S    
C5    H7    S    
C9    C15   A    
C11   C13   A    
N3    C32   S    
C13   N9    S    
C25   O7    A    
C10   C11   A    
C21   N2    A    
C11   N8    S    
C39   H42   S    
N5    C34   S    
Cu1   O3    S    
C37   H34   S    
O11   C40   S    
C14   C15   A    
C34   H22   S    
C13   C14   A    
C40   H45   S    
C19   N1    A    
