data_mof_unit_41255.cif
_audit_creation_date              2012-12-10T18:49:19-0500
_audit_creation_method            fapswitch 2.2
_symmetry_space_group_name_H-M    P1
_symmetry_Int_Tables_number       1
_space_group_crystal_system       triclinic
_cell_length_a                    9.877381
_cell_length_b                    10.622979
_cell_length_c                    13.646209
_cell_angle_alpha                 90.137231
_cell_angle_beta                  82.894506
_cell_angle_gamma                 90.550061
_cell_volume                      1420.7955622

loop_
_atom_site_label
_atom_site_type_symbol
_atom_type_description
_atom_site_fract_x
_atom_site_fract_y
_atom_site_fract_z
_atom_type_partial_charge
C1    C     C_R   0.501143 0.739383 0.498322 0.893863
C2    C     C_R   0.498728 0.260632 0.502486 0.951982
C3    C     C_R   0.496333 0.128128 0.502405 -0.142229
C4    C     C_R   0.503466 0.871884 0.498977 -0.158221
C5    C     C_R   0.475508 0.501179 0.685577 0.900901
C6    C     C_R   0.524522 0.499206 0.314408 0.928503
C7    C     C_R   0.937024 0.420871 0.438896 0.100917
C8    C     C_R   0.062932 0.579056 0.561148 0.106306
C9    C     C_R   0.082031 0.420642 0.439084 0.109782
C10   C     C_R   0.917938 0.579296 0.560956 0.112573
C11   C     C_1   0.543595 0.498349 0.210897 -0.183642
C12   C     C_1   0.456665 0.503332 0.789057 -0.179547
C13   C     C_2   0.560339 0.498496 0.019385 0.116893
C14   C     C_2   0.441992 0.505257 0.980744 0.086951
C15   C     C_1   0.444834 0.504678 0.876641 -0.053396
C16   C     C_1   0.556203 0.498115 0.123280 0.073472
C17   C     C_R   0.475208 0.932938 0.590445 0.028529
C18   C     C_R   0.525402 0.067599 0.411183 0.016486
C19   C     C_R   0.470412 0.063228 0.592455 -0.058287
C20   C     C_R   0.529268 0.936788 0.408894 -0.060435
N1    N     N_R   0.142790 0.500030 0.500020 -0.076812
N2    N     N_R   0.857210 0.499970 0.499980 -0.077423
O1    O     O_R   0.385380 0.683250 0.500010 -0.613459
O2    O     O_R   0.614620 0.316750 0.499990 -0.608535
O3    O     O_R   0.614710 0.683220 0.500000 -0.568970
O4    O     O_R   0.385290 0.316780 0.500000 -0.568445
O5    O     O_R   0.368830 0.499990 0.640350 -0.579959
O6    O     O_R   0.631170 0.500010 0.359650 -0.578075
O7    O     O_R   0.598160 0.499960 0.640350 -0.606950
O8    O     O_R   0.401840 0.500040 0.359650 -0.594581
Zn1   Zn    Zn3+2 0.346870 0.500020 0.500000 1.013664
Zn2   Zn    Zn3+2 0.653130 0.499980 0.500000 1.010886
N3    N     N_3   0.872638 0.338945 0.374900 -0.387817
H1    H     H_    0.912419 0.358408 0.301911 0.169150
H2    H     H_    0.895291 0.245921 0.390944 0.171741
N4    N     N_3   0.127236 0.660865 0.625240 -0.402898
H3    H     H_    0.087468 0.641244 0.698204 0.167117
H4    H     H_    0.104514 0.753906 0.609304 0.171495
N5    N     N_3   0.166170 0.337449 0.375938 -0.386148
H5    H     H_    0.152279 0.356121 0.302718 0.171559
H6    H     H_    0.135236 0.244812 0.392665 0.174000
N6    N     N_3   0.833759 0.662383 0.624177 -0.395214
H7    H     H_    0.847589 0.643581 0.697389 0.162570
H8    H     H_    0.864651 0.755056 0.607554 0.176339
N7    N     N_3   0.313417 0.512451 0.042414 -0.444856
H9    H     H_    0.265038 0.594717 0.024099 0.203342
H10   H     H_    0.253089 0.436148 0.025022 0.191388
N8    N     N_3   0.690777 0.491152 0.959926 -0.457762
H11   H     H_    0.703463 0.570375 0.914233 0.190711
H12   H     H_    0.691411 0.410988 0.915235 0.204991
N9    N     N_3   0.448676 0.863148 0.681122 -0.412177
H13   H     H_    0.533010 0.806791 0.688570 0.193424
H14   H     H_    0.363601 0.804831 0.677548 0.191859
N10   N     N_3   0.554342 0.141157 0.322554 -0.456042
H15   H     H_    0.479808 0.122048 0.276384 0.230373
H16   H     H_    0.649788 0.115701 0.286522 0.200783
C21   C     C_2   0.436838 0.130111 0.688133 0.903378
O9    O     O_2   0.495135 0.102493 0.759021 -0.600277
O10   O     O_R   0.336125 0.222318 0.697720 -0.802285
H17   H     H_    0.319675 0.258198 0.767024 0.338801
C22   C     C_2   0.563017 0.868821 0.313775 0.867310
O11   O     O_2   0.497291 0.887858 0.245097 -0.628985
O12   O     O_R   0.670964 0.783834 0.302810 -0.789340
H18   H     H_    0.685658 0.745163 0.234383 0.340724

loop_
_geom_bond_atom_site_label_1
_geom_bond_atom_site_label_2
_ccdc_geom_bond_type
C13   N8    S    
O7    Zn2   S    
O2    Zn2   S    
C3    C19   A    
C10   N6    S    
C7    N2    A    
C7    N3    S    
C11   C16   T    
N2    Zn2   S    
C18   C20   A    
C14   C15   S    
C12   C15   T    
O6    Zn2   S    
C1    C4    S    
C10   N2    A    
C17   N9    S    
O3    Zn2   S    
N8    H12   S    
C8    N1    A    
O10   H17   S    
C2    O4    A    
C5    O5    A    
C13   C14   D    
C19   C21   S    
C1    O3    A    
C20   C22   S    
N1    Zn1   S    
C6    C11   S    
C9    N1    A    
C21   O9    D    
C22   O11   D    
N6    H8    S    
C5    C12   S    
C4    C17   A    
N4    H4    S    
N8    H11   S    
N3    H2    S    
N3    H1    S    
C14   N7    S    
C5    O7    A    
N7    H10   S    
C2    O2    A    
O8    Zn1   S    
N10   H16   S    
C21   O10   S    
N6    H7    S    
C18   N10   S    
O5    Zn1   S    
O12   H18   S    
C4    C20   A    
C7    C9    A    
C9    N5    S    
C3    C18   A    
N5    H6    S    
C8    N4    S    
C13   C16   S    
N5    H5    S    
C22   O12   S    
N10   H15   S    
N4    H3    S    
C2    C3    S    
C1    O1    A    
C17   C19   A    
N7    H9    S    
O4    Zn1   S    
C6    O8    A    
C8    C10   A    
C6    O6    A    
N9    H13   S    
N9    H14   S    
O1    Zn1   S    
