data_mof_unit_25385.cif
_audit_creation_date              2012-12-11T15:16:47-0500
_audit_creation_method            fapswitch 2.2
_symmetry_space_group_name_H-M    P1
_symmetry_Int_Tables_number       1
_space_group_crystal_system       triclinic
_cell_length_a                    24.925629
_cell_length_b                    7.232974
_cell_length_c                    22.043139
_cell_angle_alpha                 89.583101
_cell_angle_beta                  110.209556
_cell_angle_gamma                 89.792722
_cell_volume                      3729.23794195

loop_
_atom_site_label
_atom_site_type_symbol
_atom_type_description
_atom_site_fract_x
_atom_site_fract_y
_atom_site_fract_z
_atom_type_partial_charge
O1    O     O_R   0.554350 0.505270 0.581390 -0.533341
O2    O     O_R   0.445650 0.005270 0.418610 -0.531307
O3    O     O_R   0.553380 0.177580 0.454800 -0.539591
O4    O     O_R   0.446620 0.677580 0.545200 -0.540861
C1    C     C_R   0.567403 0.345983 0.439919 0.682646
C2    C     C_R   0.432716 0.845376 0.560240 0.682711
O5    O     O_R   0.560970 0.175640 0.583140 -0.532011
O6    O     O_R   0.439030 0.675640 0.416860 -0.532491
O7    O     O_R   0.453290 0.004120 0.547860 -0.533968
O8    O     O_R   0.546710 0.504120 0.452140 -0.535830
C3    C     C_R   0.576455 0.343035 0.607255 0.670613
C4    C     C_R   0.423918 0.845339 0.392487 0.668552
O9    O     O_3   0.464660 0.338800 0.488280 -0.369967
O10   O     O_3   0.535340 0.838800 0.511720 -0.370708
V1    V     V_3+5 0.506560 0.064420 0.502170 1.394778
V2    V     V_3+5 0.493440 0.564420 0.497830 1.389653
C5    C     C_R   0.141108 0.807996 0.285457 0.082440
C6    C     C_R   0.858909 0.414638 0.709112 0.087936
H1    H     H_    0.231271 0.763417 0.399333 0.138653
H2    H     H_    0.768657 0.380059 0.594953 0.137268
C7    C     C_R   0.117588 0.925416 0.174566 -0.100640
C8    C     C_R   0.881419 0.438566 0.825970 -0.110761
C9    C     C_R   0.397587 0.902201 0.275620 -0.155854
C10   C     C_R   0.603788 0.332230 0.725597 -0.157765
C11   C     C_R   0.358119 0.934045 0.214110 -0.124518
C12   C     C_R   0.643779 0.324362 0.787784 -0.120359
C13   C     C_R   0.299647 0.930550 0.203284 -0.166745
C14   C     C_R   0.701996 0.337169 0.797903 -0.169635
C15   C     C_R   0.278734 0.894401 0.254235 0.107820
C16   C     C_R   0.722088 0.362886 0.745825 0.106811
C17   C     C_R   0.319680 0.854145 0.316813 0.072877
C18   C     C_R   0.680969 0.357707 0.681899 0.072698
C19   C     C_R   0.218610 0.892243 0.244592 0.055870
C20   C     C_R   0.781653 0.388733 0.755265 0.058329
C21   C     C_R   0.200490 0.833460 0.296251 0.073018
C22   C     C_R   0.799662 0.393698 0.700533 0.073006
C23   C     C_R   0.242295 0.798557 0.357468 -0.181797
C24   C     C_R   0.757932 0.376942 0.638347 -0.179734
C25   C     C_R   0.300274 0.809017 0.367430 -0.214688
C26   C     C_R   0.700222 0.359304 0.629404 -0.209702
C27   C     C_R   0.176031 0.945314 0.185148 -0.299764
C28   C     C_R   0.823595 0.413173 0.817373 -0.288363
C29   C     C_R   0.100216 0.850622 0.223948 0.276240
C30   C     C_R   0.899233 0.438706 0.772168 0.272792
C31   C     C_R   0.379360 0.861091 0.327429 -0.080119
C32   C     C_R   0.621436 0.346823 0.672107 -0.078629
H3    H     H_    0.186958 0.998652 0.145298 0.129083
H4    H     H_    0.812577 0.415931 0.860364 0.118752
H5    H     H_    0.442812 0.910132 0.282956 0.102929
H6    H     H_    0.558757 0.321890 0.719016 0.103461
H7    H     H_    0.271945 0.952519 0.154129 0.110383
H8    H     H_    0.730391 0.319178 0.846825 0.117757
H9    H     H_    0.372986 0.962884 0.174324 0.121433
H10   H     H_    0.629585 0.306187 0.828640 0.122923
H11   H     H_    0.329985 0.777389 0.415375 0.111548
H12   H     H_    0.670637 0.343797 0.580557 0.105018
C33   C     C_R   0.083110 0.937649 0.834481 0.290957
C34   C     C_R   0.919005 0.355436 0.163521 0.294574
C35   C     C_R   0.118943 0.918848 0.798328 -0.154811
C36   C     C_R   0.885151 0.336774 0.202049 -0.180321
H13   H     H_    0.100413 0.921986 0.746027 0.171088
H14   H     H_    0.902528 0.266340 0.248359 0.171960
C37   C     C_R   0.177934 0.893899 0.828235 -0.086433
C38   C     C_R   0.830674 0.416057 0.183559 -0.086063
C39   C     C_R   0.202448 0.893919 0.896925 0.131600
C40   C     C_R   0.809420 0.519267 0.124995 0.144067
C41   C     C_R   0.166114 0.924096 0.934311 0.084373
C42   C     C_R   0.841840 0.525308 0.082505 0.100744
C43   C     C_R   0.105882 0.938102 0.902364 -0.138417
C44   C     C_R   0.897233 0.441232 0.102182 -0.150176
N1    N     N_R   0.220003 0.032980 0.752733 -0.258615
N2    N     N_R   0.790904 0.541637 0.262632 -0.267624
N3    N     N_R   0.252295 0.024652 0.715584 -0.286143
N4    N     N_R   0.757490 0.528807 0.298331 -0.291247
C45   C     C_R   0.278940 0.864697 0.709745 0.515070
C46   C     C_R   0.729171 0.369912 0.300558 0.518057
N5    N     N_R   0.271184 0.712429 0.742330 -0.284783
N6    N     N_R   0.736623 0.222778 0.266091 -0.289611
N7    N     N_R   0.238770 0.720566 0.779475 -0.280213
N8    N     N_R   0.770166 0.235520 0.230310 -0.292189
C47   C     C_R   0.213060 0.881679 0.785930 0.535966
C48   C     C_R   0.797607 0.395761 0.227613 0.535272
C49   C     C_R   0.347762 0.699500 0.666710 -0.145480
C50   C     C_R   0.658225 0.202382 0.339932 -0.146198
H15   H     H_    0.344711 0.575706 0.693218 0.143060
H16   H     H_    0.663371 0.078363 0.315213 0.140430
C51   C     C_R   0.384324 0.698232 0.630638 -0.203000
C52   C     C_R   0.619327 0.201164 0.373120 -0.202059
H17   H     H_    0.408518 0.573197 0.631208 0.124493
H18   H     H_    0.595213 0.076425 0.371978 0.122511
C53   C     C_R   0.390957 0.855672 0.595767 -0.064280
C54   C     C_R   0.610056 0.358720 0.405631 -0.067112
C55   C     C_R   0.357888 0.017378 0.596938 0.128463
C56   C     C_R   0.641655 0.522679 0.403495 0.127625
C57   C     C_R   0.321712 0.015386 0.634060 -0.166071
C58   C     C_R   0.680750 0.519576 0.370119 -0.167779
H19   H     H_    0.297075 0.138203 0.635147 0.139820
H20   H     H_    0.704581 0.643528 0.368752 0.140358
C59   C     C_R   0.316428 0.858751 0.669471 -0.002974
C60   C     C_R   0.689335 0.362003 0.337895 -0.002795
O11   O     O_R   0.953220 0.285790 0.047790 -0.522004
O12   O     O_R   0.046780 0.785790 0.952210 -0.526908
O13   O     O_R   0.939020 0.617570 0.916840 -0.530264
O14   O     O_R   0.060980 0.117570 0.083160 -0.526315
C61   C     C_R   0.924147 0.448912 0.892245 0.752451
C62   C     C_R   0.075334 0.946735 0.108108 0.759827
O15   O     O_R   0.946600 0.615450 0.045180 -0.532447
O16   O     O_R   0.053400 0.115450 0.954820 -0.530435
O17   O     O_R   0.054370 0.786770 0.081410 -0.527361
O18   O     O_R   0.945630 0.286770 0.918590 -0.524577
C63   C     C_R   0.934058 0.447522 0.061287 0.751163
C64   C     C_R   0.066106 0.947266 0.939247 0.762525
O19   O     O_3   0.035300 0.454160 0.011680 -0.378305
O20   O     O_3   0.964700 0.954160 0.988320 -0.378267
V3    V     V_3+5 0.993450 0.728620 0.997830 1.528175
V4    V     V_3+5 0.006550 0.228620 0.002170 1.531587
Br1   Br    Br    0.019586 0.803398 0.205553 -0.494825
Br2   Br    Br    0.979680 0.474379 0.786768 -0.483635
C65   C     C_3   0.266778 0.864389 0.929044 -0.346029
C66   C     C_3   0.298708 0.046942 0.946846 -0.733324
H21   H     H_    0.286706 0.141688 0.904292 0.244410
H22   H     H_    0.289402 0.114557 0.987022 0.231575
H23   H     H_    0.345463 0.020287 0.962899 0.213939
H24   H     H_    0.276856 0.771273 0.971707 0.163141
H25   H     H_    0.284976 0.789391 0.897028 0.198191
C67   C     C_3   0.753574 0.627876 0.109737 -0.383876
C68   C     C_3   0.765143 0.827668 0.132609 -0.655392
H26   H     H_    0.787901 0.831962 0.185622 0.266065
H27   H     H_    0.791613 0.899297 0.108362 0.212854
H28   H     H_    0.724002 0.903721 0.121137 0.218567
H29   H     H_    0.727880 0.627564 0.057592 0.184897
H30   H     H_    0.725026 0.563856 0.132878 0.188071
C69   C     C_3   0.190532 0.951793 0.007308 -0.366530
C70   C     C_3   0.191956 0.157328 0.024306 -0.750637
H31   H     H_    0.203208 0.244169 0.988754 0.237971
H32   H     H_    0.150073 0.204080 0.025661 0.235872
H33   H     H_    0.224283 0.181124 0.072813 0.199721
H34   H     H_    0.164955 0.874622 0.031448 0.143450
H35   H     H_    0.234242 0.895585 0.029466 0.184734
C71   C     C_3   0.815639 0.611082 0.015356 -0.348204
C72   C     C_3   0.775346 0.475642 0.969215 -0.826819
H36   H     H_    0.800104 0.356170 0.961148 0.216490
H37   H     H_    0.742642 0.422271 0.988366 0.234232
H38   H     H_    0.753180 0.547989 0.922662 0.226042
H39   H     H_    0.792640 0.741383 0.016790 0.189243
H40   H     H_    0.847738 0.652622 0.993830 0.181523
C73   C     C_3   0.358421 0.194800 0.559642 -0.359052
C74   C     C_3   0.329707 0.170734 0.486779 -0.676556
H41   H     H_    0.354188 0.073878 0.467539 0.218984
H42   H     H_    0.285553 0.117899 0.475498 0.213893
H43   H     H_    0.327476 0.306347 0.462034 0.211682
H44   H     H_    0.334642 0.306661 0.574028 0.166645
H45   H     H_    0.402326 0.249318 0.571876 0.197644
C75   C     C_3   0.635438 0.706341 0.433797 -0.353814
C76   C     C_3   0.663277 0.704020 0.507255 -0.674513
H46   H     H_    0.638497 0.618727 0.529788 0.228828
H47   H     H_    0.707786 0.650395 0.521729 0.207926
H48   H     H_    0.664479 0.846953 0.525755 0.211740
H49   H     H_    0.656962 0.817646 0.415988 0.163236
H50   H     H_    0.590175 0.751880 0.418328 0.193785
C77   C     C_3   0.121013 0.729174 0.338242 -0.325558
C78   C     C_3   0.112826 0.882459 0.381531 -0.686175
H51   H     H_    0.153370 0.958074 0.404688 0.213065
H52   H     H_    0.079530 0.981765 0.352633 0.267574
H53   H     H_    0.098899 0.821545 0.419999 0.222604
H54   H     H_    0.080468 0.652336 0.318054 0.243527
H55   H     H_    0.150925 0.621937 0.367461 0.165821
C79   C     C_3   0.879668 0.411139 0.651733 -0.320828
C80   C     C_3   0.873528 0.601384 0.619466 -0.693627
H56   H     H_    0.828277 0.648579 0.602120 0.211936
H57   H     H_    0.899978 0.703838 0.654250 0.270998
H58   H     H_    0.888350 0.594513 0.577473 0.224409
H59   H     H_    0.924907 0.366282 0.666122 0.243020
H60   H     H_    0.856857 0.305139 0.616179 0.166792
Br3   Br    Br    0.002611 0.968479 0.788618 -0.486810
Br4   Br    Br    0.997527 0.279157 0.200279 -0.492687

loop_
_geom_bond_atom_site_label_1
_geom_bond_atom_site_label_2
_ccdc_geom_bond_type
C40   C42   A    
C61   O18   A    
C37   C39   A    
C67   C68   S    
C9    C31   A    
C51   C53   A    
C76   H47   S    
N3    C45   A    
C80   H56   S    
O12   C64   A    
C73   C74   S    
O1    C3    A    
C74   H43   S    
O2    C4    A    
C70   H33   S    
O14   C62   A    
O20   V3    S    
C65   H24   S    
O5    C3    A    
N4    C46   A    
C37   C47   S    
C41   C69   S    
C11   H9    S    
C72   H37   S    
O14   V4    S    
C43   C64   S    
C57   C59   A    
C33   C35   A    
C13   C15   A    
C34   C36   A    
C2    C53   S    
C15   C19   A    
C36   H14   S    
O12   V3    S    
H1    C23   S    
C7    C29   A    
C25   H11   S    
C52   C54   A    
C13   H7    S    
C20   C28   A    
C26   H12   S    
C58   H20   S    
C30   Br2   S    
C16   C18   A    
C20   C22   A    
C77   H54   S    
C66   H23   S    
C56   C75   S    
O19   V4    S    
O5    V1    S    
C69   H34   S    
C55   C57   A    
C49   C59   A    
C76   H48   S    
C80   H57   S    
C7    C62   S    
C18   C32   A    
C2    O7    A    
C12   H10   S    
C54   C56   A    
C12   C14   A    
C66   H22   S    
C77   C78   S    
C78   H52   S    
N5    N7    A    
C10   H6    S    
C79   H59   S    
C23   C25   A    
C8    C30   A    
C35   H13   S    
C16   C20   A    
C33   Br3   S    
C50   C60   A    
C74   H41   S    
N2    N4    A    
C72   H38   S    
C71   H40   S    
N7    C47   A    
C6    C79   S    
C34   C44   A    
C70   H32   S    
C39   C41   A    
O16   C64   A    
C41   C43   A    
C38   C40   A    
O4    V2    S    
C79   H60   S    
C68   H27   S    
C75   H50   S    
O13   V3    S    
C6    C30   A    
C53   C55   A    
C78   H53   S    
H2    C24   S    
C67   H30   S    
O6    C4    A    
C38   C48   S    
C45   C59   S    
C27   H3    S    
O13   C61   A    
O1    V2    S    
C28   H4    S    
C71   C72   S    
C56   C58   A    
O2    V1    S    
C45   N5    A    
O15   V3    S    
C75   C76   S    
C77   H55   S    
C5    C77   S    
C29   Br1   S    
C7    C27   A    
C74   H42   S    
N8    C48   A    
C79   C80   S    
C49   H15   S    
C52   H18   S    
C69   H35   S    
C51   H17   S    
C69   C70   S    
C80   H58   S    
C42   C71   S    
O4    C2    A    
C11   C13   A    
C68   H26   S    
O18   V4    S    
C76   H46   S    
C18   C26   A    
O3    V1    S    
C66   H21   S    
C65   H25   S    
N1    N3    A    
C78   H51   S    
O11   V4    S    
C21   C23   A    
O15   C63   A    
C34   Br4   S    
C50   C52   A    
C46   N6    A    
C4    C31   S    
O3    C1    A    
C49   C51   A    
C65   C66   S    
C57   H19   S    
C70   H31   S    
C46   C60   S    
C8    C61   S    
C71   H39   S    
C35   C37   A    
C36   C38   A    
C19   C27   A    
O16   V4    S    
C14   C16   A    
C73   H44   S    
O7    V1    S    
C68   H28   S    
C10   C32   A    
C75   H49   S    
C15   C17   A    
O8    V2    S    
C72   H36   S    
C24   C26   A    
C14   H8    S    
C10   C12   A    
C8    C28   A    
C67   H29   S    
O11   C63   A    
C58   C60   A    
C22   C24   A    
C19   C21   A    
C17   C25   A    
C55   C73   S    
N6    N8    A    
C9    C11   A    
C73   H45   S    
C39   C65   S    
C1    C54   S    
C9    H5    S    
C44   C63   S    
O17   V3    S    
C40   C67   S    
C1    O8    A    
O6    V2    S    
C17   C31   A    
O9    V2    S    
C5    C29   A    
C42   C44   A    
O10   V1    S    
C50   H16   S    
C3    C32   S    
C5    C21   A    
C33   C43   A    
C6    C22   A    
N2    C48   A    
N1    C47   A    
C62   O17   A    
