data_mof_unit_53805.cif
_audit_creation_date              2012-12-11T14:19:01-0500
_audit_creation_method            fapswitch 2.2
_symmetry_space_group_name_H-M    P1
_symmetry_Int_Tables_number       1
_space_group_crystal_system       triclinic
_cell_length_a                    29.568045
_cell_length_b                    17.264991
_cell_length_c                    19.06008
_cell_angle_alpha                 90.15771
_cell_angle_beta                  138.957529
_cell_angle_gamma                 90.2248
_cell_volume                      6388.61744344

loop_
_atom_site_label
_atom_site_type_symbol
_atom_type_description
_atom_site_fract_x
_atom_site_fract_y
_atom_site_fract_z
_atom_type_partial_charge
C1    C     C_R   0.183714 0.399870 0.800905 -0.164777
C2    C     C_R   0.108802 0.363064 0.444481 0.053256
C3    C     C_R   0.404265 0.818158 0.280902 0.130825
C4    C     C_R   0.168900 0.324298 0.802435 -0.127606
C5    C     C_R   0.848178 0.347533 0.179479 -0.009014
C6    C     C_R   0.667553 0.823796 0.799954 -0.132326
C7    C     C_R   0.348073 0.847073 0.179510 -0.014497
C8    C     C_3   0.795492 0.232639 0.891616 -0.454002
C9    C     C_3   0.823311 0.309574 0.894883 -0.207891
C10   C     C_3   0.835351 0.305271 0.830173 -0.958875
C11   C     C_3   0.242837 0.078857 0.954472 -0.422826
C12   C     C_3   0.228048 0.036615 0.867857 -0.308928
C13   C     C_R   0.395122 0.867194 0.562035 0.034795
C14   C     C_3   0.182528 0.965065 0.827634 -0.796902
C15   C     C_3   0.296380 0.735383 0.890882 -0.454802
C16   C     C_3   0.327931 0.810519 0.898599 -0.207378
C17   C     C_3   0.340059 0.805305 0.834005 -0.959436
C18   C     C_3   0.770477 0.585924 0.969089 -0.476598
C19   C     C_3   0.693195 0.567974 0.887198 -0.195362
C20   C     C_3   0.676992 0.481597 0.863291 -0.820175
C21   C     C_3   0.188448 0.465332 0.430207 -0.339842
C22   C     C_3   0.182844 0.500440 0.350017 -0.333297
C23   C     C_3   0.190617 0.588538 0.361832 -0.866467
C24   C     C_R   0.609497 0.862379 0.445750 0.048795
C25   C     C_3   0.814912 0.465446 0.578795 -0.330557
C26   C     C_3   0.819385 0.496117 0.659547 -0.336550
C27   C     C_3   0.811772 0.584067 0.652666 -0.872771
C28   C     C_3   0.688736 0.965109 0.430878 -0.339167
C29   C     C_3   0.682970 0.000255 0.350527 -0.334164
C30   C     C_3   0.690635 0.088365 0.362261 -0.862243
C31   C     C_3   0.314404 0.964313 0.578253 -0.330187
C32   C     C_3   0.318394 0.994054 0.658775 -0.336238
C33   C     C_3   0.310677 0.081958 0.652641 -0.872547
C34   C     C_3   0.938125 0.773863 0.509482 -0.477901
C35   C     C_R   0.168206 0.675443 0.811500 -0.130125
C36   C     C_3   0.880378 0.811593 0.398753 -0.213716
C37   C     C_3   0.904025 0.887397 0.392790 -0.942087
C38   C     C_3   0.060634 0.774082 0.478268 -0.474834
C39   C     C_3   0.117465 0.822909 0.580381 -0.222210
C40   C     C_3   0.095239 0.907061 0.563026 -0.954345
C41   C     C_3   0.438344 0.273792 0.510352 -0.492101
C42   C     C_3   0.381155 0.311116 0.399252 -0.206116
C43   C     C_3   0.404274 0.388250 0.394819 -0.937179
C44   C     C_3   0.561595 0.273876 0.482720 -0.483413
C45   C     C_3   0.619291 0.317453 0.589693 -0.218057
C46   C     C_R   0.849784 0.657550 0.182131 -0.139654
C47   C     C_3   0.594312 0.394036 0.590781 -0.954111
C48   C     C_3   0.072536 0.227511 0.657495 -0.461152
C49   C     C_3   0.096940 0.193563 0.615842 -0.255203
C50   C     C_3   0.069466 0.111421 0.572170 -0.946626
C51   C     C_3   0.915099 0.233655 0.311207 -0.503311
C52   C     C_3   0.849612 0.196929 0.266083 -0.201198
C53   C     C_3   0.861537 0.113777 0.303681 -0.920646
C54   C     C_3   0.570935 0.728403 0.653558 -0.471610
C55   C     C_3   0.605978 0.689370 0.631515 -0.257772
C56   C     C_3   0.574440 0.610007 0.578239 -0.936291
C57   C     C_R   0.667624 0.173076 0.813656 -0.142780
C58   C     C_3   0.417056 0.733875 0.311713 -0.504228
C59   C     C_3   0.353881 0.696448 0.273098 -0.203384
C60   C     C_3   0.367826 0.613183 0.311518 -0.924823
C61   C     C_R   0.352033 0.151622 0.179044 -0.102436
C62   C     C_2   0.832424 0.260791 0.061778 -0.166685
C63   C     C_2   0.241056 0.213733 0.899408 -0.159662
C64   C     C_2   0.332233 0.762303 0.060710 -0.150714
C65   C     C_R   0.827667 0.414250 0.190276 -0.210355
C66   C     C_2   0.750406 0.725710 0.911232 -0.218104
C67   C     C_2   0.832911 0.332545 0.087440 0.507881
C68   C     C_2   0.209852 0.274035 0.893162 0.547510
C69   C     C_2   0.335373 0.834017 0.089618 0.509621
C70   C     C_2   0.705660 0.773764 0.888516 0.577369
C71   C     C_2   0.278468 0.743807 0.947250 0.178595
C72   C     C_2   0.784856 0.671391 0.997013 0.103529
C73   C     C_2   0.778353 0.240011 0.949180 0.187863
C74   C     C_2   0.276331 0.157873 0.984856 0.092969
C75   C     C_2   0.216118 0.727793 0.902578 0.434024
C76   C     C_R   0.683560 0.899066 0.800082 -0.156024
C77   C     C_2   0.819613 0.703264 0.091801 0.579648
C78   C     C_2   0.716186 0.224423 0.905456 0.456838
C79   C     C_2   0.325662 0.188688 0.084450 0.542190
C80   C     C_R   0.124877 0.339721 0.390059 -0.028553
C81   C     C_R   0.879416 0.343307 0.616807 -0.027499
C82   C     C_R   0.625405 0.839330 0.391052 -0.026982
C83   C     C_R   0.379231 0.842559 0.616205 -0.027418
C84   C     C_R   0.810222 0.729700 0.458450 0.109162
C85   C     C_R   0.187730 0.723159 0.528962 0.102506
C86   C     C_R   0.310160 0.229629 0.458588 0.108840
C87   C     C_R   0.327163 0.913485 0.190253 -0.213915
C88   C     C_R   0.688100 0.224740 0.531132 0.105812
C89   C     C_R   0.792967 0.849505 0.502177 -0.186015
C90   C     C_R   0.207121 0.843961 0.490205 -0.183777
C91   C     C_R   0.292693 0.349598 0.501813 -0.185813
C92   C     C_R   0.707823 0.346004 0.493459 -0.186356
C93   C     C_R   0.839099 0.601267 0.434921 -0.198763
C94   C     C_R   0.159414 0.599093 0.560262 -0.223352
C95   C     C_R   0.339129 0.101209 0.435054 -0.197273
C96   C     C_R   0.659586 0.099640 0.560871 -0.223762
C97   C     C_R   0.836669 0.796950 0.521427 -0.187124
C98   C     C_R   0.856020 0.676446 0.474221 0.022135
C99   C     C_R   0.162285 0.790078 0.467043 -0.180408
C100  C     C_R   0.336483 0.296972 0.521368 -0.184286
C101  C     C_R   0.662904 0.292343 0.470496 -0.188664
C102  C     C_R   0.739891 0.712086 0.382799 -0.207699
C103  C     C_R   0.257473 0.704746 0.602325 -0.234915
C104  C     C_R   0.239819 0.211977 0.382915 -0.207773
C105  C     C_R   0.757593 0.205781 0.603215 -0.234564
C106  C     C_R   0.697645 0.759358 0.373420 0.116658
C107  C     C_R   0.301169 0.754097 0.616710 0.122313
C108  C     C_R   0.197466 0.259348 0.373248 0.116763
C109  C     C_R   0.142540 0.672833 0.518521 0.031413
C110  C     C_R   0.801329 0.255155 0.617684 0.124554
C111  C     C_R   0.222920 0.330704 0.428847 0.114285
C112  C     C_R   0.777632 0.328015 0.567638 0.117690
C113  C     C_R   0.723208 0.830599 0.429305 0.113891
C114  C     C_R   0.277139 0.826605 0.565741 0.114629
C115  C     C_R   0.179436 0.377393 0.418162 0.043100
C116  C     C_R   0.823311 0.377747 0.586033 0.046639
C117  C     C_R   0.679834 0.877157 0.418949 0.042823
C118  C     C_R   0.322851 0.876664 0.584794 0.048070
C119  C     C_R   0.094920 0.272791 0.323989 0.519137
C120  C     C_R   0.356062 0.176347 0.474522 0.021542
C121  C     C_R   0.907307 0.274485 0.677565 0.525528
C122  C     C_R   0.595248 0.772645 0.324535 0.519265
C123  C     C_R   0.407528 0.774199 0.677837 0.524303
C124  C     C_R   0.130897 0.234750 0.312518 -0.406366
C125  C     C_R   0.868385 0.232294 0.680835 -0.410640
C126  C     C_R   0.631074 0.734776 0.312695 -0.406453
C127  C     C_R   0.368562 0.731787 0.680914 -0.408691
C128  C     C_R   0.946822 0.340105 0.578951 -0.216341
C129  C     C_R   0.057515 0.333931 0.428501 -0.247796
C130  C     C_R   0.446055 0.838515 0.577356 -0.217292
C131  C     C_R   0.642705 0.173662 0.519554 0.035110
C132  C     C_R   0.558374 0.832989 0.430013 -0.239852
C133  C     C_R   0.100149 0.690501 0.717289 -0.270984
C134  C     C_R   0.912721 0.676765 0.281524 -0.276278
C135  C     C_R   0.599854 0.189324 0.718755 -0.263427
C136  C     C_R   0.414409 0.172913 0.280139 -0.257046
C137  C     C_R   0.856751 0.417768 0.476002 0.460863
C138  C     C_R   0.145702 0.415491 0.528768 0.452231
C139  C     C_R   0.356745 0.917534 0.475935 0.460070
C140  C     C_R   0.645992 0.915299 0.529357 0.451345
C141  C     C_R   0.183486 0.603904 0.801447 0.504522
C142  C     C_R   0.895416 0.368159 0.562787 0.033092
C143  C     C_R   0.823369 0.597561 0.192146 0.473121
C144  C     C_R   0.682969 0.102234 0.802659 0.502816
C145  C     C_R   0.324403 0.095080 0.191301 0.445791
C146  C     C_R   0.917606 0.694454 0.511882 0.161341
C147  C     C_R   0.082765 0.692871 0.485299 0.155485
C148  C     C_R   0.417679 0.194352 0.512230 0.165550
C149  C     C_R   0.582584 0.193151 0.485537 0.152646
C150  C     C_R   0.102302 0.307790 0.706234 0.163419
C151  C     C_R   0.903870 0.317947 0.280777 0.123360
C152  C     C_R   0.601429 0.807779 0.704471 0.159109
H1    H     H_    0.233732 0.427291 0.861629 0.158322
H2    H     H_    0.388255 0.678044 0.724942 0.146477
H3    H     H_    0.264593 0.981770 0.496580 0.222581
H4    H     H_    0.018688 0.198726 0.229342 0.316636
H5    H     H_    0.982103 0.200012 0.768931 0.322421
H6    H     H_    0.518784 0.698913 0.229355 0.316764
H7    H     H_    0.483097 0.700852 0.771052 0.322031
H8    H     H_    0.769428 0.448559 0.336829 0.305998
H9    H     H_    0.231641 0.449350 0.668971 0.303936
H10   H     H_    0.269497 0.948671 0.336888 0.306027
H11   H     H_    0.731615 0.950005 0.669284 0.302974
H12   H     H_    0.245602 0.540120 0.822796 0.296619
H13   H     H_    0.110040 0.181897 0.265368 0.147563
H14   H     H_    0.750352 0.548094 0.157530 0.304579
H15   H     H_    0.745635 0.039584 0.824190 0.295633
H16   H     H_    0.250822 0.050332 0.158984 0.309200
H17   H     H_    0.926381 0.927097 0.459051 0.269373
H18   H     H_    0.942658 0.876017 0.396535 0.268014
H19   H     H_    0.859307 0.916207 0.315699 0.262708
H20   H     H_    0.862798 0.771252 0.336218 0.207624
H21   H     H_    0.835476 0.824494 0.379991 0.211353
H22   H     H_    0.982902 0.767121 0.527550 0.195754
H23   H     H_    0.955713 0.812261 0.573102 0.177237
H24   H     H_    0.887791 0.178216 0.724106 0.146446
H25   H     H_    0.070785 0.928886 0.485723 0.272441
H26   H     H_    0.058648 0.912364 0.564656 0.272843
H27   H     H_    0.140913 0.944286 0.627099 0.256189
H28   H     H_    0.129804 0.798433 0.647040 0.192856
H29   H     H_    0.165514 0.822785 0.605590 0.207721
H30   H     H_    0.017311 0.769970 0.464228 0.193528
H31   H     H_    0.039952 0.803940 0.407475 0.180924
H32   H     H_    0.424450 0.427621 0.459952 0.269125
H33   H     H_    0.444503 0.378845 0.401600 0.268019
H34   H     H_    0.359776 0.416425 0.316989 0.261826
H35   H     H_    0.891160 0.808674 0.587385 0.127609
H36   H     H_    0.365672 0.271325 0.337898 0.211689
H37   H     H_    0.335020 0.322079 0.377900 0.210351
H38   H     H_    0.483695 0.267153 0.529957 0.197186
H39   H     H_    0.455200 0.312325 0.573287 0.178061
H40   H     H_    0.568554 0.428850 0.519523 0.274502
H41   H     H_    0.558146 0.383406 0.592537 0.269853
H42   H     H_    0.638984 0.427794 0.663270 0.254857
H43   H     H_    0.639237 0.281265 0.656286 0.200600
H44   H     H_    0.662787 0.330435 0.604893 0.206700
H45   H     H_    0.516743 0.268433 0.464855 0.200073
H46   H     H_    0.108039 0.801657 0.401080 0.132574
H47   H     H_    0.543037 0.308029 0.415976 0.177821
H48   H     H_    0.082608 0.073730 0.632443 0.271670
H49   H     H_    0.012835 0.111740 0.499765 0.272614
H50   H     H_    0.092321 0.086891 0.550397 0.262888
H51   H     H_    0.078687 0.229896 0.551014 0.210078
H52   H     H_    0.153509 0.192682 0.678512 0.193051
H53   H     H_    0.086739 0.188464 0.717957 0.208281
H54   H     H_    0.015638 0.229461 0.588121 0.195697
H55   H     H_    0.884072 0.078942 0.286816 0.272504
H56   H     H_    0.896342 0.113069 0.390569 0.258546
H57   H     H_    0.390954 0.308643 0.587624 0.127069
H58   H     H_    0.811687 0.086915 0.260979 0.256713
H59   H     H_    0.832547 0.231556 0.292146 0.207464
H60   H     H_    0.807385 0.196835 0.177399 0.226307
H61   H     H_    0.932887 0.200748 0.285521 0.202602
H62   H     H_    0.956557 0.230443 0.399541 0.208546
H63   H     H_    0.573319 0.572862 0.624359 0.269697
H64   H     H_    0.521383 0.616171 0.495944 0.270257
H65   H     H_    0.605593 0.580860 0.573694 0.259136
H66   H     H_    0.601356 0.726521 0.579050 0.213413
H67   H     H_    0.661370 0.681330 0.706620 0.194345
H68   H     H_    0.608712 0.304343 0.405081 0.134277
H69   H     H_    0.575348 0.691788 0.706283 0.201770
H70   H     H_    0.515513 0.733748 0.575861 0.198406
H71   H     H_    0.386785 0.578684 0.288485 0.271205
H72   H     H_    0.406382 0.612234 0.399605 0.262328
H73   H     H_    0.319472 0.586117 0.274594 0.256211
H74   H     H_    0.339528 0.730506 0.303645 0.207188
H75   H     H_    0.309366 0.696458 0.184400 0.222111
H76   H     H_    0.431865 0.701565 0.281111 0.202648
H77   H     H_    0.461148 0.730602 0.400086 0.205558
H78   H     H_    0.717973 0.660069 0.334362 0.122352
H79   H     H_    0.278728 0.652400 0.648794 0.130039
H80   H     H_    0.217965 0.159866 0.334670 0.122250
H81   H     H_    0.784554 0.449288 0.125737 0.169143
H82   H     H_    0.778632 0.152905 0.648564 0.129224
H83   H     H_    0.790011 0.573253 0.384445 0.142889
H84   H     H_    0.207403 0.570340 0.607973 0.148233
H85   H     H_    0.290027 0.073218 0.384515 0.142480
H86   H     H_    0.707723 0.071114 0.608962 0.147355
H87   H     H_    0.987511 0.302686 0.641798 0.204694
H88   H     H_    0.023326 0.287100 0.377028 0.202926
H89   H     H_    0.485156 0.798299 0.636984 0.203302
H90   H     H_    0.524886 0.785571 0.379528 0.203151
H91   H     H_    0.074468 0.744417 0.697277 0.140665
H92   H     H_    0.733819 0.925871 0.861427 0.158820
H93   H     H_    0.945302 0.722409 0.300666 0.151314
H94   H     H_    0.574495 0.243346 0.699542 0.144443
H95   H     H_    0.449503 0.215187 0.300185 0.147310
H96   H     H_    0.850591 0.213030 0.113949 0.101451
H97   H     H_    0.243452 0.206962 0.845889 0.071598
H98   H     H_    0.345967 0.713860 0.109355 0.098974
H99   H     H_    0.761203 0.726037 0.867946 0.081729
H100  H     H_    0.839669 0.437834 0.066769 0.303228
H101  H     H_    0.180800 0.328052 0.943568 0.324089
H102  H     H_    0.344271 0.941614 0.076055 0.304669
H103  H     H_    0.283215 0.947711 0.125468 0.166071
H104  H     H_    0.652594 0.806095 0.908007 0.327735
H105  H     H_    0.868557 0.255350 0.855492 0.277317
H106  H     H_    0.785155 0.299540 0.744374 0.266904
H107  H     H_    0.860792 0.359430 0.841655 0.254662
H108  H     H_    0.785634 0.356379 0.861092 0.232562
H109  H     H_    0.872956 0.324692 0.978887 0.231890
H110  H     H_    0.835114 0.187176 0.931180 0.224844
H111  H     H_    0.749462 0.215543 0.806614 0.189355
H112  H     H_    0.197400 0.934703 0.893932 0.299762
H113  H     H_    0.127797 0.982223 0.768700 0.230959
H114  H     H_    0.314998 0.401400 0.550861 0.137972
H115  H     H_    0.187608 0.923511 0.789610 0.245546
H116  H     H_    0.201510 0.074879 0.799121 0.206628
H117  H     H_    0.277513 0.018671 0.901548 0.223055
H118  H     H_    0.276488 0.040286 0.023810 0.200904
H119  H     H_    0.193700 0.086664 0.926036 0.253599
H120  H     H_    0.371309 0.753699 0.857364 0.277397
H121  H     H_    0.289847 0.801927 0.747846 0.266140
H122  H     H_    0.367720 0.858068 0.848044 0.255310
H123  H     H_    0.292630 0.859594 0.867342 0.232458
H124  H     H_    0.378068 0.822641 0.983434 0.235530
H125  H     H_    0.686639 0.398728 0.447531 0.140888
H126  H     H_    0.334088 0.687817 0.928799 0.228311
H127  H     H_    0.249888 0.720780 0.804928 0.191301
H128  H     H_    0.699082 0.456885 0.840377 0.276487
H129  H     H_    0.697885 0.450948 0.934014 0.294170
H130  H     H_    0.620300 0.472517 0.795946 0.223998
H131  H     H_    0.674303 0.590264 0.916250 0.258452
H132  H     H_    0.664474 0.597534 0.811559 0.190606
H133  H     H_    0.787219 0.569564 0.934917 0.191875
H134  H     H_    0.800117 0.550776 0.040770 0.196506
H135  H     H_    0.155542 0.731800 0.913154 0.323463
H136  H     H_    0.815317 0.901259 0.551321 0.138063
H137  H     H_    0.846091 0.799899 0.170252 0.322731
H138  H     H_    0.656333 0.228418 0.917394 0.322390
H139  H     H_    0.367547 0.288714 0.157497 0.323524
H140  H     H_    0.149646 0.614151 0.347138 0.262757
H141  H     H_    0.241803 0.605091 0.443435 0.263814
H142  H     H_    0.186223 0.612542 0.302912 0.253342
H143  H     H_    0.223608 0.476971 0.362942 0.213403
H144  H     H_    0.131846 0.485287 0.267302 0.212222
H145  H     H_    0.147422 0.492269 0.414416 0.197379
H146  H     H_    0.238920 0.481745 0.512532 0.222625
H147  H     H_    0.185839 0.896366 0.443612 0.140342
H148  H     H_    0.853398 0.612377 0.670412 0.263326
H149  H     H_    0.761024 0.601041 0.571511 0.262630
H150  H     H_    0.815202 0.604761 0.711788 0.250638
H151  H     H_    0.778038 0.469764 0.643876 0.212313
H152  H     H_    0.869965 0.480456 0.741808 0.211041
H153  H     H_    0.856571 0.494415 0.597099 0.196897
H154  H     H_    0.764995 0.482657 0.497078 0.222752
H155  H     H_    0.649685 0.113888 0.347678 0.263683
H156  H     H_    0.741833 0.104985 0.443809 0.262841
H157  H     H_    0.686126 0.112402 0.303229 0.253720
H158  H     H_    0.610106 0.682063 0.265252 0.147981
H159  H     H_    0.723710 0.976881 0.363344 0.213398
H160  H     H_    0.631954 0.985036 0.267866 0.213320
H161  H     H_    0.647721 0.991971 0.415163 0.198519
H162  H     H_    0.739233 0.981579 0.513144 0.222397
H163  H     H_    0.352463 0.110711 0.671134 0.263787
H164  H     H_    0.260042 0.099142 0.571486 0.262235
H165  H     H_    0.313746 0.101945 0.711575 0.250852
H166  H     H_    0.276866 0.967237 0.642356 0.212872
H167  H     H_    0.368847 0.978162 0.741043 0.211402
H168  H     H_    0.356227 0.993622 0.597238 0.196824
N1    N     N_R   0.126390 0.429310 0.705280 -0.053454
N2    N     N_R   0.059390 0.372370 0.492190 -0.074649
N3    N     N_R   0.440610 0.872370 0.507810 -0.074190
N4    N     N_R   0.559390 0.872370 0.492190 -0.073117
N5    N     N_R   0.075190 0.630500 0.650860 -0.051370
N6    N     N_R   0.924810 0.630500 0.349140 -0.050811
N7    N     N_R   0.575190 0.130500 0.650860 -0.051983
N8    N     N_R   0.424810 0.130500 0.349140 -0.054470
N9    N     N_R   0.889410 0.427540 0.453390 -0.096129
N10   N     N_R   0.110590 0.427540 0.546610 -0.095111
N11   N     N_R   0.389410 0.927540 0.453390 -0.095971
N12   N     N_R   0.873610 0.429310 0.294720 -0.057227
N13   N     N_R   0.610590 0.927540 0.546610 -0.095933
N14   N     N_R   0.126390 0.575330 0.705280 -0.090275
N15   N     N_R   0.873610 0.575330 0.294720 -0.090914
N16   N     N_R   0.626390 0.075330 0.705280 -0.090340
N17   N     N_R   0.373610 0.075330 0.294720 -0.087705
N18   N     N_R   0.940610 0.629500 0.507810 -0.052462
N19   N     N_R   0.059390 0.629500 0.492190 -0.052297
N20   N     N_R   0.440610 0.129500 0.507810 -0.052725
N21   N     N_R   0.559390 0.129500 0.492190 -0.052480
N22   N     N_R   0.075190 0.373370 0.650860 -0.048391
N23   N     N_R   0.626390 0.929310 0.705280 -0.053955
N24   N     N_R   0.924810 0.373370 0.349140 -0.045886
N25   N     N_R   0.575190 0.873370 0.650860 -0.048086
N26   N     N_R   0.424810 0.873370 0.349140 -0.046277
N27   N     N_R   0.373610 0.929310 0.294720 -0.056886
N28   N     N_R   0.889410 0.573560 0.453390 -0.058494
N29   N     N_R   0.110590 0.573560 0.546610 -0.059349
N30   N     N_R   0.389410 0.073560 0.453390 -0.058204
N31   N     N_R   0.610590 0.073560 0.546610 -0.059042
N32   N     N_R   0.940610 0.372370 0.507810 -0.073035
Ni1   Ni    Ni4+2 0.118300 0.501760 0.624810 0.186992
Ni2   Ni    Ni4+2 0.881700 0.501760 0.375190 0.188152
Ni3   Ni    Ni4+2 0.618300 0.001760 0.624810 0.185752
Ni4   Ni    Ni4+2 0.381700 0.001760 0.375190 0.189033
Ni5   Ni    Ni4+2 0.000000 0.373470 0.500000 0.190010
Ni6   Ni    Ni4+2 0.500000 0.873470 0.500000 0.190607
Ni7   Ni    Ni4+2 0.000000 0.628290 0.500000 0.192694
Ni8   Ni    Ni4+2 0.500000 0.128290 0.500000 0.193336
O1    O     O_3   0.812496 0.391854 0.020561 -0.796536
O2    O     O_3   0.971165 0.248788 0.731306 -0.782224
O3    O     O_3   0.531892 0.745356 0.272549 -0.797947
O4    O     O_3   0.471903 0.749415 0.732910 -0.784773
O5    O     O_3   0.788049 0.433105 0.404918 -0.798569
O6    O     O_3   0.215005 0.430623 0.603205 -0.797747
O7    O     O_3   0.288076 0.933045 0.404897 -0.799637
O8    O     O_3   0.715210 0.930972 0.603808 -0.798333
O9    O     O_3   0.248571 0.575794 0.866980 -0.796735
O10   O     O_3   0.754683 0.579797 0.119478 -0.774141
O11   O     O_3   0.748029 0.073744 0.868792 -0.794877
O12   O     O_3   0.208239 0.281661 0.963648 -0.734888
O13   O     O_3   0.255339 0.080305 0.120153 -0.780270
O14   O     O_3   0.321488 0.895037 0.029402 -0.796016
O15   O     O_3   0.687770 0.766639 0.937800 -0.732559
O16   O     O_3   0.201721 0.751763 0.953654 -0.781930
O17   O     O_3   0.832037 0.782835 0.106145 -0.756607
O18   O     O_3   0.702629 0.247865 0.957834 -0.780553
O19   O     O_3   0.352641 0.260624 0.097202 -0.759788
O20   O     O_3   0.031639 0.245362 0.272162 -0.798710

loop_
_geom_bond_atom_site_label_1
_geom_bond_atom_site_label_2
_ccdc_geom_bond_type
C105  C110  A    
N25   Ni6   S    
N15   Ni2   S    
C19   C20   S    
C5    C67   S    
C39   H28   S    
C24   C140  A    
C13   C139  A    
N4    Ni6   S    
C33   H164  S    
C130  H89   S    
C97   H35   S    
C121  O2    S    
C105  H82   S    
C30   H156  S    
C56   H63   S    
C66   H99   S    
H104  O15   S    
C66   C72   S    
C13   C130  A    
C91   C100  A    
C85   C103  A    
C16   H124  S    
C49   H52   S    
C59   C60   S    
C21   C22   S    
C135  H94   S    
C108  C124  A    
C16   H123  S    
C22   H143  S    
N7    N16   A    
N24   Ni5   S    
C55   H66   S    
N23   Ni3   S    
C50   H50   S    
C89   C113  A    
C51   C52   S    
C2    C138  A    
C77   O17   S    
C12   H117  S    
C54   C152  S    
C136  H95   S    
C81   C121  A    
C34   H22   S    
C46   C134  A    
C17   H121  S    
H16   O13   S    
N20   N30   A    
C28   H161  S    
C65   N12   A    
C14   H112  S    
C64   H98   S    
C132  H90   S    
C120  C148  A    
C74   C79   D    
C11   H118  S    
C131  C149  A    
H8    O5    S    
H100  O1    S    
C4    C150  A    
C132  N4    A    
C106  C126  A    
C57   C78   S    
C47   H41   S    
C15   H126  S    
C144  N16   A    
C11   C74   S    
C46   C77   S    
C133  N5    A    
C18   H134  S    
C63   C74   S    
C1    N1    A    
C19   H131  S    
C94   C109  A    
C3    C7    A    
C5    C151  A    
C108  C111  A    
C96   N31   A    
C140  N13   A    
C128  N32   A    
C107  C127  A    
C34   C146  S    
C66   C70   D    
H15   O11   S    
C148  N20   A    
N1    Ni1   S    
C144  O11   S    
C140  O8    S    
H5    O2    S    
C9    H108  S    
C52   H60   S    
C10   H107  S    
C57   C135  A    
C103  C107  A    
C82   C122  A    
C94   N29   A    
N7    Ni8   S    
H4    O20   S    
H102  O14   S    
C84   C102  A    
C101  H68   S    
C70   O15   S    
C86   C104  A    
N28   Ni2   S    
C139  N11   A    
C128  H87   S    
C21   H145  S    
C36   C37   S    
C146  N18   A    
C37   H17   S    
C38   C39   S    
C95   N30   A    
C43   H33   S    
N19   N29   A    
C100  H57   S    
C2    C129  A    
C95   H85   S    
C47   H40   S    
C59   H74   S    
C123  C127  A    
H11   O8    S    
C53   H58   S    
C62   C73   S    
C34   H23   S    
C29   H160  S    
N27   Ni4   S    
C23   H142  S    
C9    C10   S    
N12   N24   A    
C45   H44   S    
C90   C114  A    
C80   C119  A    
H137  O17   S    
N5    N14   A    
C109  C147  A    
C127  H2    S    
C103  H79   S    
C78   O18   S    
C36   H20   S    
C137  C142  A    
C41   H39   S    
C106  C113  A    
C25   C116  S    
C39   C40   S    
C4    C68   S    
C54   H69   S    
C55   H67   S    
C25   C26   S    
C143  N15   A    
C12   H116  S    
C31   C118  S    
C121  C125  A    
C29   C30   S    
C85   C99   A    
C62   H96   S    
C31   C32   S    
N18   Ni7   S    
C122  O3    S    
C10   H105  S    
C39   H29   S    
C64   C69   D    
C96   C131  A    
C113  C117  A    
C51   H62   S    
C81   C142  S    
N23   N25   A    
H6    O3    S    
C149  N21   A    
C139  O7    S    
C60   H71   S    
C90   C99   A    
C112  C116  A    
C59   H75   S    
C14   H115  S    
C102  H78   S    
C54   C55   S    
C57   C144  A    
C141  N14   A    
C96   H86   S    
C20   H128  S    
C37   H19   S    
C6    C76   A    
C38   H30   S    
C15   H127  S    
C33   H163  S    
C88   C105  A    
C41   C148  S    
C61   C79   S    
C81   C116  A    
C87   H103  S    
N11   Ni4   S    
C34   C36   S    
C151  N24   A    
C30   H157  S    
C110  C112  A    
H135  O16   S    
C56   H64   S    
C124  H13   S    
C36   H21   S    
C49   C50   S    
C67   O1    S    
C86   C120  S    
C88   C131  S    
N22   Ni5   S    
C79   O19   S    
N3    Ni6   S    
C55   C56   S    
C49   H51   S    
C48   C150  S    
C41   C42   S    
C21   C115  S    
C22   H144  S    
C35   C133  A    
C52   C53   S    
C26   C27   S    
N19   Ni7   S    
C26   H151  S    
C68   O12   S    
C84   C97   A    
C27   H150  S    
C65   H81   S    
C28   C29   S    
C138  O6    S    
C85   C109  S    
N31   Ni3   S    
C125  H24   S    
N12   Ni2   S    
N2    N10   A    
C53   H56   S    
C11   H119  S    
C18   C19   S    
C64   C71   S    
C61   C145  A    
N26   Ni6   S    
H9    O6    S    
C63   C68   D    
C31   H168  S    
C7    C87   A    
C32   H167  S    
C16   C17   S    
C48   H53   S    
C28   H162  S    
N10   Ni1   S    
C86   C100  A    
C14   H113  S    
C6    C152  A    
C45   C47   S    
C51   C151  S    
N2    Ni5   S    
C20   H130  S    
C93   N28   A    
C56   H65   S    
C88   C101  A    
C25   H153  S    
C22   C23   S    
C18   C72   S    
N9    Ni2   S    
C33   H165  S    
N6    Ni7   S    
C92   C112  A    
C58   C59   S    
C30   H155  S    
C107  C114  A    
C87   N27   A    
C40   H27   S    
C24   C132  A    
C80   C115  A    
C145  O13   S    
C8    H111  S    
C1    H1    S    
C92   C101  A    
C3    N26   A    
H12   O9    S    
C62   C67   D    
C48   C49   S    
C63   H97   S    
N16   Ni3   S    
C137  O5    S    
C136  N8    A    
C42   C43   S    
C123  O4    S    
C104  C108  A    
C44   C45   S    
C130  N3    A    
C50   H49   S    
C42   H36   S    
N4    N13   A    
C6    C70   S    
C25   H154  S    
N6    N15   A    
C27   H148  S    
C31   H3    S    
C95   C120  A    
C15   C71   S    
C13   C83   S    
C44   C149  S    
C32   C33   S    
C42   H37   S    
C8    C73   S    
C38   C147  S    
C54   H70   S    
C3    C58   S    
C89   H136  S    
C134  N6    A    
C29   H159  S    
C82   C117  A    
C83   C123  A    
C23   H141  S    
C61   C136  A    
C90   H147  S    
C45   H43   S    
C47   H42   S    
C17   H122  S    
N1    N22   A    
C18   H133  S    
C119  C124  A    
C93   H83   S    
C19   H132  S    
C138  N10   A    
C76   N23   A    
C35   C75   S    
C41   H38   S    
C83   C118  A    
C76   H92   S    
C145  N17   A    
C28   C117  S    
C150  N22   A    
C104  H80   S    
C15   C16   S    
C43   H32   S    
N18   N28   A    
C99   H46   S    
H101  O12   S    
C60   H73   S    
C91   C111  A    
C92   H125  S    
C24   C82   S    
C141  O9    S    
C75   O16   S    
C8    C9    S    
C9    H109  S    
C52   H59   S    
C73   C78   D    
C10   H106  S    
N13   Ni3   S    
C91   H114  S    
H7    O4    S    
C134  H93   S    
N8    N17   A    
C152  N25   A    
C51   H61   S    
C32   H166  S    
C44   H45   S    
H138  O18   S    
N32   Ni5   S    
C17   H120  S    
C60   H72   S    
N5    Ni7   S    
C135  N7    A    
H14   O10   S    
C126  H158  S    
C21   H146  S    
C5    C65   A    
C23   H140  S    
C37   H18   S    
C50   H48   S    
C98   C146  A    
C43   H34   S    
C119  O20   S    
C38   H31   S    
C40   H25   S    
C89   C97   A    
C122  C126  A    
C72   C77   D    
N30   Ni4   S    
N14   Ni1   S    
H10   O7    S    
N21   Ni8   S    
C114  C118  A    
C137  N9    A    
C35   C141  A    
C40   H26   S    
C12   C14   S    
C129  H88   S    
N20   Ni8   S    
C147  N19   A    
N3    N11   A    
C8    H110  S    
N29   Ni1   S    
C69   O14   S    
C58   H76   S    
C7    C69   S    
C11   C12   S    
C46   C143  A    
N17   Ni4   S    
C26   H152  S    
C1    C4    A    
C84   C98   S    
C27   H149  S    
H139  O19   S    
C129  N2    A    
C143  O10   S    
C58   H77   S    
C133  H91   S    
C71   C75   D    
N21   N31   A    
C94   H84   S    
N26   N27   A    
C53   H55   S    
C102  C106  A    
N8    Ni8   S    
C2    C80   S    
C110  C125  A    
C44   H47   S    
C20   H129  S    
C48   H54   S    
C111  C115  A    
N9    N32   A    
C128  C142  A    
C93   C98   A    
