data_mof_unit_7668.cif
_audit_creation_date              2012-12-11T17:25:04-0500
_audit_creation_method            fapswitch 2.2
_symmetry_space_group_name_H-M    P1
_symmetry_Int_Tables_number       1
_space_group_crystal_system       triclinic
_cell_length_a                    6.955239
_cell_length_b                    20.542617
_cell_length_c                    24.472878
_cell_angle_alpha                 90.128983
_cell_angle_beta                  90.373241
_cell_angle_gamma                 89.401747
_cell_volume                      3496.38257837

loop_
_atom_site_label
_atom_site_type_symbol
_atom_type_description
_atom_site_fract_x
_atom_site_fract_y
_atom_site_fract_z
_atom_type_partial_charge
O1    O     O_R   0.507280 0.423750 0.460310 -0.535840
O2    O     O_R   0.171030 0.555650 0.437630 -0.536632
O3    O     O_R   0.004080 0.576250 0.539690 -0.536421
C1    C     C_R   0.339081 0.575673 0.421789 0.723912
O4    O     O_R   0.177330 0.422980 0.453960 -0.537718
O5    O     O_R   0.010420 0.442640 0.556140 -0.534956
C2    C     C_R   0.346418 0.399101 0.443259 0.694753
O6    O     O_R   0.500930 0.557360 0.443860 -0.535019
O7    O     O_3   0.340310 0.506600 0.533500 -0.366706
V1    V     V_3+5 0.064140 0.498780 0.493780 1.425178
O8    O     O_R   0.680890 0.444350 0.562370 -0.537280
C3    C     C_R   0.850559 0.424407 0.578153 0.726201
O9    O     O_R   0.674590 0.577020 0.546040 -0.537189
C4    C     C_R   0.842351 0.600924 0.556811 0.691847
V2    V     V_3+5 0.564550 0.501220 0.506220 1.426043
O10   O     O_3   0.838250 0.493400 0.466500 -0.366441
C5    C     C_R   0.976169 0.838054 0.911183 -0.052963
C6    C     C_R   0.843865 0.661433 0.589457 -0.048202
C7    C     C_R   0.051150 0.723113 0.905272 -0.164008
C8    C     C_R   0.040096 0.780387 0.935611 -0.162628
C9    C     C_R   0.920048 0.837725 0.855841 -0.230839
C10   C     C_R   0.919529 0.779025 0.824643 0.086413
C11   C     C_R   0.995826 0.722248 0.850011 0.146675
C12   C     C_R   0.857387 0.775388 0.768439 -0.049881
C13   C     C_R   0.901938 0.718017 0.736869 0.021822
C14   C     C_R   0.983157 0.663778 0.764170 -0.160461
C15   C     C_R   0.023092 0.665396 0.819779 -0.198602
C16   C     C_R   0.750315 0.826259 0.742454 0.325857
C17   C     C_R   0.725863 0.826193 0.686027 -0.186846
C18   C     C_R   0.779148 0.772584 0.654349 0.054919
C19   C     C_R   0.860914 0.716414 0.679237 0.083660
C20   C     C_R   0.738250 0.773449 0.598121 -0.139411
C21   C     C_R   0.768593 0.718256 0.566191 -0.158389
C22   C     C_R   0.893346 0.660730 0.645333 -0.194442
H1    H     H_    0.083248 0.622147 0.838943 0.123810
H2    H     H_    0.947890 0.615283 0.661266 0.091802
H3    H     H_    0.727396 0.719206 0.523416 0.105279
H4    H     H_    0.650241 0.866900 0.667231 0.148667
H5    H     H_    0.107004 0.679508 0.924843 0.116122
H6    H     H_    0.086083 0.780095 0.978001 0.108479
H7    H     H_    0.888088 0.884304 0.837440 0.155944
H8    H     H_    0.017084 0.618688 0.743762 0.121293
H9    H     H_    0.675279 0.816321 0.579110 0.114092
H10   H     H_    0.619013 0.206695 0.793728 0.116315
C23   C     C_R   0.729883 0.270005 0.731637 -0.152848
H11   H     H_    0.587909 0.284927 0.717810 0.111665
C24   C     C_R   0.894218 0.295053 0.706498 0.135268
C25   C     C_R   0.076513 0.274790 0.725246 -0.152997
H12   H     H_    0.205131 0.293468 0.706404 0.112237
C26   C     C_R   0.094258 0.230163 0.768494 -0.147509
H13   H     H_    0.236232 0.215234 0.782317 0.114364
C27   C     C_R   0.929924 0.205104 0.793625 0.135593
C28   C     C_R   0.747628 0.225379 0.774887 -0.142500
C29   C     C_1   0.876257 0.341077 0.661476 -0.057335
C30   C     C_1   0.947900 0.159021 0.838600 -0.040138
C31   C     C_1   0.961124 0.120771 0.876343 -0.169170
C32   C     C_1   0.863071 0.379261 0.623682 -0.191149
H14   H     H_    0.698980 0.702419 0.296360 0.112518
C33   C     C_R   0.596703 0.767461 0.233351 -0.155188
H15   H     H_    0.740560 0.780310 0.220904 0.110968
C34   C     C_R   0.436071 0.795022 0.206663 0.135955
C35   C     C_R   0.251310 0.777261 0.223776 -0.155173
H16   H     H_    0.125244 0.797810 0.203804 0.112457
C36   C     C_R   0.227521 0.732771 0.266816 -0.155176
H17   H     H_    0.083664 0.719919 0.279260 0.110994
C37   C     C_R   0.388154 0.705209 0.293503 0.135933
C38   C     C_R   0.572914 0.722972 0.276392 -0.155178
C39   C     C_1   0.459808 0.841020 0.161748 -0.059206
C40   C     C_1   0.364418 0.659192 0.338404 -0.059130
C41   C     C_1   0.349045 0.620974 0.376145 -0.192475
C42   C     C_1   0.475188 0.879209 0.123986 -0.192279
C43   C     C_R   0.471635 0.162986 0.087525 -0.137845
C44   C     C_R   0.353557 0.338620 0.410763 -0.043001
C45   C     C_R   0.521873 0.279323 0.093374 -0.151050
C46   C     C_R   0.515043 0.222702 0.061954 0.353531
C47   C     C_R   0.434300 0.161835 0.144006 -0.259371
C48   C     C_R   0.441766 0.219400 0.176491 0.089126
C49   C     C_R   0.486988 0.278320 0.149728 0.057215
C50   C     C_R   0.408095 0.220635 0.234437 0.075370
C51   C     C_R   0.421034 0.280865 0.264231 0.055508
C52   C     C_R   0.466991 0.337743 0.235105 -0.179471
C53   C     C_R   0.498654 0.336310 0.179205 -0.177233
C54   C     C_R   0.361804 0.163770 0.263584 -0.188219
C55   C     C_R   0.328764 0.165275 0.319447 -0.202013
C56   C     C_R   0.339641 0.223308 0.348872 0.138609
C57   C     C_R   0.386600 0.282209 0.322102 0.084244
C58   C     C_R   0.301449 0.222674 0.405123 -0.158953
C59   C     C_R   0.306752 0.279884 0.435618 -0.167181
C60   C     C_R   0.394377 0.339905 0.354557 -0.213234
H18   H     H_    0.533527 0.381412 0.158760 0.124150
H19   H     H_    0.427336 0.386753 0.337540 0.093935
H20   H     H_    0.273243 0.278418 0.478774 0.108243
H21   H     H_    0.292903 0.120257 0.339873 0.124915
H22   H     H_    0.556049 0.324758 0.073336 0.138710
H23   H     H_    0.403999 0.114921 0.161324 0.112502
H24   H     H_    0.479855 0.384689 0.254298 0.120995
H25   H     H_    0.348844 0.116826 0.244392 0.124063
H26   H     H_    0.264827 0.177739 0.425527 0.115141
O11   O     O_R   0.323320 0.942780 0.056240 -0.535810
O12   O     O_R   0.647300 0.077050 0.046060 -0.535565
O13   O     O_R   0.813840 0.057330 0.943840 -0.534427
C61   C     C_R   0.478328 0.101088 0.056672 0.688209
O14   O     O_R   0.653250 0.944380 0.062400 -0.537410
O15   O     O_R   0.819830 0.923720 0.960300 -0.536128
C62   C     C_R   0.485172 0.924449 0.078301 0.722235
O16   O     O_R   0.317330 0.076390 0.039790 -0.534659
O17   O     O_3   0.483830 0.993470 0.966560 -0.366365
V3    V     V_3+5 0.760140 0.001210 0.006210 1.438353
O18   O     O_R   0.149290 0.922840 0.953850 -0.538081
C63   C     C_R   0.981213 0.899048 0.943080 0.695886
O19   O     O_R   0.143340 0.055500 0.937510 -0.537983
C64   C     C_R   0.973679 0.075549 0.921813 0.735819
V4    V     V_3+5 0.259690 0.998600 0.993650 1.437146
O20   O     O_3   0.986130 0.006520 0.033440 -0.367233
O21   O     O_3   0.552710 0.228435 0.006772 -0.643225
H27   H     H_    0.530967 0.186449 0.988015 0.278833
O22   O     O_3   0.649731 0.873446 0.770689 -0.647748
H28   H     H_    0.596065 0.852614 0.803694 0.290757

loop_
_geom_bond_atom_site_label_1
_geom_bond_atom_site_label_2
_ccdc_geom_bond_type
C13   C19   A    
O15   C63   A    
C58   C59   A    
C4    C6    S    
O2    C1    A    
C7    C8    A    
C1    O6    A    
C5    C63   S    
C1    C41   S    
C52   C53   A    
C2    C44   S    
C56   C57   A    
O13   C64   A    
C14   C15   A    
C17   C18   A    
C9    C10   A    
C16   C17   A    
C16   O22   S    
C47   H23   S    
O5    C3    A    
C18   C19   A    
C8    H6    S    
C37   C40   S    
V2    O10   S    
C5    C8    A    
V3    O20   S    
C45   H22   S    
O17   V4    S    
C35   C36   A    
C33   C38   A    
O8    V2    S    
H10   C28   S    
C24   C25   A    
C17   H4    S    
C26   C27   A    
O17   V3    S    
O14   V3    S    
O1    V2    S    
C11   C15   A    
C60   H19   S    
O7    V1    S    
C27   C30   S    
C43   C47   A    
C58   H26   S    
O13   V3    S    
C23   C24   A    
C37   C38   A    
C23   C28   A    
C33   H15   S    
O9    C4    A    
C34   C35   A    
C43   C46   A    
C48   C50   A    
O11   C62   A    
O12   V3    S    
C33   C34   A    
C45   C46   A    
C56   C58   A    
C18   C20   A    
C59   H20   S    
C55   C56   A    
C12   C13   A    
O14   C62   A    
O4    C2    A    
C52   H24   S    
O16   V4    S    
C15   H1    S    
C13   C14   A    
C48   C49   A    
C21   H3    S    
C36   C37   A    
C7    C11   A    
C44   C59   A    
O5    V1    S    
C35   H16   S    
C49   C53   A    
C54   C55   A    
C30   C31   T    
O12   C61   A    
C26   H13   S    
C19   C22   A    
O19   V4    S    
C47   C48   A    
C6    C22   A    
O3    C4    A    
C7    H5    S    
C24   C29   S    
C9    H7    S    
C3    C32   S    
C25   H12   S    
O6    V2    S    
O9    V2    S    
C45   C49   A    
C10   C12   A    
C46   O21   S    
O2    V1    S    
O15   V3    S    
C27   C28   A    
C14   H8    S    
V4    O20   S    
O19   C64   A    
O1    C2    A    
C12   C16   A    
C51   C52   A    
C57   C60   A    
O11   V4    S    
O8    C3    A    
O18   V4    S    
C51   C57   A    
C53   H18   S    
C20   C21   A    
C42   C62   S    
O7    V2    S    
C44   C60   A    
O4    V1    S    
O3    V1    S    
V1    O10   S    
O22   H28   S    
C36   H17   S    
C50   C54   A    
C34   C39   S    
C43   C61   S    
C39   C42   T    
C25   C26   A    
C20   H9    S    
C61   O16   A    
C22   H2    S    
C55   H21   S    
C40   C41   T    
C6    C21   A    
C5    C9    A    
C50   C51   A    
C23   H11   S    
H14   C38   S    
C54   H25   S    
C10   C11   A    
O18   C63   A    
C31   C64   S    
O21   H27   S    
C29   C32   T    
