data_mof_unit_38614.cif
_audit_creation_date              2012-10-26T21:05:43-0400
_audit_creation_method            fapswitch 2.2
_symmetry_space_group_name_H-M    P1
_symmetry_Int_Tables_number       1
_space_group_crystal_system       triclinic
_cell_length_a                    13.006303
_cell_length_b                    9.094311
_cell_length_c                    7.776556
_cell_angle_alpha                 90.012906
_cell_angle_beta                  96.729479
_cell_angle_gamma                 90.000487
_cell_volume                      913.499956387

loop_
_atom_site_label
_atom_site_type_symbol
_atom_type_description
_atom_site_fract_x
_atom_site_fract_y
_atom_site_fract_z
_atom_type_partial_charge
Br1   Br    Br    0.944472 0.691715 0.096806 -0.406287
Br2   Br    Br    0.055515 0.308641 0.903422 -0.406317
C1    C     C_R   0.499995 0.219994 0.499990 0.558096
C2    C     C_R   0.869296 0.409960 0.696110 0.132238
C3    C     C_R   0.135751 0.455843 0.575983 -0.111455
C4    C     C_R   0.864247 0.544336 0.424108 -0.111456
C5    C     C_R   0.028626 0.464647 0.571287 0.007247
C6    C     C_R   0.971373 0.535540 0.428804 0.007252
C7    C     C_1   0.500003 0.065365 0.499988 -0.010187
C8    C     C_1   0.499997 0.934635 0.500012 -0.010192
C9    C     C_R   0.500005 0.780006 0.500010 0.558070
C10   C     C_R   0.299976 0.507105 0.466771 0.551400
C11   C     C_R   0.700023 0.492917 0.533229 0.551408
C12   C     C_R   0.812990 0.482793 0.554518 -0.026412
C13   C     C_R   0.187007 0.517288 0.445497 -0.026432
C14   C     C_R   0.022181 0.597116 0.294351 0.203135
C15   C     C_R   0.977816 0.403057 0.705720 0.203135
C16   C     C_R   0.130696 0.590086 0.303857 0.132304
Cu1   Cu    Cu3+1 0.500010 0.500000 0.669080 1.098493
Cu2   Cu    Cu3+1 0.499990 0.500000 0.330920 1.098497
H1    H     H_    0.818690 0.599949 0.318508 0.193779
H2    H     H_    0.181304 0.400251 0.681611 0.193808
I1    I     I_    0.792996 0.298507 0.889369 -0.163223
I2    I     I_    0.206990 0.701204 0.110240 -0.163214
N1    N     N_1   0.499980 0.500000 0.076820 -0.057550
N2    N     N_1   0.500020 0.500000 0.923180 -0.057550
O1    O     O_R   0.500000 0.288400 0.642760 -0.492941
O2    O     O_R   0.500000 0.711600 0.357240 -0.492958
O3    O     O_R   0.500000 0.288400 0.357240 -0.493201
O4    O     O_R   0.500000 0.711600 0.642760 -0.493206
O5    O     O_R   0.349000 0.500000 0.619590 -0.506202
O6    O     O_R   0.651000 0.500000 0.380410 -0.506191
O7    O     O_R   0.348990 0.500000 0.334020 -0.476938
O8    O     O_R   0.651010 0.500000 0.665980 -0.476950

loop_
_geom_bond_atom_site_label_1
_geom_bond_atom_site_label_2
_ccdc_geom_bond_type
C13   C16   A    
C1    C7    S    
C4    C12   A    
Cu1   O1    S    
C7    C8    T    
C11   O6    A    
Cu1   Cu2   S    
C10   C13   S    
Cu1   O5    S    
C1    O1    A    
N1    N2    T    
C8    C9    S    
C11   O8    A    
C6    C14   A    
Br1   C14   S    
C11   C12   S    
Br2   C15   S    
Cu1   O4    S    
C9    O2    A    
C16   I2    S    
Cu2   O7    S    
C2    I1    S    
C3    C5    A    
Cu2   O3    S    
C10   O5    A    
C2    C12   A    
C3    C13   A    
Cu2   N1    S    
C2    C15   A    
C5    C6    A    
C14   C16   A    
Cu2   O6    S    
C1    O3    A    
Cu1   N2    S    
C4    C6    A    
Cu2   O2    S    
C10   O7    A    
C4    H1    S    
C3    H2    S    
C9    O4    A    
C5    C15   A    
Cu1   O8    S    
