data_mof_unit_57449.cif
_audit_creation_date              2013-03-05T16:22:46-0500
_audit_creation_method            fapswitch 2.2
_symmetry_space_group_name_H-M    P1
_symmetry_Int_Tables_number       1
_space_group_crystal_system       triclinic
_cell_length_a                    19.136548
_cell_length_b                    10.521421
_cell_length_c                    9.810839
_cell_angle_alpha                 90.463346
_cell_angle_beta                  89.970915
_cell_angle_gamma                 89.952916
_cell_volume                      1975.28488849

loop_
_atom_site_label
_atom_site_type_symbol
_atom_site_description
_atom_site_fract_x
_atom_site_fract_y
_atom_site_fract_z
_atom_type_partial_charge
O1    O     O_R   0.500000 0.313960 0.616610 -0.598715
O2    O     O_R   0.500000 0.686040 0.383390 -0.594778
O3    O     O_R   0.500030 0.313950 0.383350 -0.623154
O4    O     O_R   0.499970 0.686050 0.616650 -0.622912
C1    C     C_R   0.499503 0.257932 0.499390 0.999762
C2    C     C_R   0.500544 0.742077 0.500610 0.997616
O5    O     O_R   0.398120 0.499990 0.616660 -0.638680
O6    O     O_R   0.601880 0.500010 0.383340 -0.641300
O7    O     O_R   0.398150 0.499980 0.383410 -0.557041
O8    O     O_R   0.601850 0.500020 0.616590 -0.553917
C3    C     C_R   0.365939 0.497433 0.499895 0.977547
C4    C     C_R   0.634061 0.503024 0.500069 0.972111
Zn1   Zn    Zn3+2 0.499980 0.500010 0.655740 1.040757
Zn2   Zn    Zn3+2 0.500020 0.499990 0.344260 1.037809
C5    C     C_R   0.255576 0.572660 0.593956 -0.203832
C6    C     C_R   0.745045 0.433355 0.403691 -0.167213
H1    H     H_    0.285903 0.628412 0.666064 0.230981
H2    H     H_    0.715193 0.377611 0.330823 0.228889
C7    C     C_R   0.183115 0.581959 0.594132 -0.040873
C8    C     C_R   0.817591 0.426822 0.402677 -0.035197
C9    C     C_R   0.145362 0.510890 0.495657 -0.115837
C10   C     C_R   0.854801 0.497806 0.502016 -0.123809
C11   C     C_R   0.179760 0.430958 0.400173 -0.142794
C12   C     C_R   0.819795 0.575401 0.598818 -0.142931
C13   C     C_R   0.253028 0.423664 0.402091 0.276575
C14   C     C_R   0.746448 0.579738 0.597913 0.272501
C15   C     C_R   0.290254 0.495730 0.499338 -0.147452
C16   C     C_R   0.709746 0.507189 0.500268 -0.169647
N1    N     N_R   0.032981 0.599780 0.433969 -0.063580
N2    N     N_R   0.967177 0.409846 0.564494 -0.065826
N3    N     N_R   0.963709 0.595509 0.433995 -0.123404
N4    N     N_R   0.036434 0.414132 0.564490 -0.126034
C17   C     C_R   0.930167 0.500235 0.498775 0.391546
C18   C     C_R   0.069989 0.509378 0.499719 0.389209
C19   C     C_3   0.452655 0.043804 0.591678 -0.243911
C20   C     C_3   0.547452 0.956235 0.408341 -0.247633
C21   C     C_3   0.517209 0.960415 0.627015 -0.189738
C22   C     C_3   0.482900 0.039621 0.373000 -0.188133
H3    H     H_    0.532334 0.925680 0.729434 0.216745
H4    H     H_    0.467775 0.074352 0.270580 0.215911
H5    H     H_    0.413290 0.082534 0.664116 0.228585
H6    H     H_    0.586860 0.917674 0.335924 0.223615
C23   C     C_3   0.500387 0.876844 0.501844 -0.157947
C24   C     C_3   0.499717 0.123183 0.498163 -0.160614
C25   C     C_3   0.437463 0.958830 0.467510 0.354812
C26   C     C_3   0.562646 0.041220 0.532500 0.354484
C27   C     C_3   0.486164 0.387415 0.048143 -0.147663
C28   C     C_3   0.513871 0.612563 0.951921 -0.142143
C29   C     C_3   0.546106 0.422662 0.951425 -0.048516
C30   C     C_3   0.453886 0.577284 0.048561 -0.043292
H7    H     H_    0.474343 0.293259 0.092978 0.190701
H8    H     H_    0.525724 0.706721 0.907125 0.191195
N5    N     N_3   0.499950 0.500030 0.863290 -0.153328
N6    N     N_3   0.500050 0.499970 0.136710 -0.152113
C31   C     C_3   0.440195 0.465926 0.952107 -0.041655
C32   C     C_3   0.559819 0.533994 0.047928 -0.043768
C33   C     C_2   0.372366 0.419623 0.894303 1.020913
O9    O     O_2   0.370435 0.317918 0.833359 -0.599973
O10   O     O_R   0.311754 0.492148 0.910552 -0.743206
H9    H     H_    0.269255 0.449875 0.868467 0.365373
C34   C     C_2   0.627540 0.579919 0.106463 1.027463
O11   O     O_2   0.680665 0.516768 0.092051 -0.563561
O12   O     O_R   0.629346 0.695290 0.177815 -0.782510
H10   H     H_    0.677639 0.715931 0.214168 0.352603
C35   C     C_2   0.149564 0.664813 0.700236 0.971242
O13   O     O_2   0.088302 0.696581 0.691033 -0.591661
O14   O     O_R   0.188948 0.708013 0.811479 -0.758032
H11   H     H_    0.160858 0.763392 0.876474 0.376278
C36   C     C_2   0.851779 0.346652 0.294998 0.980496
O15   O     O_2   0.913291 0.316356 0.303567 -0.596583
O16   O     O_R   0.812711 0.304299 0.182959 -0.747073
H12   H     H_    0.841218 0.250736 0.116922 0.373619
C37   C     C_2   0.139062 0.350912 0.302586 1.009813
O17   O     O_2   0.153700 0.238524 0.287182 -0.520315
O18   O     O_R   0.083907 0.404005 0.228891 -0.759496
H13   H     H_    0.060135 0.339939 0.166695 0.378410
C38   C     C_2   0.859846 0.656124 0.696801 1.013684
O19   O     O_2   0.843952 0.767800 0.713467 -0.522031
O20   O     O_R   0.915798 0.604534 0.769451 -0.758656
H14   H     H_    0.939024 0.668997 0.831967 0.378093
N7    N     N_R   0.289459 0.343024 0.306475 0.241830
O21   O     O_R   0.335274 0.261062 0.349110 -0.363846
O22   O     O_R   0.277657 0.352511 0.176372 -0.313756
N8    N     N_R   0.709428 0.658035 0.694866 0.241244
O23   O     O_R   0.663004 0.739486 0.653613 -0.370579
O24   O     O_R   0.721696 0.647581 0.824710 -0.304331
N9    N     N_R   0.367752 0.912977 0.433061 0.228333
O25   O     O_R   0.318763 0.993642 0.403021 -0.274052
O26   O     O_R   0.352836 0.792759 0.439953 -0.436704
N10   N     N_R   0.632362 0.087109 0.566888 0.227314
O27   O     O_R   0.681334 0.006457 0.597081 -0.280066
O28   O     O_R   0.647338 0.207285 0.559498 -0.436294
C39   C     C_2   0.598307 0.330860 0.893241 1.027544
O29   O     O_2   0.586824 0.216725 0.897650 -0.601225
O30   O     O_R   0.660433 0.375989 0.836899 -0.713404
H15   H     H_    0.692214 0.305014 0.803954 0.382251
C40   C     C_2   0.401726 0.669212 0.106661 1.038190
O31   O     O_2   0.412989 0.783368 0.101103 -0.600164
O32   O     O_R   0.339877 0.624185 0.164217 -0.711320
H16   H     H_    0.308014 0.695229 0.196675 0.382181

loop_
_geom_bond_atom_site_label_1
_geom_bond_atom_site_label_2
_geom_bond_distance
_ccdc_geom_bond_type
C6    C16   1.394327 A    
N2    N4    1.326154 A    
N9    O25   1.299633 A    
C39   O29   1.222088 D    
C37   O17   1.223151 D    
N5    C31   1.483359 S    
C20   H6    1.110130 S    
O30   H15   1.013495 S    
C28   C32   1.534905 S    
O7    Zn2   1.986730 S    
N7    O21   1.300868 A    
C33   O9    1.222162 D    
C27   C29   1.535898 S    
C38   O19   1.223157 D    
O5    C3    1.300974 A    
C30   N6    1.483577 S    
C4    C16   1.449037 S    
O1    C1    1.288105 A    
C25   N9    1.457903 S    
N8    O24   1.300970 A    
C28   H8    1.110557 S    
C33   O10   1.396223 S    
C34   O12   1.396807 S    
O4    Zn1   1.997663 S    
C36   O16   1.399713 S    
C22   C25   1.533467 S    
C40   O32   1.395968 S    
N10   O28   1.299309 A    
C35   O14   1.399686 S    
O6    Zn2   1.986789 S    
N3    C17   1.353405 A    
C20   C26   1.533307 S    
C34   O11   1.221557 D    
C6    C8    1.389945 A    
C28   C30   1.536124 S    
O10   H9    1.013762 S    
C39   O30   1.396038 S    
C13   N7    1.439229 S    
C37   O18   1.398268 S    
O2    C2    1.288154 A    
C11   C37   1.490401 S    
O2    Zn2   1.991749 S    
N7    O22   1.300970 A    
C24   C26   1.520127 S    
C40   O31   1.222090 D    
Zn1   N5    2.036239 S    
C38   O20   1.398279 S    
C9    C11   1.415582 A    
C28   N5    1.487637 S    
C21   H3    1.110430 S    
N6    C32   1.483151 S    
O14   H11   1.013995 S    
N8    O23   1.300849 A    
O4    C2    1.286285 A    
C27   H7    1.110567 S    
C9    C18   1.443004 S    
N1    C18   1.353380 A    
O20   H14   1.013802 S    
N4    C18   1.353270 A    
C21   C23   1.538909 S    
C5    C7    1.390020 A    
O18   H13   1.013796 S    
C22   C24   1.538776 S    
C23   C25   1.520187 S    
C5    C15   1.394116 A    
O32   H16   1.013477 S    
C3    C15   1.448493 S    
O6    C4    1.300741 A    
C19   C24   1.537246 S    
O7    C3    1.298655 A    
O3    Zn2   1.997662 S    
O8    C4    1.299119 A    
C27   N6    1.487331 S    
Zn2   N6    2.036237 S    
C1    C24   1.417700 S    
C8    C10   1.415801 A    
C2    C23   1.417894 S    
C31   C33   1.497033 S    
C10   C12   1.415321 A    
C8    C36   1.496501 S    
O1    Zn1   1.991749 S    
C19   C25   1.533299 S    
C27   C31   1.534988 S    
C5    H1    1.084262 S    
C10   C17   1.442824 S    
C30   C40   1.498559 S    
C14   N8    1.439075 S    
N2    C17   1.353162 A    
C19   C21   1.555501 S    
C12   C14   1.404353 A    
O3    C1    1.286236 A    
O8    Zn1   1.986729 S    
C26   N10   1.457988 S    
C13   C15   1.408020 A    
C29   C32   1.523203 S    
C14   C16   1.408341 A    
C30   C31   1.523052 S    
N9    O26   1.299189 A    
O16   H12   1.013987 S    
N1    N3    1.326441 A    
C22   H4    1.110429 S    
N10   O27   1.299663 A    
C29   N5    1.483731 S    
C20   C22   1.555463 S    
C7    C35   1.496500 S    
C11   C13   1.404276 A    
C36   O15   1.222376 D    
C19   H5    1.110342 S    
O12   H10   1.013829 S    
C12   C38   1.490458 S    
O5    Zn1   1.986789 S    
C6    H2    1.084241 S    
C35   O13   1.222380 D    
C32   C34   1.496692 S    
C20   C23   1.537281 S    
C29   C39   1.498532 S    
C21   C26   1.533559 S    
C7    C9    1.415765 A    
