data_mof_unit_51211.cif
_audit_creation_date              2012-12-10T20:30:08-0500
_audit_creation_method            fapswitch 2.2
_symmetry_space_group_name_H-M    P1
_symmetry_Int_Tables_number       1
_space_group_crystal_system       triclinic
_cell_length_a                    9.902851
_cell_length_b                    10.652661
_cell_length_c                    13.115932
_cell_angle_alpha                 89.991099
_cell_angle_beta                  70.264903
_cell_angle_gamma                 89.792536
_cell_volume                      1302.34418066

loop_
_atom_site_label
_atom_site_type_symbol
_atom_type_description
_atom_site_fract_x
_atom_site_fract_y
_atom_site_fract_z
_atom_type_partial_charge
C1    C     C_R   0.498976 0.739677 0.501462 0.868892
C2    C     C_R   0.428728 0.508163 0.985426 0.085884
C3    C     C_R   0.448252 0.552677 0.880360 0.096386
C4    C     C_R   0.533638 0.538387 0.032495 0.083232
C5    C     C_R   0.641599 0.628104 0.982661 0.182199
C6    C     C_R   0.644470 0.685710 0.886662 -0.271164
C7    C     C_R   0.549629 0.647604 0.835386 -0.217718
C8    C     C_R   0.534817 0.481042 0.127531 -0.255803
C9    C     C_R   0.733912 0.609898 0.131063 -0.203097
C10   C     C_R   0.366599 0.500022 0.822063 -0.117761
C11   C     C_R   0.404870 0.936544 0.464749 0.223526
C12   C     C_R   0.419916 0.502858 0.704106 0.846669
C13   C     C_R   0.492502 0.871516 0.509884 -0.114594
C14   C     C_R   0.565836 0.934899 0.568694 -0.245471
C15   C     C_R   0.567959 0.064849 0.567171 -0.227062
C16   C     C_R   0.494479 0.128542 0.508356 -0.097890
C17   C     C_R   0.405348 0.064339 0.464373 0.104753
C18   C     C_3   0.397238 0.071059 0.352739 -0.527017
C19   C     C_3   0.396558 0.928624 0.353322 -0.450386
C20   C     C_R   0.925823 0.609855 0.506285 0.167080
C21   C     C_R   0.935439 0.392062 0.484952 -0.130647
C22   C     C_R   0.078994 0.392051 0.484880 -0.154331
C23   C     C_R   0.499817 0.260338 0.500670 0.884628
C24   C     C_R   0.068241 0.610178 0.506348 0.202413
C25   C     C_3   0.032199 0.702199 0.597543 0.286278
C26   C     C_3   0.879025 0.700867 0.597188 -0.596474
C27   C     C_R   0.579481 0.501404 0.296085 0.860711
C28   C     C_R   0.743260 0.660798 0.031028 -0.208256
C29   C     C_R   0.625972 0.523120 0.180506 -0.056905
C30   C     C_R   0.245932 0.426947 0.875360 -0.196675
C31   C     C_R   0.213045 0.398451 0.984346 -0.145167
C32   C     C_R   0.305355 0.435302 0.038624 -0.193180
H1    H     H_    0.804144 0.644208 0.172672 0.156658
H2    H     H_    0.629353 0.114839 0.608622 0.162554
H3    H     H_    0.294445 0.112823 0.352221 0.202720
H4    H     H_    0.495373 0.111856 0.292881 0.199809
H5    H     H_    0.293255 0.888094 0.353372 0.237336
H6    H     H_    0.494272 0.886100 0.293813 0.187689
H7    H     H_    0.887116 0.304403 0.474360 0.155849
H8    H     H_    0.137500 0.304425 0.474130 0.156742
H9    H     H_    0.048244 0.662548 0.671389 0.076402
H10   H     H_    0.803431 0.657728 0.670834 0.189627
H11   H     H_    0.722225 0.758194 0.849932 0.138760
H12   H     H_    0.843911 0.791090 0.571979 0.223250
H13   H     H_    0.825354 0.729808 0.994025 0.132963
H14   H     H_    0.459878 0.407825 0.166051 0.139463
H15   H     H_    0.180473 0.387788 0.831747 0.155000
H16   H     H_    0.275600 0.408265 0.122556 0.134578
H17   H     H_    0.119349 0.342637 0.025633 0.144259
H18   H     H_    0.555123 0.693518 0.760450 0.150505
H19   H     H_    0.623937 0.884610 0.612449 0.152540
N1    N     N_R   0.856940 0.500860 0.500710 -0.098969
N2    N     N_R   0.142580 0.500820 0.500710 -0.136740
O1    O     O_R   0.385310 0.683210 0.499990 -0.588763
O2    O     O_R   0.614650 0.683240 0.500000 -0.619171
O3    O     O_R   0.328390 0.499940 0.653610 -0.620038
O4    O     O_R   0.557730 0.499980 0.653620 -0.600839
O5    O     O_R   0.385350 0.316760 0.500000 -0.622618
O6    O     O_R   0.614690 0.316790 0.500010 -0.624929
O7    O     O_R   0.442270 0.500020 0.346380 -0.605039
O8    O     O_R   0.671610 0.500060 0.346390 -0.611203
Zn1   Zn    Zn3+2 0.346870 0.499980 0.499990 0.948338
Zn2   Zn    Zn3+2 0.653130 0.500020 0.500010 0.943229
O9    O     O_3   0.099379 0.818752 0.562994 -0.589389
C33   C     C_3   0.064090 0.904742 0.650607 0.129244
H20   H     H_    0.161095 0.920777 0.673240 0.152159
H21   H     H_    0.976455 0.872963 0.724919 0.109713
C34   C     C_3   0.017382 0.028966 0.615335 -0.857859
H22   H     H_    0.916404 0.016118 0.597440 0.243671
H23   H     H_    0.998665 0.099519 0.681029 0.210131
H24   H     H_    0.101378 0.064537 0.541625 0.259309

loop_
_geom_bond_atom_site_label_1
_geom_bond_atom_site_label_2
_ccdc_geom_bond_type
O5    Zn1   S    
C23   O5    A    
C2    C4    A    
C1    O1    A    
C18   H4    S    
C6    C7    A    
C19   H6    S    
C27   C29   S    
C5    C28   A    
C11   C13   A    
C18   H3    S    
C10   C30   A    
C15   H2    S    
O6    Zn2   S    
C31   C32   A    
C21   H7    S    
C9    C29   A    
C30   C31   A    
C4    C8    A    
C33   C34   S    
C22   H8    S    
O9    C33   S    
C17   C18   S    
C1    O2    A    
C26   H12   S    
C20   N1    A    
C3    C10   A    
C13   C14   A    
C24   C25   S    
C23   O6    A    
C32   H16   S    
C11   C19   S    
C12   O3    A    
C20   C26   S    
C31   H17   S    
C34   H24   S    
C8    C29   A    
C10   C12   S    
O7    Zn1   S    
C27   O8    A    
N1    Zn2   S    
O4    Zn2   S    
C22   N2    A    
C2    C3    A    
C6    H11   S    
C27   O7    A    
C5    C6    A    
O3    Zn1   S    
C28   H13   S    
C1    C13   S    
C12   O4    A    
C15   C16   A    
C16   C17   A    
C20   C24   A    
C30   H15   S    
C24   N2    A    
C16   C23   S    
C26   H10   S    
C2    C32   A    
C33   H20   S    
N2    Zn1   S    
C25   H9    S    
O8    Zn2   S    
C34   H23   S    
C14   C15   A    
C18   C19   S    
C19   H5    S    
C3    C7    A    
C33   H21   S    
C25   C26   S    
C21   C22   A    
O1    Zn1   S    
C9    C28   A    
C34   H22   S    
C21   N1    A    
C8    H14   S    
C14   H19   S    
C7    H18   S    
O2    Zn2   S    
C4    C5    A    
C9    H1    S    
C25   O9    S    
C11   C17   A    
