data_mof_unit_63727.cif
_audit_creation_date              2012-12-10T17:53:39-0500
_audit_creation_method            fapswitch 2.2
_symmetry_space_group_name_H-M    P1
_symmetry_Int_Tables_number       1
_space_group_crystal_system       triclinic
_cell_length_a                    21.696901
_cell_length_b                    30.418399
_cell_length_c                    30.633353
_cell_angle_alpha                 90.0
_cell_angle_beta                  90.000016
_cell_angle_gamma                 90.000084
_cell_volume                      20217.5532249

loop_
_atom_site_label
_atom_site_type_symbol
_atom_type_description
_atom_site_fract_x
_atom_site_fract_y
_atom_site_fract_z
_atom_type_partial_charge
C1    C     C_R   0.249991 0.060236 0.939987 0.860300
C2    C     C_R   0.250009 0.939764 0.439987 0.860300
C3    C     C_R   0.563593 0.500000 1.000000 -0.226664
C4    C     C_R   0.436407 0.000000 0.500000 -0.226664
C5    C     C_R   0.563593 1.000000 0.500000 -0.226663
C6    C     C_R   0.936407 0.500000 0.500000 -0.226664
C7    C     C_R   0.063593 0.500000 0.500000 -0.226664
C8    C     C_R   0.250064 0.810051 0.310201 0.856132
C9    C     C_R   0.749936 0.189949 0.310201 0.856132
C10   C     C_R   0.250064 0.189949 0.689799 0.856132
C11   C     C_R   0.749936 0.810051 0.689799 0.856132
C12   C     C_R   0.750064 0.310051 0.310201 0.856132
C13   C     C_R   0.749991 0.939764 0.560013 0.860301
C14   C     C_R   0.249936 0.689949 0.310201 0.856132
C15   C     C_R   0.750064 0.689949 0.689799 0.856132
C16   C     C_R   0.249936 0.310051 0.689799 0.856132
C17   C     C_R   0.750064 0.810051 0.810201 0.856132
C18   C     C_R   0.249936 0.189949 0.810201 0.856132
C19   C     C_R   0.750064 0.189949 0.189799 0.856132
C20   C     C_R   0.249936 0.810051 0.189799 0.856132
C21   C     C_R   0.250064 0.310051 0.810201 0.856132
C22   C     C_R   0.749936 0.689949 0.810201 0.856132
C23   C     C_R   0.250064 0.689949 0.189799 0.856132
C24   C     C_R   0.250009 0.060236 0.560013 0.860300
C25   C     C_R   0.749936 0.310051 0.189799 0.856132
C26   C     C_R   0.370018 1.000000 0.000000 0.862876
C27   C     C_R   0.629981 0.000000 0.000000 0.862876
C28   C     C_R   0.870019 0.500000 0.000000 0.862876
C29   C     C_R   0.129981 0.500000 0.000000 0.862876
C30   C     C_R   0.870018 1.000000 0.500000 0.862876
C31   C     C_R   0.129981 0.000000 0.500000 0.862876
C32   C     C_R   0.370018 0.500000 0.500000 0.862876
C33   C     C_R   0.629981 0.500000 0.500000 0.862876
C34   C     C_R   0.129771 1.000000 1.000000 0.959206
C35   C     C_R   0.249991 0.560236 0.439987 0.860300
C36   C     C_R   0.870229 0.000000 1.000000 0.959206
C37   C     C_R   0.629771 0.500000 1.000000 0.959206
C38   C     C_R   0.370229 0.500000 1.000000 0.959206
C39   C     C_R   0.629771 0.000000 0.500000 0.959206
C40   C     C_R   0.370229 0.000000 0.500000 0.959206
C41   C     C_R   0.129771 0.500000 0.500000 0.959206
C42   C     C_R   0.870229 0.500000 0.500000 0.959206
C43   C     C_R   0.437007 0.918643 0.007893 -0.145390
C44   C     C_R   0.562993 0.081356 0.007893 -0.145390
C45   C     C_R   0.437007 0.081356 0.992106 -0.145390
C46   C     C_R   0.750009 0.439764 0.439987 0.860300
C47   C     C_R   0.562993 0.918644 0.992106 -0.145390
C48   C     C_R   0.937007 0.418644 0.007893 -0.145390
C49   C     C_R   0.062993 0.581356 0.007893 -0.145390
C50   C     C_R   0.937007 0.581356 0.992106 -0.145390
C51   C     C_R   0.062993 0.418644 0.992106 -0.145390
C52   C     C_R   0.937007 0.918643 0.507893 -0.145390
C53   C     C_R   0.062993 0.081356 0.507893 -0.145389
C54   C     C_R   0.937007 0.081356 0.492106 -0.145390
C55   C     C_R   0.062993 0.918644 0.492106 -0.145390
C56   C     C_R   0.437007 0.418644 0.507893 -0.145390
C57   C     C_R   0.249991 0.439764 0.560013 0.860301
C58   C     C_R   0.562993 0.581356 0.507893 -0.145389
C59   C     C_R   0.437007 0.581356 0.492106 -0.145390
C60   C     C_R   0.562993 0.418644 0.492106 -0.145390
C61   C     C_R   0.468677 0.878963 0.004572 -0.135633
C62   C     C_R   0.531323 0.121037 0.004572 -0.135633
C63   C     C_R   0.468678 0.121037 0.995428 -0.135634
C64   C     C_R   0.531322 0.878963 0.995428 -0.135634
C65   C     C_R   0.968677 0.378963 0.004572 -0.135633
C66   C     C_R   0.031323 0.621037 0.004572 -0.135633
C67   C     C_R   0.968678 0.621037 0.995428 -0.135634
C68   C     C_R   0.750009 0.560236 0.560013 0.860301
C69   C     C_R   0.031322 0.378963 0.995428 -0.135634
C70   C     C_R   0.968677 0.878963 0.504572 -0.135633
C71   C     C_R   0.031323 0.121037 0.504572 -0.135633
C72   C     C_R   0.968678 0.121037 0.495428 -0.135633
C73   C     C_R   0.031322 0.878963 0.495428 -0.135633
C74   C     C_R   0.468677 0.378963 0.504572 -0.135633
C75   C     C_R   0.531323 0.621037 0.504572 -0.135633
C76   C     C_R   0.468678 0.621037 0.495428 -0.135633
C77   C     C_R   0.531322 0.378963 0.495428 -0.135633
C78   C     C_R   0.532157 0.959403 0.997940 0.077652
C79   C     C_R   0.249827 0.157018 0.843390 -0.013562
C80   C     C_R   0.467843 0.040597 0.997940 0.077652
C81   C     C_R   0.532157 0.040597 0.002060 0.077651
C82   C     C_R   0.467843 0.959403 0.002060 0.077651
C83   C     C_R   0.032157 0.459403 0.997940 0.077652
C84   C     C_R   0.967843 0.540597 0.997940 0.077652
C85   C     C_R   0.032157 0.540597 0.002060 0.077651
C86   C     C_R   0.967843 0.459403 0.002060 0.077651
C87   C     C_R   0.032157 0.959403 0.497940 0.077652
C88   C     C_R   0.967843 0.040597 0.497940 0.077652
C89   C     C_R   0.032157 0.040597 0.502060 0.077651
C90   C     C_R   0.750173 0.842982 0.843390 -0.013562
C91   C     C_R   0.967843 0.959403 0.502060 0.077651
C92   C     C_R   0.532157 0.459403 0.497940 0.077652
C93   C     C_R   0.467843 0.540597 0.497940 0.077652
C94   C     C_R   0.532157 0.540597 0.502060 0.077651
C95   C     C_R   0.467843 0.459403 0.502060 0.077651
C96   C     C_R   0.563839 0.000000 0.000000 -0.200468
C97   C     C_R   0.436161 0.000000 0.000000 -0.200468
C98   C     C_R   0.063839 0.500000 0.000000 -0.200468
C99   C     C_R   0.936161 0.500000 0.000000 -0.200468
C100  C     C_R   0.063839 0.000000 0.500000 -0.200468
C101  C     C_R   0.249827 0.842982 0.156610 -0.013559
C102  C     C_R   0.936161 0.000000 0.500000 -0.200468
C103  C     C_R   0.563839 0.500000 0.500000 -0.200468
C104  C     C_R   0.436161 0.500000 0.500000 -0.200468
C105  C     C_R   0.210484 0.088962 0.871257 -0.156474
C106  C     C_R   0.789516 0.911038 0.871257 -0.156474
C107  C     C_R   0.210485 0.911039 0.128743 -0.156475
C108  C     C_R   0.789514 0.088961 0.128744 -0.156474
C109  C     C_R   0.710484 0.588962 0.871257 -0.156474
C110  C     C_R   0.289516 0.411038 0.871257 -0.156474
C111  C     C_R   0.710485 0.411039 0.128743 -0.156475
C112  C     C_R   0.750009 0.939764 0.939987 0.860300
C113  C     C_R   0.750173 0.157018 0.156610 -0.013559
C114  C     C_R   0.289515 0.588961 0.128744 -0.156473
C115  C     C_R   0.710484 0.088962 0.371257 -0.156474
C116  C     C_R   0.289516 0.911038 0.371257 -0.156474
C117  C     C_R   0.710485 0.911039 0.628743 -0.156475
C118  C     C_R   0.289515 0.088961 0.628744 -0.156473
C119  C     C_R   0.210484 0.588962 0.371257 -0.156474
C120  C     C_R   0.789516 0.411038 0.371257 -0.156474
C121  C     C_R   0.210485 0.411039 0.628743 -0.156475
C122  C     C_R   0.789515 0.588961 0.628744 -0.156473
C123  C     C_R   0.209898 0.121214 0.839536 -0.176224
C124  C     C_R   0.749827 0.657018 0.843390 -0.013562
C125  C     C_R   0.790102 0.878785 0.839536 -0.176223
C126  C     C_R   0.209900 0.878786 0.160465 -0.176225
C127  C     C_R   0.790100 0.121214 0.160465 -0.176224
C128  C     C_R   0.709898 0.621215 0.839536 -0.176224
C129  C     C_R   0.290102 0.378785 0.839536 -0.176223
C130  C     C_R   0.709900 0.378786 0.160465 -0.176225
C131  C     C_R   0.290100 0.621214 0.160465 -0.176224
C132  C     C_R   0.709898 0.121215 0.339536 -0.176224
C133  C     C_R   0.290102 0.878785 0.339536 -0.176223
C134  C     C_R   0.709900 0.878786 0.660465 -0.176224
C135  C     C_R   0.250173 0.342982 0.843390 -0.013563
C136  C     C_R   0.290100 0.121214 0.660465 -0.176224
C137  C     C_R   0.209898 0.621215 0.339536 -0.176224
C138  C     C_R   0.790102 0.378785 0.339536 -0.176223
C139  C     C_R   0.209900 0.378786 0.660465 -0.176225
C140  C     C_R   0.790100 0.621214 0.660465 -0.176224
C141  C     C_R   0.749827 0.342982 0.156610 -0.013559
C142  C     C_R   0.250173 0.657018 0.156610 -0.013559
C143  C     C_R   0.749827 0.157018 0.343390 -0.013562
C144  C     C_R   0.250173 0.842982 0.343390 -0.013562
C145  C     C_R   0.749827 0.842982 0.656610 -0.013559
C146  C     C_R   0.250172 0.157018 0.656610 -0.013559
C147  C     C_R   0.249827 0.657018 0.343390 -0.013562
C148  C     C_R   0.249991 0.939764 0.060013 0.860301
C149  C     C_R   0.750173 0.342982 0.343390 -0.013563
C150  C     C_R   0.249827 0.342982 0.656610 -0.013559
C151  C     C_R   0.750173 0.657018 0.656610 -0.013559
C152  C     C_R   0.289486 0.161357 0.879051 -0.171976
C153  C     C_R   0.710514 0.838643 0.879051 -0.171977
C154  C     C_R   0.289484 0.838642 0.120948 -0.171978
C155  C     C_R   0.710515 0.161358 0.120948 -0.171978
C156  C     C_R   0.789486 0.661357 0.879051 -0.171976
C157  C     C_R   0.210514 0.338643 0.879051 -0.171977
C158  C     C_R   0.789484 0.338642 0.120948 -0.171978
C159  C     C_R   0.750009 0.060236 0.060013 0.860301
C160  C     C_R   0.210515 0.661358 0.120948 -0.171978
C161  C     C_R   0.789486 0.161357 0.379051 -0.171976
C162  C     C_R   0.210514 0.838643 0.379051 -0.171977
C163  C     C_R   0.789484 0.838642 0.620948 -0.171978
C164  C     C_R   0.210515 0.161358 0.620948 -0.171978
C165  C     C_R   0.289486 0.661357 0.379051 -0.171976
C166  C     C_R   0.710514 0.338643 0.379051 -0.171977
C167  C     C_R   0.289484 0.338642 0.620948 -0.171978
C168  C     C_R   0.710516 0.661358 0.620948 -0.171978
C169  C     C_R   0.288700 0.129781 0.911461 -0.176427
C170  C     C_R   0.749991 0.560236 0.939987 0.860300
C171  C     C_R   0.711300 0.870219 0.911461 -0.176427
C172  C     C_R   0.288698 0.870218 0.088538 -0.176426
C173  C     C_R   0.711302 0.129782 0.088538 -0.176426
C174  C     C_R   0.788700 0.629781 0.911461 -0.176427
C175  C     C_R   0.211300 0.370219 0.911461 -0.176427
C176  C     C_R   0.788698 0.370218 0.088538 -0.176426
C177  C     C_R   0.211302 0.629782 0.088538 -0.176426
C178  C     C_R   0.788700 0.129781 0.411461 -0.176428
C179  C     C_R   0.211300 0.870219 0.411461 -0.176427
C180  C     C_R   0.788698 0.870218 0.588538 -0.176426
C181  C     C_R   0.250009 0.439764 0.939987 0.860300
C182  C     C_R   0.211302 0.129782 0.588538 -0.176426
C183  C     C_R   0.288700 0.629781 0.411461 -0.176428
C184  C     C_R   0.711300 0.370219 0.411461 -0.176427
C185  C     C_R   0.288698 0.370218 0.588538 -0.176426
C186  C     C_R   0.711302 0.629782 0.588538 -0.176426
C187  C     C_R   0.249664 0.093519 0.907151 0.000392
C188  C     C_R   0.750336 0.906481 0.907151 0.000392
C189  C     C_R   0.249664 0.906481 0.092849 0.000391
C190  C     C_R   0.750336 0.093519 0.092849 0.000390
C191  C     C_R   0.749664 0.593519 0.907151 0.000392
C192  C     C_R   0.749991 0.439764 0.060013 0.860301
C193  C     C_R   0.250336 0.406481 0.907151 0.000392
C194  C     C_R   0.749664 0.406481 0.092849 0.000391
C195  C     C_R   0.250336 0.593519 0.092849 0.000390
C196  C     C_R   0.749664 0.093519 0.407151 0.000393
C197  C     C_R   0.250336 0.906481 0.407151 0.000392
C198  C     C_R   0.749664 0.906481 0.592849 0.000391
C199  C     C_R   0.250336 0.093519 0.592849 0.000390
C200  C     C_R   0.249664 0.593519 0.407151 0.000393
C201  C     C_R   0.750336 0.406481 0.407151 0.000392
C202  C     C_R   0.249664 0.406481 0.592849 0.000391
C203  C     C_R   0.250009 0.560236 0.060013 0.860301
C204  C     C_R   0.750336 0.593519 0.592849 0.000390
C205  C     C_R   0.032021 0.959591 0.001483 0.116584
C206  C     C_R   0.967979 0.040408 0.001483 0.116584
C207  C     C_R   0.032022 0.040408 0.998516 0.116583
C208  C     C_R   0.967978 0.959591 0.998516 0.116584
C209  C     C_R   0.532021 0.459591 0.001483 0.116584
C210  C     C_R   0.467979 0.540409 0.001483 0.116584
C211  C     C_R   0.532022 0.540409 0.998516 0.116583
C212  C     C_R   0.467978 0.459591 0.998516 0.116584
C213  C     C_R   0.532021 0.959591 0.501483 0.116584
C214  C     C_R   0.749991 0.060236 0.439987 0.860300
C215  C     C_R   0.467979 0.040408 0.501483 0.116584
C216  C     C_R   0.532022 0.040408 0.498516 0.116583
C217  C     C_R   0.467978 0.959591 0.498516 0.116584
C218  C     C_R   0.032021 0.459591 0.501483 0.116584
C219  C     C_R   0.967978 0.540408 0.501483 0.116584
C220  C     C_R   0.032022 0.540408 0.498516 0.116583
C221  C     C_R   0.967978 0.459591 0.498516 0.116584
C222  C     C_R   0.936407 0.000000 1.000000 -0.226664
C223  C     C_R   0.063593 1.000000 1.000000 -0.226663
C224  C     C_R   0.436407 0.500000 1.000000 -0.226664
H1    H     H_    0.444314 0.151849 0.991540 0.142146
H2    H     H_    0.055685 0.848151 0.491540 0.142146
H3    H     H_    0.944314 0.848151 0.508459 0.142145
H4    H     H_    0.055686 0.151849 0.508459 0.142145
H5    H     H_    0.444315 0.651849 0.491540 0.142146
H6    H     H_    0.555685 0.348151 0.491540 0.142146
H7    H     H_    0.444314 0.348151 0.508459 0.142145
H8    H     H_    0.555686 0.651849 0.508459 0.142145
H9    H     H_    0.388439 0.916766 0.015360 0.141502
H10   H     H_    0.611560 0.083233 0.015360 0.141502
H11   H     H_    0.388440 0.083233 0.984640 0.141502
H12   H     H_    0.555685 0.848151 0.991540 0.142146
H13   H     H_    0.611560 0.916767 0.984640 0.141502
H14   H     H_    0.888439 0.416766 0.015360 0.141502
H15   H     H_    0.111561 0.583233 0.015360 0.141502
H16   H     H_    0.888440 0.583233 0.984640 0.141502
H17   H     H_    0.111560 0.416767 0.984640 0.141502
H18   H     H_    0.888439 0.916766 0.515360 0.141502
H19   H     H_    0.111561 0.083234 0.515360 0.141502
H20   H     H_    0.888440 0.083233 0.484640 0.141502
H21   H     H_    0.111560 0.916767 0.484640 0.141502
H22   H     H_    0.388439 0.416766 0.515360 0.141502
H23   H     H_    0.444314 0.848151 0.008460 0.142145
H24   H     H_    0.611560 0.583233 0.515360 0.141502
H25   H     H_    0.388440 0.583233 0.484640 0.141502
H26   H     H_    0.611560 0.416767 0.484640 0.141502
H27   H     H_    0.180011 0.060897 0.868209 0.151637
H28   H     H_    0.819989 0.939103 0.868209 0.151637
H29   H     H_    0.180014 0.939105 0.131793 0.151638
H30   H     H_    0.819986 0.060895 0.131793 0.151637
H31   H     H_    0.680011 0.560897 0.868209 0.151637
H32   H     H_    0.319989 0.439103 0.868209 0.151637
H33   H     H_    0.680014 0.439105 0.131793 0.151638
H34   H     H_    0.555686 0.151849 0.008460 0.142145
H35   H     H_    0.319986 0.560895 0.131793 0.151637
H36   H     H_    0.680011 0.060897 0.368208 0.151637
H37   H     H_    0.319989 0.939103 0.368208 0.151637
H38   H     H_    0.680014 0.939105 0.631793 0.151638
H39   H     H_    0.319986 0.060895 0.631793 0.151637
H40   H     H_    0.180011 0.560897 0.368208 0.151637
H41   H     H_    0.819989 0.439103 0.368208 0.151637
H42   H     H_    0.180014 0.439105 0.631793 0.151638
H43   H     H_    0.819986 0.560895 0.631793 0.151637
H44   H     H_    0.179320 0.117960 0.811747 0.148242
H45   H     H_    0.944314 0.651849 0.991540 0.142146
H46   H     H_    0.820680 0.882040 0.811747 0.148242
H47   H     H_    0.179323 0.882041 0.188254 0.148240
H48   H     H_    0.820677 0.117958 0.188254 0.148240
H49   H     H_    0.679320 0.617960 0.811747 0.148242
H50   H     H_    0.320680 0.382040 0.811747 0.148242
H51   H     H_    0.679323 0.382041 0.188254 0.148240
H52   H     H_    0.320677 0.617958 0.188254 0.148240
H53   H     H_    0.679320 0.117960 0.311747 0.148242
H54   H     H_    0.320680 0.882040 0.311747 0.148242
H55   H     H_    0.679323 0.882041 0.688254 0.148240
H56   H     H_    0.055685 0.348151 0.991540 0.142146
H57   H     H_    0.320677 0.117958 0.688254 0.148240
H58   H     H_    0.179320 0.617960 0.311747 0.148242
H59   H     H_    0.820680 0.382040 0.311747 0.148242
H60   H     H_    0.179323 0.382041 0.688254 0.148240
H61   H     H_    0.820677 0.617958 0.688254 0.148240
H62   H     H_    0.320094 0.189355 0.882014 0.149169
H63   H     H_    0.679906 0.810645 0.882014 0.149169
H64   H     H_    0.320091 0.810643 0.117984 0.149167
H65   H     H_    0.679909 0.189356 0.117984 0.149168
H66   H     H_    0.820094 0.689355 0.882014 0.149169
H67   H     H_    0.944314 0.348151 0.008460 0.142145
H68   H     H_    0.179906 0.310645 0.882014 0.149169
H69   H     H_    0.820091 0.310643 0.117984 0.149167
H70   H     H_    0.179909 0.689356 0.117984 0.149168
H71   H     H_    0.820094 0.189355 0.382014 0.149169
H72   H     H_    0.179906 0.810645 0.382014 0.149169
H73   H     H_    0.820091 0.810643 0.617984 0.149167
H74   H     H_    0.179909 0.189356 0.617984 0.149168
H75   H     H_    0.320094 0.689355 0.382014 0.149169
H76   H     H_    0.679906 0.310645 0.382014 0.149169
H77   H     H_    0.320091 0.310643 0.617984 0.149168
H78   H     H_    0.055686 0.651849 0.008460 0.142145
H79   H     H_    0.679909 0.689356 0.617984 0.149168
H80   H     H_    0.319069 0.133158 0.939335 0.134016
H81   H     H_    0.680931 0.866842 0.939335 0.134015
H82   H     H_    0.319066 0.866841 0.060663 0.134017
H83   H     H_    0.680934 0.133159 0.060663 0.134017
H84   H     H_    0.819069 0.633158 0.939335 0.134016
H85   H     H_    0.180931 0.366842 0.939335 0.134015
H86   H     H_    0.819066 0.366840 0.060663 0.134017
H87   H     H_    0.180934 0.633159 0.060663 0.134017
H88   H     H_    0.819069 0.133158 0.439335 0.134016
H89   H     H_    0.944315 0.151849 0.491540 0.142146
H90   H     H_    0.180931 0.866842 0.439335 0.134015
H91   H     H_    0.819066 0.866841 0.560663 0.134017
H92   H     H_    0.180934 0.133159 0.560663 0.134017
H93   H     H_    0.319069 0.633158 0.439335 0.134016
H94   H     H_    0.680931 0.366842 0.439335 0.134015
H95   H     H_    0.319066 0.366841 0.560663 0.134017
H96   H     H_    0.680934 0.633159 0.560663 0.134017
I1    I     I_    0.080338 0.898720 0.011760 -0.286544
I2    I     I_    0.419662 0.101280 0.511760 -0.286544
I3    I     I_    0.580339 0.101280 0.488239 -0.286545
I4    I     I_    0.419661 0.898720 0.488239 -0.286545
I5    I     I_    0.080338 0.398720 0.511760 -0.286544
I6    I     I_    0.919662 0.601280 0.511760 -0.286544
I7    I     I_    0.080339 0.601280 0.488239 -0.286545
I8    I     I_    0.919661 0.398720 0.488239 -0.286545
I9    I     I_    0.919662 0.101280 0.011760 -0.286544
I10   I     I_    0.080339 0.101280 0.988239 -0.286544
I11   I     I_    0.919661 0.898720 0.988239 -0.286544
I12   I     I_    0.580338 0.398720 0.011760 -0.286544
I13   I     I_    0.419662 0.601280 0.011760 -0.286544
I14   I     I_    0.580339 0.601280 0.988239 -0.286544
I15   I     I_    0.419661 0.398720 0.988239 -0.286545
I16   I     I_    0.580338 0.898720 0.511760 -0.286544
O1    O     O_R   0.250000 0.071660 0.980070 -0.613071
O2    O     O_R   0.250000 0.928340 0.480070 -0.613070
O3    O     O_R   0.750000 0.928340 0.519930 -0.613072
O4    O     O_R   0.250000 0.071660 0.519930 -0.613071
O5    O     O_R   0.250000 0.571660 0.480070 -0.613071
O6    O     O_R   0.750000 0.428340 0.480070 -0.613070
O7    O     O_R   0.250000 0.428340 0.519930 -0.613072
O8    O     O_R   0.750000 0.571660 0.519930 -0.613071
O9    O     O_R   0.250010 0.019960 0.928320 -0.624836
O10   O     O_R   0.749990 0.980040 0.928320 -0.624836
O11   O     O_R   0.250010 0.980040 0.071680 -0.624837
O12   O     O_R   0.750000 0.928340 0.980070 -0.613070
O13   O     O_R   0.749990 0.019960 0.071680 -0.624837
O14   O     O_R   0.750010 0.519960 0.928320 -0.624836
O15   O     O_R   0.249990 0.480040 0.928320 -0.624836
O16   O     O_R   0.750010 0.480040 0.071680 -0.624837
O17   O     O_R   0.249990 0.519960 0.071680 -0.624837
O18   O     O_R   0.750010 0.019960 0.428320 -0.624836
O19   O     O_R   0.249990 0.980040 0.428320 -0.624836
O20   O     O_R   0.750010 0.980040 0.571680 -0.624837
O21   O     O_R   0.249990 0.019960 0.571680 -0.624837
O22   O     O_R   0.250010 0.519960 0.428320 -0.624836
O23   O     O_R   0.250000 0.928340 0.019930 -0.613072
O24   O     O_R   0.749990 0.480040 0.428320 -0.624836
O25   O     O_R   0.250010 0.480040 0.571680 -0.624837
O26   O     O_R   0.749990 0.519960 0.571680 -0.624837
O27   O     O_R   0.341630 0.025860 0.025880 -0.624263
O28   O     O_R   0.658370 0.974140 0.025880 -0.624263
O29   O     O_R   0.341630 0.974140 0.974120 -0.624263
O30   O     O_R   0.658370 0.025860 0.974120 -0.624263
O31   O     O_R   0.841630 0.525860 0.025880 -0.624263
O32   O     O_R   0.158370 0.474140 0.025880 -0.624263
O33   O     O_R   0.841630 0.474140 0.974120 -0.624263
O34   O     O_R   0.750000 0.071660 0.019930 -0.613071
O35   O     O_R   0.158370 0.525860 0.974120 -0.624263
O36   O     O_R   0.841630 0.025860 0.525880 -0.624263
O37   O     O_R   0.158370 0.974140 0.525880 -0.624263
O38   O     O_R   0.841630 0.974140 0.474120 -0.624263
O39   O     O_R   0.158370 0.025860 0.474120 -0.624263
O40   O     O_R   0.341630 0.525860 0.525880 -0.624263
O41   O     O_R   0.658370 0.474140 0.525880 -0.624263
O42   O     O_R   0.341630 0.474140 0.474120 -0.624263
O43   O     O_R   0.658370 0.525860 0.474120 -0.624263
O44   O     O_R   0.158400 0.025850 0.025870 -0.596772
O45   O     O_R   0.750000 0.571660 0.980070 -0.613071
O46   O     O_R   0.841600 0.974150 0.025870 -0.596771
O47   O     O_R   0.158400 0.974150 0.974130 -0.596772
O48   O     O_R   0.841600 0.025850 0.974130 -0.596772
O49   O     O_R   0.658400 0.525850 0.025870 -0.596772
O50   O     O_R   0.341600 0.474150 0.025870 -0.596771
O51   O     O_R   0.658400 0.474150 0.974130 -0.596772
O52   O     O_R   0.341600 0.525850 0.974130 -0.596772
O53   O     O_R   0.658400 0.025850 0.525870 -0.596772
O54   O     O_R   0.341600 0.974150 0.525870 -0.596771
O55   O     O_R   0.658400 0.974150 0.474130 -0.596772
O56   O     O_R   0.250000 0.428340 0.980070 -0.613070
O57   O     O_R   0.341600 0.025850 0.474130 -0.596772
O58   O     O_R   0.158400 0.525850 0.525870 -0.596772
O59   O     O_R   0.841600 0.474150 0.525870 -0.596771
O60   O     O_R   0.158400 0.474150 0.474130 -0.596772
O61   O     O_R   0.841600 0.525850 0.474130 -0.596772
O62   O     O_R   0.198320 0.795840 0.295890 -0.621187
O63   O     O_R   0.801680 0.204160 0.295890 -0.621187
O64   O     O_R   0.198320 0.204160 0.704110 -0.621188
O65   O     O_R   0.801680 0.795840 0.704110 -0.621188
O66   O     O_R   0.698320 0.295840 0.295890 -0.621187
O67   O     O_R   0.750000 0.428340 0.019930 -0.613072
O68   O     O_R   0.301680 0.704160 0.295890 -0.621187
O69   O     O_R   0.698320 0.704160 0.704110 -0.621188
O70   O     O_R   0.301680 0.295840 0.704110 -0.621188
O71   O     O_R   0.698320 0.795840 0.795890 -0.621187
O72   O     O_R   0.301680 0.204160 0.795890 -0.621187
O73   O     O_R   0.698320 0.204160 0.204110 -0.621188
O74   O     O_R   0.301680 0.795840 0.204110 -0.621188
O75   O     O_R   0.198320 0.295840 0.795890 -0.621187
O76   O     O_R   0.801680 0.704160 0.795890 -0.621187
O77   O     O_R   0.198320 0.704160 0.204110 -0.621188
O78   O     O_R   0.250000 0.571660 0.019930 -0.613071
O79   O     O_R   0.801680 0.295840 0.204110 -0.621188
O80   O     O_R   0.301770 0.795830 0.295870 -0.617713
O81   O     O_R   0.698230 0.204170 0.295870 -0.617713
O82   O     O_R   0.301770 0.204170 0.704130 -0.617712
O83   O     O_R   0.698230 0.795830 0.704130 -0.617712
O84   O     O_R   0.801770 0.295830 0.295870 -0.617713
O85   O     O_R   0.198230 0.704170 0.295870 -0.617713
O86   O     O_R   0.801770 0.704170 0.704130 -0.617712
O87   O     O_R   0.198230 0.295830 0.704130 -0.617712
O88   O     O_R   0.801770 0.795830 0.795870 -0.617713
O89   O     O_R   0.750000 0.071660 0.480070 -0.613071
O90   O     O_R   0.198230 0.204170 0.795870 -0.617713
O91   O     O_R   0.801770 0.204170 0.204130 -0.617712
O92   O     O_R   0.198230 0.795830 0.204130 -0.617712
O93   O     O_R   0.301770 0.295830 0.795870 -0.617713
O94   O     O_R   0.698230 0.704170 0.795870 -0.617713
O95   O     O_R   0.301770 0.704170 0.204130 -0.617712
O96   O     O_R   0.698230 0.295830 0.204130 -0.617712
Zn1   Zn    Zn3+2 0.250010 0.034530 0.034550 0.996408
Zn2   Zn    Zn3+2 0.249990 0.965470 0.534550 0.996408
Zn3   Zn    Zn3+2 0.750010 0.965470 0.465450 0.996408
Zn4   Zn    Zn3+2 0.249990 0.034530 0.465450 0.996407
Zn5   Zn    Zn3+2 0.250010 0.534530 0.534550 0.996408
Zn6   Zn    Zn3+2 0.749990 0.465470 0.534550 0.996408
Zn7   Zn    Zn3+2 0.250010 0.465470 0.465450 0.996408
Zn8   Zn    Zn3+2 0.749990 0.534530 0.465450 0.996407
Zn9   Zn    Zn3+2 0.180950 0.750000 0.250000 0.976842
Zn10  Zn    Zn3+2 0.819050 0.250000 0.250000 0.976842
Zn11  Zn    Zn3+2 0.180950 0.250000 0.750000 0.976842
Zn12  Zn    Zn3+2 0.749990 0.965470 0.034550 0.996408
Zn13  Zn    Zn3+2 0.819050 0.750000 0.750000 0.976842
Zn14  Zn    Zn3+2 0.680950 0.250000 0.250000 0.976842
Zn15  Zn    Zn3+2 0.319050 0.750000 0.250000 0.976842
Zn16  Zn    Zn3+2 0.680950 0.750000 0.750000 0.976842
Zn17  Zn    Zn3+2 0.319050 0.250000 0.750000 0.976842
Zn18  Zn    Zn3+2 0.250010 0.965470 0.965450 0.996408
Zn19  Zn    Zn3+2 0.749990 0.034530 0.965450 0.996407
Zn20  Zn    Zn3+2 0.750010 0.534530 0.034550 0.996408
Zn21  Zn    Zn3+2 0.249990 0.465470 0.034550 0.996408
Zn22  Zn    Zn3+2 0.750010 0.465470 0.965450 0.996408
Zn23  Zn    Zn3+2 0.249990 0.534530 0.965450 0.996407
Zn24  Zn    Zn3+2 0.750010 0.034530 0.534550 0.996408

loop_
_geom_bond_atom_site_label_1
_geom_bond_atom_site_label_2
_ccdc_geom_bond_type
C176  H86   S    
C87   C91   A    
C109  H31   S    
C159  C190  S    
O48   Zn19  S    
C15   C151  S    
C9    C143  S    
O72   Zn17  S    
O22   Zn7   S    
C169  H80   S    
O95   Zn15  S    
O36   Zn24  S    
C152  H62   S    
C72   H89   S    
C2    O2    A    
C195  C203  S    
C19   C113  S    
C167  C185  A    
C105  C123  A    
C114  C131  A    
C106  H28   S    
O62   Zn9   S    
C130  C141  A    
C112  O10   A    
O26   Zn6   S    
C110  H32   S    
C138  H59   S    
C58   C75   A    
C32   C104  S    
C48   C65   A    
O50   Zn21  S    
C62   H34   S    
C174  C191  A    
C1    C187  S    
C155  H65   S    
C129  H50   S    
C122  H43   S    
C113  C155  A    
C23   O77   A    
C203  O78   A    
O73   Zn14  S    
C21   O75   A    
C210  C224  A    
C119  C200  A    
C165  C183  A    
C32   O40   A    
O51   Zn22  S    
C166  C184  A    
C169  C187  A    
C44   C81   A    
C13   C198  S    
C47   C64   A    
C206  C207  A    
C8    O62   A    
C116  C133  A    
C205  C223  A    
C185  C202  A    
C75   C76   A    
C78   C82   A    
C159  O34   A    
C206  I9    S    
C175  H85   S    
C5    C213  A    
C30   C102  S    
O78   Zn23  S    
C11   O65   A    
C30   O36   A    
C31   C100  S    
C90   C153  A    
C86   C99   A    
O59   Zn6   S    
C117  H38   S    
C29   C98   S    
C19   O91   A    
C137  H58   S    
C38   C224  S    
C5    C39   S    
C53   C89   A    
C23   O95   A    
O39   Zn4   S    
C134  H55   S    
C53   C71   A    
C51   C83   A    
C118  C136  A    
O37   Zn2   S    
C43   C61   A    
C68   O8    A    
C177  C195  A    
C79   C123  A    
C182  C199  A    
C74   H7    S    
C88   C102  A    
C139  C150  A    
C112  O12   A    
O55   Zn3   S    
C54   C88   A    
C116  C197  A    
C5    C216  A    
C212  I15   S    
C146  C164  A    
C19   O73   A    
O11   Zn1   S    
C139  H60   S    
C45   C80   A    
C210  I13   S    
C184  H94   S    
C128  H49   S    
C180  C198  A    
C111  C194  A    
C32   O42   A    
C83   C86   A    
C120  C138  A    
C88   C89   A    
C3    C37   S    
C6    C42   S    
O6    Zn6   S    
O66   Zn14  S    
C52   C91   A    
C51   C69   A    
C46   O24   A    
C175  C193  A    
C136  C146  A    
C8    O80   A    
C56   C95   A    
C33   O41   A    
O74   Zn15  S    
C207  C223  A    
C135  C157  A    
C80   C97   A    
C12   O84   A    
C49   H15   S    
C40   O57   A    
C63   H1    S    
C106  C125  A    
C31   O39   A    
C181  O56   A    
C68   O26   A    
C183  H93   S    
O79   Zn10  S    
C16   O70   A    
C163  H73   S    
C208  I11   S    
C208  C222  A    
C110  C129  A    
C39   O53   A    
O58   Zn5   S    
C1    O9    A    
C147  C165  A    
C42   O59   A    
C129  C135  A    
C123  H44   S    
C46   C201  S    
O10   Zn19  S    
C4    C40   S    
C74   C77   A    
O90   Zn11  S    
C153  H63   S    
C154  H64   S    
C215  I2    S    
C220  I7    S    
C114  H35   S    
C13   O3    A    
O38   Zn3   S    
O56   Zn21  S    
C66   C67   A    
C24   O4    A    
C148  O23   A    
C25   O96   A    
C108  C190  A    
C209  I12   S    
C115  C132  A    
C60   C92   A    
C138  C149  A    
C3    C211  A    
C168  C186  A    
C49   C66   A    
C154  C172  A    
C221  I8    S    
O47   Zn18  S    
C78   C96   A    
C33   O43   A    
C20   C101  S    
C145  C163  A    
O45   Zn20  S    
C178  C196  A    
C14   C147  S    
O52   Zn23  S    
O85   Zn9   S    
C50   C67   A    
O14   Zn22  S    
C192  C194  S    
C57   C202  S    
C57   O25   A    
C196  C214  S    
C29   O32   A    
C119  H40   S    
C167  H77   S    
O2    Zn2   S    
C110  C193  A    
C65   H67   S    
C9    O63   A    
C156  H66   S    
O29   Zn18  S    
C218  I5    S    
C22   O76   A    
C20   O74   A    
C10   C146  S    
O89   Zn24  S    
C7    C220  A    
C28   C99   S    
C185  H95   S    
O53   Zn24  S    
C186  H96   S    
C140  H61   S    
C148  O11   A    
C48   C86   A    
C14   O68   A    
O30   Zn19  S    
C34   C223  S    
C192  O16   A    
C218  C221  A    
C87   C100  A    
C212  C224  A    
C12   O66   A    
C130  H51   S    
C31   O37   A    
O69   Zn16  S    
C184  C201  A    
C108  H30   S    
C177  H87   S    
C219  I6    S    
O28   Zn12  S    
C178  H88   S    
C53   H19   S    
C27   O30   A    
C34   O47   A    
C25   O79   A    
C48   H14   S    
C166  H76   S    
C214  O89   A    
C183  C200  A    
C125  H46   S    
O61   Zn8   S    
O25   Zn5   S    
C71   C72   A    
C121  C139  A    
C58   H24   S    
C122  C140  A    
C131  H52   S    
C10   O82   A    
C17   O71   A    
C101  C154  A    
C13   O20   A    
C18   O72   A    
C22   O94   A    
C143  C161  A    
C7    C41   S    
C28   O31   A    
C55   C87   A    
C75   H8    S    
C26   C97   S    
C55   C73   A    
O15   Zn23  S    
C16   C150  S    
C91   C102  A    
C47   C78   A    
C59   C76   A    
C117  C198  A    
O41   Zn6   S    
C3    C209  A    
C36   C222  S    
C2    C197  S    
C71   H4    S    
C157  H68   S    
C115  C196  A    
C50   C84   A    
C95   C104  A    
C14   O85   A    
C156  C174  A    
C171  H81   S    
C171  C188  A    
C64   H12   S    
O84   Zn10  S    
O7    Zn7   S    
C73   H2    S    
C214  O18   A    
O8    Zn8   S    
C68   C204  S    
C173  C190  A    
C209  C212  A    
C107  H29   S    
C122  C204  A    
O4    Zn4   S    
C34   O44   A    
C116  H37   S    
C47   H13   S    
C7    C218  A    
C36   O46   A    
C18   C79   S    
C133  C144  A    
C59   H25   S    
O83   Zn16  S    
C181  C193  S    
O31   Zn20  S    
C124  C128  A    
C144  C162  A    
O68   Zn15  S    
C182  H92   S    
O27   Zn1   S    
C216  I3    S    
C27   C96   S    
C51   H17   S    
C27   O28   A    
C117  C134  A    
C192  O67   A    
O60   Zn7   S    
C56   C74   A    
C114  C195  A    
C173  H83   S    
C89   C100  A    
C174  H84   S    
C126  H47   S    
C203  O17   A    
C70   H3    S    
C158  H69   S    
C43   H9    S    
C219  C220  A    
C81   C96   A    
C69   H56   S    
O35   Zn23  S    
C133  H54   S    
C213  I16   S    
C46   O6    A    
C61   C64   A    
C165  H75   S    
C62   C63   A    
O17   Zn21  S    
C109  C128  A    
C207  I10   S    
C107  C189  A    
C70   C73   A    
C77   H6    S    
C84   C85   A    
C136  H57   S    
C132  C143  A    
O44   Zn1   S    
O42   Zn7   S    
C94   C103  A    
C82   C97   A    
C24   O21   A    
C134  C145  A    
C205  I1    S    
C66   H78   S    
C33   C103  S    
C84   C99   A    
C12   C149  S    
C137  C147  A    
C25   C141  S    
C17   C90   S    
C45   H11   S    
O77   Zn9   S    
O81   Zn14  S    
C121  H42   S    
C2    O19   A    
C15   O86   A    
C180  H91   S    
C21   C135  S    
C172  C189  A    
O3    Zn3   S    
C50   H16   S    
O1    Zn1   S    
C179  H90   S    
O75   Zn11  S    
C152  C169  A    
C36   O48   A    
C45   C63   A    
C65   C69   A    
C150  C167  A    
O82   Zn17  S    
C90   C125  A    
C58   C94   A    
C160  C177  A    
C164  C182  A    
C67   H45   S    
C141  C158  A    
O19   Zn4   S    
C76   H5    S    
O67   Zn22  S    
C176  C194  A    
C161  C178  A    
C170  O14   A    
C111  H33   S    
O64   Zn11  S    
C93   C94   A    
C215  C216  A    
C42   O61   A    
C11   O83   A    
C10   O64   A    
C9    O81   A    
C132  H53   S    
O80   Zn15  S    
C26   O29   A    
C41   O58   A    
C20   O92   A    
C206  C222  A    
C121  C202  A    
C21   O93   A    
C115  H36   S    
C151  C168  A    
C15   O69   A    
O21   Zn2   S    
C111  C130  A    
C92   C103  A    
C24   C199  S    
C17   O88   A    
C168  H79   S    
O33   Zn22  S    
C23   C142  S    
C85   C98   A    
O23   Zn18  S    
C181  O15   A    
C164  H74   S    
C6    C221  A    
O76   Zn13  S    
C35   O22   A    
C18   O90   A    
O87   Zn11  S    
C4    C215  A    
C60   H26   S    
C120  C201  A    
C35   O5    A    
C161  H71   S    
C162  H72   S    
C118  C199  A    
C93   C104  A    
C37   O49   A    
C35   C200  S    
C60   C77   A    
O34   Zn19  S    
C118  H39   S    
C119  C137  A    
C49   C85   A    
C105  H27   S    
C213  C217  A    
C11   C145  S    
C39   O55   A    
C179  C197  A    
C170  O45   A    
C44   C62   A    
C217  I4    S    
C56   H22   S    
C83   C98   A    
C92   C95   A    
O88   Zn13  S    
C54   H20   S    
C26   O27   A    
O70   Zn17  S    
O43   Zn8   S    
C44   H10   S    
O96   Zn14  S    
C140  C151  A    
O92   Zn9   S    
C153  C171  A    
C101  C126  A    
C186  C204  A    
C8    C144  S    
O54   Zn2   S    
C162  C179  A    
C131  C142  A    
C170  C191  S    
C157  C175  A    
O20   Zn24  S    
C158  C176  A    
O24   Zn8   S    
C210  C211  A    
C211  I14   S    
C127  H48   S    
C124  C156  A    
O63   Zn10  S    
C16   O87   A    
C1    O1    A    
C38   O50   A    
O32   Zn21  S    
O49   Zn20  S    
C28   O33   A    
O40   Zn5   S    
C205  C208  A    
C148  C189  S    
O71   Zn16  S    
C41   O60   A    
O5    Zn5   S    
C120  H41   S    
O91   Zn10  S    
O65   Zn13  S    
C159  O13   A    
C149  C166  A    
C107  C126  A    
C142  C160  A    
C80   C81   A    
C112  C188  S    
O12   Zn12  S    
C22   C124  S    
C113  C127  A    
C61   H23   S    
C30   O38   A    
O86   Zn13  S    
C105  C187  A    
O46   Zn12  S    
C29   O35   A    
C106  C188  A    
O93   Zn17  S    
C155  C173  A    
O57   Zn4   S    
C109  C191  A    
O9    Zn18  S    
C108  C127  A    
C52   C70   A    
C6    C219  A    
O13   Zn12  S    
C57   O7    A    
O16   Zn20  S    
C54   C72   A    
C52   H18   S    
C4    C217  A    
C55   H21   S    
C172  H82   S    
C163  C180  A    
C43   C82   A    
C79   C152  A    
C59   C93   A    
O18   Zn3   S    
C160  H70   S    
C40   O54   A    
C37   O51   A    
O94   Zn16  S    
C38   O52   A    
