data_mof_unit_65946.cif
_audit_creation_date              2012-12-10T19:33:05-0500
_audit_creation_method            fapswitch 2.2
_symmetry_space_group_name_H-M    P1
_symmetry_Int_Tables_number       1
_space_group_crystal_system       triclinic
_cell_length_a                    21.627501
_cell_length_b                    21.649742
_cell_length_c                    22.04966
_cell_angle_alpha                 118.628217
_cell_angle_beta                  119.522598
_cell_angle_gamma                 90.608635
_cell_volume                      7462.78391066

loop_
_atom_site_label
_atom_site_type_symbol
_atom_type_description
_atom_site_fract_x
_atom_site_fract_y
_atom_site_fract_z
_atom_type_partial_charge
C1    C     C_R   0.500558 0.120337 0.500361 0.908344
C2    C     C_3   0.717717 0.309902 0.048704 -0.490542
C3    C     C_3   0.794013 0.294349 0.082699 0.124256
C4    C     C_3   0.772164 0.210301 0.049817 -0.488347
C5    C     C_3   0.727638 0.160820 0.953318 -0.432998
C6    C     C_1   0.838708 0.338956 0.174050 -0.045348
C7    C     C_1   0.664773 0.163333 0.826060 -0.006153
C8    C     C_1   0.626629 0.125511 0.751049 -0.158094
C9    C     C_R   0.440335 0.210632 0.482154 0.067444
C10   C     C_R   0.502466 0.186810 0.501559 -0.146109
C11   C     C_R   0.567619 0.229843 0.522181 -0.235556
C12   C     C_R   0.581382 0.080921 0.662140 0.895910
C13   C     C_R   0.568172 0.294838 0.522650 0.359892
C14   C     C_R   0.502845 0.315787 0.501390 -0.172661
C15   C     C_R   0.440446 0.272140 0.481510 -0.011702
C16   C     C_3   0.361838 0.264608 0.457012 0.252538
C17   C     C_3   0.361375 0.193506 0.457301 -0.475784
C18   C     C_3   0.208475 0.790275 0.047011 -0.407042
C19   C     C_3   0.291201 0.709271 0.049923 -0.402696
C20   C     C_3   0.242877 0.660566 0.952815 -0.355685
C21   C     C_1   0.125549 0.624772 0.751186 -0.134618
C22   C     C_3   0.290607 0.790325 0.082239 0.285126
C23   C     C_R   0.499193 0.879543 0.499245 0.913751
C24   C     C_3   0.160193 0.741307 0.949929 -0.484832
C25   C     C_3   0.209104 0.708054 0.917830 0.242541
C26   C     C_3   0.273771 0.773071 0.951446 0.423106
C27   C     C_3   0.322409 0.821000 0.049085 -0.441181
C28   C     C_1   0.163055 0.662072 0.826265 -0.044354
C29   C     C_1   0.336000 0.836174 0.173713 -0.089401
C30   C     C_1   0.373573 0.873965 0.248790 -0.185534
C31   C     C_R   0.474063 0.801025 0.539730 -0.013384
C32   C     C_R   0.494017 0.810727 0.492993 -0.174507
C33   C     C_R   0.503779 0.751199 0.436470 0.526033
C34   C     C_R   0.418620 0.918823 0.337806 0.895637
C35   C     C_R   0.505514 0.687799 0.438700 -0.233938
C36   C     C_R   0.498313 0.684820 0.497216 -0.106302
C37   C     C_R   0.478474 0.739981 0.543866 -0.015735
C38   C     C_3   0.507113 0.784162 0.634859 0.282360
C39   C     C_3   0.500910 0.851589 0.629414 -0.478387
C40   C     C_R   0.879455 0.499056 0.498852 0.901891
C41   C     C_R   0.919116 0.419209 0.337896 0.888153
C42   C     C_R   0.119726 0.499708 0.499068 0.908039
C43   C     C_R   0.081203 0.580828 0.662172 0.923630
C44   C     C_R   0.620838 0.502461 0.500799 0.939139
C45   C     C_3   0.673046 0.266546 0.951455 0.433521
C46   C     C_R   0.500129 0.380284 0.500376 0.998016
C47   C     C_R   0.379469 0.499433 0.499588 0.946762
C48   C     C_R   0.500547 0.620162 0.499596 0.912505
C49   C     C_R   0.812111 0.564695 0.556951 -0.016856
C50   C     C_R   0.815238 0.498920 0.502070 -0.104351
C51   C     C_R   0.758230 0.431930 0.455074 -0.182706
C52   C     C_R   0.693810 0.433433 0.454661 -0.111749
C53   C     C_R   0.688219 0.501534 0.503881 -0.064412
C54   C     C_R   0.750617 0.566391 0.560947 -0.086278
C55   C     C_3   0.758271 0.643450 0.577103 0.659925
C56   C     C_3   0.788674 0.255606 0.949935 -0.525434
C57   C     C_3   0.824690 0.638540 0.569122 0.217627
C58   C     C_R   0.249276 0.560661 0.560392 0.130738
C59   C     C_R   0.185109 0.498754 0.498527 -0.171547
C60   C     C_R   0.187728 0.431988 0.443158 -0.299324
C61   C     C_R   0.251332 0.431050 0.441033 0.567782
C62   C     C_R   0.313574 0.496627 0.499665 -0.209639
C63   C     C_R   0.313196 0.559269 0.561575 0.111421
C64   C     C_3   0.331634 0.637929 0.586537 -0.510113
C65   C     C_3   0.260604 0.639247 0.584772 -0.460306
C66   C     C_3   0.835124 0.313801 0.047301 0.995053
C67   C     C_1   0.875342 0.375475 0.249039 -0.191056
C68   C     C_3   0.710878 0.209736 0.917468 0.095010
H1    H     H_    0.726881 0.370422 0.076030 0.199405
H2    H     H_    0.685532 0.294477 0.068796 0.190767
H3    H     H_    0.820573 0.192767 0.078168 0.186061
H4    H     H_    0.617749 0.213596 0.538236 0.201508
H5    H     H_    0.323366 0.254567 0.394060 0.143440
H6    H     H_    0.357779 0.196940 0.507361 0.246038
H7    H     H_    0.323304 0.141648 0.393859 0.168798
H8    H     H_    0.113405 0.695851 0.926667 0.208239
H9    H     H_    0.680790 0.309074 0.938856 0.141039
H10   H     H_    0.184523 0.768694 0.070336 0.189498
H11   H     H_    0.349775 0.707942 0.074332 0.182140
H12   H     H_    0.268840 0.685963 0.073186 0.170818
H13   H     H_    0.197026 0.614139 0.929491 0.168122
H14   H     H_    0.277948 0.635188 0.930461 0.213476
H15   H     H_    0.323237 0.879563 0.072192 0.131920
H16   H     H_    0.381573 0.821530 0.074119 0.202891
H17   H     H_    0.246955 0.808287 0.928908 0.059256
H18   H     H_    0.206679 0.848046 0.069139 0.181305
H19   H     H_    0.134531 0.775345 0.925379 0.194717
H20   H     H_    0.819400 0.217899 0.931473 0.184179
H21   H     H_    0.515847 0.642835 0.397733 0.206136
H22   H     H_    0.467492 0.767027 0.646394 0.095119
H23   H     H_    0.456205 0.872232 0.635686 0.172106
H24   H     H_    0.555388 0.895676 0.667442 0.226778
H25   H     H_    0.761572 0.379529 0.415192 0.156731
H26   H     H_    0.647915 0.382064 0.414773 0.169497
H27   H     H_    0.780409 0.284611 0.917553 0.194228
H28   H     H_    0.814506 0.634548 0.512556 0.128240
H29   H     H_    0.139728 0.381862 0.400018 0.168947
H30   H     H_    0.383779 0.675021 0.650593 0.218840
H31   H     H_    0.329115 0.642742 0.537403 0.187070
H32   H     H_    0.271756 0.677272 0.647784 0.204445
H33   H     H_    0.216569 0.644524 0.534340 0.212123
H34   H     H_    0.676189 0.119302 0.927002 0.185093
H35   H     H_    0.761203 0.127236 0.934942 0.192982
H36   H     H_    0.736447 0.199443 0.068892 0.195728
O1    O     O_R   0.448270 0.091610 0.500010 -0.615725
O2    O     O_R   0.908540 0.448310 0.500030 -0.618619
O3    O     O_R   0.938770 0.490290 0.377140 -0.622039
O4    O     O_R   0.938740 0.386860 0.377150 -0.621566
O5    O     O_R   0.091820 0.551690 0.499970 -0.633047
O6    O     O_R   0.091790 0.448250 0.499980 -0.611166
O7    O     O_R   0.061630 0.613140 0.622850 -0.593645
O8    O     O_R   0.061600 0.509710 0.622860 -0.615184
O9    O     O_R   0.626360 0.534710 0.569400 -0.636038
O10   O     O_R   0.557050 0.465350 0.430680 -0.619303
O11   O     O_R   0.534700 0.443070 0.569360 -0.577724
O12   O     O_R   0.551720 0.091610 0.499980 -0.630743
O13   O     O_R   0.465400 0.373710 0.430650 -0.633917
O14   O     O_R   0.443050 0.534650 0.569320 -0.609865
O15   O     O_R   0.373740 0.465290 0.430600 -0.610598
O16   O     O_R   0.534700 0.626290 0.569350 -0.602527
O17   O     O_R   0.465390 0.556930 0.430640 -0.640958
O18   O     O_R   0.509700 0.061430 0.622870 -0.611797
O19   O     O_R   0.613150 0.061430 0.622840 -0.614677
O20   O     O_R   0.448280 0.908390 0.500020 -0.635940
O21   O     O_R   0.551730 0.908390 0.499990 -0.566123
O22   O     O_R   0.386850 0.938570 0.377160 -0.624215
O23   O     O_R   0.490300 0.938570 0.377130 -0.603078
O24   O     O_R   0.908570 0.551750 0.500020 -0.606133
Zn1   Zn    Zn3+2 0.430930 0.000000 0.500020 0.968700
Zn2   Zn    Zn3+2 0.569070 0.000000 0.499980 1.021217
Zn3   Zn    Zn3+2 0.000200 0.569060 0.500000 0.998314
Zn4   Zn    Zn3+2 0.000160 0.430940 0.500000 0.991831
Zn5   Zn    Zn3+2 0.546320 0.546310 0.592620 1.031918
Zn6   Zn    Zn3+2 0.453780 0.453690 0.407380 0.979130
O25   O     O_3   0.593740 0.240339 0.909505 -0.590061
C69   C     C_3   0.567803 0.178666 0.907139 -0.244199
H37   H     H_    0.603533 0.182324 0.966711 0.140525
H38   H     H_    0.560271 0.126358 0.853504 0.165918
H39   H     H_    0.511489 0.176109 0.895541 0.187089
Cl1   Cl    Cl    0.650048 0.347470 0.548397 -0.628802
Cl2   Cl    Cl    0.357990 0.337693 0.538949 -0.562013
O26   O     O_3   0.318726 0.743811 0.921769 -0.596367
C70   C     C_3   0.349932 0.793196 0.912078 -0.323070
H40   H     H_    0.382095 0.849629 0.971224 0.158065
H41   H     H_    0.305394 0.796220 0.859907 0.163416
H42   H     H_    0.389458 0.771732 0.895655 0.205882
O27   O     O_3   0.517575 0.756911 0.384173 -0.563040
C71   C     C_3   0.448259 0.729416 0.307220 -0.299822
H43   H     H_    0.458789 0.735169 0.265468 0.202592
H44   H     H_    0.410338 0.761867 0.315832 0.133182
H45   H     H_    0.420281 0.669337 0.275281 0.155478
Cl3   Cl    Cl    0.602390 0.793556 0.703236 -0.624514
Cl4   Cl    Cl    0.682033 0.648489 0.495779 -0.660914
O28   O     O_3   0.782552 0.701994 0.659336 -0.553577
C72   C     C_3   0.730803 0.693254 0.677927 -0.077408
H46   H     H_    0.736409 0.650838 0.693239 0.153262
H47   H     H_    0.672289 0.679850 0.626762 0.204359
H48   H     H_    0.744658 0.746625 0.734723 0.208803
Cl5   Cl    Cl    0.914869 0.701734 0.662815 -0.519621
O29   O     O_3   0.255333 0.366072 0.386344 -0.581318
C73   C     C_3   0.201915 0.343623 0.302942 -0.304024
H49   H     H_    0.213937 0.299097 0.261375 0.189214
H50   H     H_    0.205283 0.390020 0.294445 0.157507
H51   H     H_    0.144154 0.319955 0.282369 0.154877
O30   O     O_3   0.828582 0.383304 0.056952 -0.669844
C74   C     C_3   0.892054 0.445969 0.129527 -0.204994
H52   H     H_    0.937407 0.449357 0.119801 0.199986
H53   H     H_    0.913328 0.446005 0.186703 0.169020
H54   H     H_    0.875824 0.496779 0.140242 0.168560
O31   O     O_3   0.912992 0.318649 0.085224 -0.626580
C75   C     C_3   0.931389 0.259045 0.092031 -0.393191
H55   H     H_    0.892636 0.203805 0.034070 0.166900
H56   H     H_    0.936974 0.265860 0.147834 0.179515
H57   H     H_    0.987597 0.261511 0.103335 0.203560

loop_
_geom_bond_atom_site_label_1
_geom_bond_atom_site_label_2
_ccdc_geom_bond_type
C55   O28   S    
C75   H55   S    
C5    H35   S    
O30   C74   S    
C41   O4    A    
C20   H14   S    
C70   H42   S    
C19   C20   S    
C71   H45   S    
C65   H33   S    
C3    C6    S    
C47   C62   S    
C73   H49   S    
C7    C8    T    
C14   C46   S    
C53   C54   A    
C25   C28   S    
O2    Zn4   S    
C75   H56   S    
C26   C27   S    
C18   H18   S    
C46   O11   A    
C18   C24   S    
C27   H16   S    
C22   C29   S    
C42   O5    A    
C71   H44   S    
C69   H39   S    
C38   C39   S    
O7    Zn3   S    
C40   C50   S    
C56   H20   S    
C72   H47   S    
C20   C25   S    
C56   H27   S    
C70   H40   S    
C40   O24   A    
C49   C57   S    
C55   Cl4   S    
O16   Zn5   S    
C38   Cl3   S    
C33   O27   S    
O27   C71   S    
C7    C68   S    
C5    H34   S    
C44   C53   S    
C47   O14   A    
C35   C36   A    
C16   C17   S    
C57   H28   S    
O5    Zn3   S    
C52   H26   S    
C1    O12   A    
C13   C14   A    
O17   Zn6   S    
C2    H1    S    
C9    C10   A    
O18   Zn1   S    
C66   O30   S    
C8    C12   S    
C23   O21   A    
C64   H30   S    
C57   Cl5   S    
C44   O10   A    
C59   C60   A    
C49   C54   A    
O9    Zn5   S    
C20   H13   S    
C72   H48   S    
C74   H53   S    
C19   H12   S    
C43   O7    A    
C45   C68   S    
C5    C68   S    
O13   Zn6   S    
O21   Zn2   S    
C39   H23   S    
C73   H50   S    
C36   C48   S    
C64   H31   S    
C2    C45   S    
C75   H57   S    
C45   O25   S    
O15   Zn6   S    
C30   C34   S    
C16   H5    S    
C13   Cl1   S    
O25   C69   S    
C19   C22   S    
C24   C25   S    
C41   C67   S    
C60   H29   S    
C61   O29   S    
C48   O17   A    
C11   H4    S    
C34   O23   A    
O1    Zn1   S    
O11   Zn5   S    
O22   Zn1   S    
C58   C59   A    
C56   C68   S    
O8    Zn4   S    
C31   C37   A    
C46   O13   A    
C60   C61   A    
C37   C38   S    
C58   C65   S    
C31   C32   A    
C14   C15   A    
C34   O22   A    
C62   C63   A    
C50   C51   A    
O10   Zn6   S    
C12   O18   A    
C71   H43   S    
C19   H11   S    
O28   C72   S    
O14   Zn5   S    
C51   H25   S    
C35   H21   S    
O3    Zn3   S    
C18   H10   S    
C21   C28   T    
C44   O9    A    
C22   C27   S    
C55   C57   S    
O19   Zn2   S    
C17   H6    S    
C3    C66   S    
C43   O8    A    
C3    C4    S    
O24   Zn3   S    
C39   H24   S    
C73   H51   S    
C52   C53   A    
C48   O16   A    
C69   H38   S    
C40   O2    A    
C9    C17   S    
C58   C63   A    
C70   H41   S    
C54   C55   S    
C36   C37   A    
C32   C33   A    
C41   O3    A    
O6    Zn4   S    
C18   C22   S    
C66   O31   S    
C24   H8    S    
C1    C10   S    
C65   H32   S    
C69   H37   S    
C42   C59   S    
C23   O20   A    
C38   H22   S    
C23   C32   S    
C27   H15   S    
C2    C3    S    
C25   C26   S    
O23   Zn2   S    
C51   C52   A    
C6    C67   T    
O29   C73   S    
C11   C13   A    
C74   H52   S    
C12   O19   A    
C2    H2    S    
C26   H17   S    
C56   C66   S    
C4    H36   S    
C64   C65   S    
C47   O15   A    
C33   C35   A    
C31   C39   S    
O20   Zn1   S    
C16   Cl2   S    
C42   O6    A    
C61   C62   A    
C24   H19   S    
O4    Zn4   S    
C10   C11   A    
C29   C30   T    
C63   C64   S    
C4    C5    S    
O12   Zn2   S    
C74   H54   S    
C49   C50   A    
O31   C75   S    
C72   H46   S    
C17   H7    S    
O26   C70   S    
C45   H9    S    
C26   O26   S    
C4    H3    S    
C21   C43   S    
C15   C16   S    
C9    C15   A    
C1    O1    A    
