data_mof_unit_29554.cif
_audit_creation_date              2012-12-10T18:00:19-0500
_audit_creation_method            fapswitch 2.2
_symmetry_space_group_name_H-M    P1
_symmetry_Int_Tables_number       1
_space_group_crystal_system       triclinic
_cell_length_a                    10.907642
_cell_length_b                    9.540072
_cell_length_c                    10.651015
_cell_angle_alpha                 89.856332
_cell_angle_beta                  89.450577
_cell_angle_gamma                 90.661257
_cell_volume                      1108.21275295

loop_
_atom_site_label
_atom_site_type_symbol
_atom_type_description
_atom_site_fract_x
_atom_site_fract_y
_atom_site_fract_z
_atom_type_partial_charge
C1    C     C_R   0.872822 0.503568 0.515029 -0.359265
C2    C     C_3   0.505240 0.365966 0.041981 -0.249585
C3    C     C_3   0.400844 0.424159 0.961410 0.423314
C4    C     C_3   0.592329 0.573089 0.037090 0.420758
C5    C     C_3   0.495298 0.498340 0.876731 -0.140499
C6    C     C_3   0.498424 0.499610 0.122531 -0.126336
C7    C     C_R   0.463579 0.073924 0.396768 0.065834
C8    C     C_R   0.535748 0.926025 0.603465 0.061248
C9    C     C_R   0.535498 0.074326 0.603532 0.067053
C10   C     C_R   0.463048 0.925554 0.396944 0.048127
C11   C     C_R   0.059731 0.378076 0.479867 0.306690
C12   C     C_R   0.128914 0.498737 0.511104 -0.343141
C13   C     C_R   0.942417 0.630491 0.526280 0.272408
C14   C     C_R   0.936513 0.375226 0.514263 0.296215
C15   C     C_R   0.067168 0.619237 0.554148 0.276149
C16   C     C_R   0.262375 0.499346 0.502422 0.978928
C17   C     C_R   0.738193 0.501255 0.505027 0.941542
C18   C     C_R   0.500062 0.500045 0.259296 0.870290
C19   C     C_R   0.497777 0.499620 0.740440 0.889114
C20   C     C_3   0.392245 0.556426 0.043784 -0.235790
C21   C     C_3   0.600798 0.440965 0.955427 -0.300992
C22   C     C_3   0.488008 0.631605 0.957250 -0.243513
Cu1   Cu    Cu3+1 0.500000 0.640660 0.500000 1.068750
Cu2   Cu    Cu3+1 0.500000 0.359340 0.500000 1.076092
H1    H     H_    0.433874 0.128598 0.313782 0.129251
H2    H     H_    0.836386 0.617913 0.924381 0.359427
H3    H     H_    0.240774 0.221505 0.226885 0.383226
H4    H     H_    0.751364 0.894793 0.375570 0.389260
H5    H     H_    0.776689 0.180482 0.761090 0.375521
H6    H     H_    0.267253 0.729718 0.811174 0.366526
H7    H     H_    0.565236 0.871330 0.686616 0.146720
H8    H     H_    0.564250 0.129313 0.686832 0.127548
H9    H     H_    0.432511 0.870373 0.314261 0.146339
H10   H     H_    0.306687 0.602656 0.081789 0.202652
H11   H     H_    0.686572 0.394853 0.918015 0.204829
H12   H     H_    0.482488 0.740715 0.921379 0.180893
H13   H     H_    0.511362 0.257051 0.078191 0.188683
H14   H     H_    0.381537 0.143180 0.852032 0.331748
N1    N     N_R   0.500000 0.852070 0.500000 -0.179014
N2    N     N_R   0.500000 0.147930 0.500000 -0.167795
O1    O     O_R   0.319640 0.618740 0.499990 -0.550361
O2    O     O_2   0.235199 0.360594 0.781585 -0.243893
O3    O     O_3   0.312068 0.149537 0.912243 -0.491145
O4    O     O_2   0.678278 0.810066 0.138358 -0.247372
O5    O     O_2   0.794821 0.595597 0.177789 -0.249896
O6    O     O_3   0.810157 0.710522 0.955984 -0.436610
O7    O     O_2   0.183913 0.136514 0.467441 -0.197519
O8    O     O_2   0.013726 0.164690 0.321230 -0.179822
O9    O     O_3   0.214616 0.303935 0.276260 -0.542641
O10   O     O_2   0.810690 0.846230 0.612063 -0.258383
O11   O     O_2   0.986870 0.904078 0.476228 -0.119343
O12   O     O_R   0.680360 0.381260 0.500010 -0.526486
O13   O     O_3   0.795006 0.804482 0.371136 -0.425270
O14   O     O_2   0.807031 0.135343 0.495828 -0.233714
O15   O     O_2   0.981279 0.136485 0.640041 -0.129089
O16   O     O_3   0.784981 0.266238 0.708937 -0.573355
O17   O     O_2   0.206011 0.852604 0.588934 -0.208456
O18   O     O_2   0.040512 0.808125 0.741527 -0.163806
O19   O     O_3   0.234527 0.656489 0.754472 -0.522978
O20   O     O_R   0.680360 0.618740 0.500010 -0.528269
O21   O     O_R   0.319640 0.381260 0.499990 -0.517518
O22   O     O_R   0.499970 0.618770 0.316850 -0.583250
O23   O     O_R   0.500030 0.381230 0.683150 -0.591231
O24   O     O_R   0.500030 0.618770 0.683150 -0.597299
O25   O     O_R   0.499970 0.381230 0.316850 -0.599674
O26   O     O_2   0.167315 0.340376 0.000308 -0.184187
S1    S     S_3+6 0.273330 0.319575 0.911543 0.077997
S2    S     S_3+6 0.721856 0.674844 0.082609 0.071739
S3    S     S_3+6 0.117506 0.239024 0.386018 0.111784
S4    S     S_3+6 0.883718 0.801519 0.499015 0.147201
S5    S     S_3+6 0.877727 0.221389 0.588877 0.121859
S6    S     S_3+6 0.136718 0.740708 0.660561 0.121786

loop_
_geom_bond_atom_site_label_1
_geom_bond_atom_site_label_2
_ccdc_geom_bond_type
Cu2   O12   S    
C7    C10   A    
H4    O13   S    
C11   S3    S    
O6    S2    S    
Cu2   O21   S    
C4    C21   S    
C8    N1    A    
C8    C9    A    
Cu2   O23   S    
C22   H12   S    
C14   S5    S    
O19   S6    S    
C1    C17   S    
C7    H1    S    
C12   C15   A    
C19   O24   A    
C7    N2    A    
O16   S5    S    
C20   H10   S    
H6    O19   S    
O5    S2    D    
O26   S1    D    
O10   S4    D    
C5    C21   S    
C3    C20   S    
C5    C22   S    
O9    S3    S    
C13   S4    S    
C18   O25   A    
C15   S6    S    
C2    H13   S    
O18   S6    D    
C2    C6    S    
C6    C20   S    
C2    C21   S    
Cu1   N1    S    
O13   S4    S    
Cu2   O25   S    
C17   O12   A    
C4    C6    S    
Cu1   O24   S    
O11   S4    D    
C20   C22   S    
C5    C19   S    
C2    C3    S    
C10   H9    S    
C13   C15   A    
O17   S6    D    
Cu1   O20   S    
C6    C18   S    
H5    O16   S    
O15   S5    D    
C21   H11   S    
O4    S2    D    
O2    S1    D    
H2    O6    S    
C17   O20   A    
Cu1   O22   S    
C12   C16   S    
C1    C13   A    
H14   O3    S    
C4    C22   S    
O8    S3    D    
O3    S1    S    
C16   O21   A    
C11   C14   A    
C4    S2    S    
O7    S3    D    
C18   O22   A    
C1    C14   A    
Cu1   Cu2   S    
C9    H8    S    
Cu2   N2    S    
C8    H7    S    
C16   O1    A    
C9    N2    A    
C3    S1    S    
O14   S5    D    
H3    O9    S    
C11   C12   A    
C19   O23   A    
C10   N1    A    
C3    C5    S    
Cu1   O1    S    
