data_mof_unit_65796.cif
_audit_creation_date              2012-12-10T16:39:45-0500
_audit_creation_method            fapswitch 2.2
_symmetry_space_group_name_H-M    P1
_symmetry_Int_Tables_number       1
_space_group_crystal_system       triclinic
_cell_length_a                    10.87114
_cell_length_b                    10.872673
_cell_length_c                    16.048279
_cell_angle_alpha                 91.325677
_cell_angle_beta                  97.684934
_cell_angle_gamma                 98.728995
_cell_volume                      1856.24210545

loop_
_atom_site_label
_atom_site_type_symbol
_atom_type_description
_atom_site_fract_x
_atom_site_fract_y
_atom_site_fract_z
_atom_type_partial_charge
Br1   Br    Br    0.922558 0.349202 0.388885 -0.498183
C1    C     C_R   0.838650 0.525712 0.519200 0.926230
C2    C     C_R   0.528348 0.835916 0.519150 0.922281
C3    C     C_R   0.473223 0.162994 0.481058 0.783761
C4    C     C_R   0.483999 0.515110 0.275796 0.841290
C5    C     C_R   0.515866 0.484416 0.723950 0.801121
C6    C     C_1   0.476082 0.519784 0.186108 -0.137380
C7    C     C_2   0.451679 0.524593 0.019079 0.528843
C8    C     C_2   0.539444 0.482285 0.979806 -0.256086
C9    C     C_3   0.271987 0.622895 0.017461 0.094510
C10   C     C_3   0.168938 0.527771 0.046543 -0.353883
C11   C     C_3   0.089706 0.590580 0.101126 -0.923761
C12   C     C_1   0.531845 0.480710 0.889355 0.087318
C13   C     C_3   0.409406 0.967069 0.333400 0.092926
C14   C     C_3   0.303570 0.899870 0.268435 -0.298921
C15   C     C_3   0.337966 0.910305 0.179504 -0.987369
C16   C     C_1   0.466522 0.522182 0.110507 -0.171146
C17   C     C_1   0.524730 0.481214 0.813788 -0.120072
C18   C     C_2   0.023994 0.464163 0.473467 0.106099
C19   C     C_2   0.972802 0.533941 0.524877 -0.368923
C20   C     C_2   0.463132 0.027694 0.471927 0.297635
C21   C     C_2   0.537992 0.969330 0.525093 -0.396959
C22   C     C_R   0.160305 0.475233 0.481371 0.840961
H1    H     H_    0.619364 0.449529 0.015608 0.124831
H2    H     H_    0.045594 0.663008 0.065806 0.260334
H3    H     H_    0.494108 0.921048 0.332357 0.152795
H4    H     H_    0.431592 0.065554 0.315493 0.153355
H5    H     H_    0.283950 0.799878 0.282952 0.212489
H6    H     H_    0.216935 0.941532 0.271599 0.246460
H7    H     H_    0.358876 0.009643 0.163911 0.276602
H8    H     H_    0.257679 0.864118 0.133741 0.263997
H9    H     H_    0.421313 0.864510 0.173830 0.265912
H10   H     H_    0.030077 0.599194 0.572090 0.144890
H11   H     H_    0.609217 0.019852 0.572779 0.135719
H12   H     H_    0.225679 0.687050 0.975350 0.165910
H13   H     H_    0.326992 0.683020 0.070815 0.138666
H14   H     H_    0.107175 0.480568 0.990509 0.231256
H15   H     H_    0.211153 0.455613 0.083298 0.234573
H16   H     H_    0.149080 0.634188 0.159140 0.267434
H17   H     H_    0.014305 0.520030 0.119605 0.280068
O1    O     O_3   0.500000 0.500000 0.500000 -0.500098
O2    O     O_R   0.566290 0.591070 0.323460 -0.630021
O3    O     O_R   0.580640 0.419420 0.684420 -0.641193
O4    O     O_R   0.407770 0.434760 0.307690 -0.638801
O5    O     O_R   0.445300 0.554750 0.684430 -0.629347
O6    O     O_3   0.348787 0.563130 0.970235 -0.630479
O7    O     O_3   0.369977 0.960276 0.413737 -0.629385
O8    O     O_R   0.452040 0.769470 0.559450 -0.621873
O9    O     O_R   0.554760 0.223750 0.537250 -0.652282
O10   O     O_R   0.782610 0.596300 0.470630 -0.623840
O11   O     O_R   0.210590 0.410470 0.432660 -0.603437
O12   O     O_R   0.777820 0.443700 0.559450 -0.623697
O13   O     O_R   0.228980 0.549520 0.537250 -0.653932
O14   O     O_R   0.592170 0.786730 0.470640 -0.653476
O15   O     O_R   0.401030 0.220040 0.432660 -0.622014
Zn1   Zn    Zn3+2 0.408180 0.591840 0.569080 0.990208
Zn2   Zn    Zn3+2 0.608390 0.616500 0.442190 0.993918
Zn3   Zn    Zn3+2 0.381900 0.393170 0.419650 1.015119
Zn4   Zn    Zn3+2 0.601540 0.398480 0.569080 0.989045

loop_
_geom_bond_atom_site_label_1
_geom_bond_atom_site_label_2
_ccdc_geom_bond_type
C11   H17   S    
C10   H15   S    
C18   C22   S    
C10   C11   S    
C8    H1    S    
C22   O13   A    
C13   O7    S    
O12   Zn4   S    
C13   H4    S    
C15   H9    S    
C11   H2    S    
C22   O11   A    
C7    C16   S    
O9    Zn4   S    
O3    Zn4   S    
C3    O9    A    
C4    O2    A    
O13   Zn1   S    
C11   H16   S    
O1    Zn2   S    
O1    Zn1   S    
O11   Zn3   S    
C20   C21   D    
C13   H3    S    
C15   H8    S    
C3    C20   S    
C14   H5    S    
C9    H12   S    
C1    O12   A    
C12   C17   T    
C21   H11   S    
C19   H10   S    
O2    Zn2   S    
C5    O5    A    
C4    O4    A    
O1    Zn3   S    
C14   H6    S    
C5    O3    A    
C3    O15   A    
C5    C17   S    
C2    O14   A    
C7    O6    S    
Br1   C18   S    
C9    C10   S    
C1    C19   S    
C14   C15   S    
C2    O8    A    
O1    Zn4   S    
C4    C6    S    
O15   Zn3   S    
O8    Zn1   S    
C8    C12   S    
C13   C14   S    
C2    C21   S    
C9    H13   S    
C1    O10   A    
C20   O7    S    
C9    O6    S    
O10   Zn2   S    
C15   H7    S    
C10   H14   S    
C18   C19   D    
O5    Zn1   S    
O4    Zn3   S    
C7    C8    D    
C6    C16   T    
O14   Zn2   S    
