data_mof_unit_46792.cif
_audit_creation_date              2013-03-05T16:43:53-0500
_audit_creation_method            fapswitch 2.2
_symmetry_space_group_name_H-M    P1
_symmetry_Int_Tables_number       1
_space_group_crystal_system       triclinic
_cell_length_a                    9.861327
_cell_length_b                    10.756293
_cell_length_c                    17.015787
_cell_angle_alpha                 90.339216
_cell_angle_beta                  86.278332
_cell_angle_gamma                 90.326651
_cell_volume                      1801.02365125

loop_
_atom_site_label
_atom_site_type_symbol
_atom_site_description
_atom_site_fract_x
_atom_site_fract_y
_atom_site_fract_z
_atom_type_partial_charge
O1    O     O_R   0.385310 0.683210 0.499990 -0.620368
O2    O     O_R   0.614650 0.683240 0.500000 -0.632874
C1    C     C_R   0.500441 0.739485 0.500315 0.889082
O3    O     O_R   0.371780 0.500000 0.615800 -0.614055
O4    O     O_R   0.601120 0.500040 0.615800 -0.622469
C2    C     C_R   0.482425 0.506665 0.652494 0.908432
Zn1   Zn    Zn3+2 0.346870 0.499980 0.499990 1.001338
Zn2   Zn    Zn3+2 0.653130 0.500020 0.500010 0.971142
O5    O     O_R   0.385350 0.316760 0.500000 -0.585323
O6    O     O_R   0.614690 0.316790 0.500010 -0.624726
O7    O     O_R   0.398880 0.499960 0.384200 -0.625965
O8    O     O_R   0.628220 0.500000 0.384200 -0.629317
C3    C     C_R   0.499998 0.260406 0.498805 0.920080
C4    C     C_R   0.517654 0.500257 0.347421 0.904366
C5    C     C_R   0.475345 0.540624 0.735682 -0.080861
C6    C     C_R   0.591336 0.590963 0.767356 -0.338684
C7    C     C_R   0.590932 0.623693 0.846995 0.536604
C8    C     C_R   0.466753 0.615286 0.892538 0.086988
C9    C     C_R   0.348053 0.574657 0.859519 -0.233813
C10   C     C_R   0.352696 0.535024 0.781596 -0.180486
C11   C     C_R   0.416137 0.535521 0.141714 -0.183832
C12   C     C_R   0.407972 0.516637 0.222027 -0.149357
C13   C     C_R   0.654399 0.520416 0.221411 -0.247158
C14   C     C_R   0.663954 0.541106 0.140562 0.348590
C15   C     C_R   0.543216 0.548911 0.100855 0.030809
C16   C     C_2   0.464265 0.626978 0.977728 -0.154220
C17   C     C_2   0.549174 0.556522 0.015769 -0.083017
C18   C     C_R   0.526915 0.509976 0.262295 -0.101365
H1    H     H_    0.680609 0.605997 0.729292 0.158860
H2    H     H_    0.308478 0.507812 0.252477 0.182049
H3    H     H_    0.746606 0.516735 0.252622 0.198126
H4    H     H_    0.622463 0.498038 0.983436 0.161182
H5    H     H_    0.253901 0.566905 0.895628 0.162229
H6    H     H_    0.323032 0.536945 0.111257 0.174599
H7    H     H_    0.261365 0.499114 0.757631 0.167243
H8    H     H_    0.384872 0.680870 0.009069 0.160327
C19   C     C_R   0.382647 0.936716 0.504152 0.035572
C20   C     C_R   0.502536 0.870593 0.498864 -0.066789
C21   C     C_R   0.626596 0.935978 0.490570 -0.187962
H9    H     H_    0.723301 0.888326 0.485598 0.186306
C22   C     C_R   0.626127 0.065105 0.489315 -0.160519
H10   H     H_    0.722669 0.113907 0.484005 0.209982
C23   C     C_R   0.501564 0.129068 0.495837 -0.108702
C24   C     C_R   0.381964 0.060908 0.501028 0.039485
C25   C     C_3   0.229945 0.066423 0.511656 0.530680
C26   C     C_3   0.232054 0.923266 0.516250 -0.553692
H11   H     H_    0.200657 0.885096 0.575211 0.210224
H12   H     H_    0.187731 0.874814 0.465925 0.217866
C27   C     C_R   0.924792 0.587503 0.542049 0.227659
N1    N     N_R   0.857140 0.500860 0.500530 -0.121503
C28   C     C_R   0.932899 0.423291 0.451383 -0.063743
H13   H     H_    0.882409 0.359359 0.413439 0.170398
C29   C     C_R   0.076986 0.424197 0.450896 -0.027122
H14   H     H_    0.135332 0.362447 0.411874 0.200001
N2    N     N_R   0.142780 0.500820 0.500530 -0.117679
C30   C     C_R   0.067406 0.587379 0.542144 0.213759
C31   C     C_3   0.064196 0.606282 0.628825 -0.491226
C32   C     C_3   0.910583 0.605821 0.628819 -0.536910
H15   H     H_    0.104721 0.525101 0.659478 0.228895
H16   H     H_    0.107276 0.697747 0.645234 0.204483
H17   H     H_    0.863493 0.523626 0.659141 0.226037
H18   H     H_    0.864563 0.697209 0.645222 0.204403
N3    N     N_R   0.795621 0.558451 0.100491 0.185925
O9    O     O_R   0.814412 0.644491 0.047429 -0.372506
O10   O     O_R   0.900910 0.501265 0.124824 -0.402311
N4    N     N_R   0.181297 0.128300 0.585269 0.198602
O11   O     O_R   0.090813 0.215838 0.584935 -0.367663
O12   O     O_R   0.232188 0.099676 0.651481 -0.409390
N5    N     N_R   0.164151 0.110696 0.442220 0.194697
O13   O     O_R   0.236260 0.147415 0.379728 -0.417875
O14   O     O_R   0.033150 0.099256 0.439232 -0.399409
O15   O     O_3   0.705456 0.668900 0.882651 -0.611272
C33   C     C_3   0.830459 0.615068 0.853823 0.136639
H19   H     H_    0.912000 0.659843 0.886282 0.207058
H20   H     H_    0.856574 0.639051 0.791546 0.123268
C34   C     C_3   0.837400 0.474061 0.868919 -0.417889
H21   H     H_    0.834804 0.457243 0.933263 0.261873
H22   H     H_    0.750069 0.424657 0.844713 0.221254
C35   C     C_3   0.967989 0.417969 0.831728 -0.859706
H23   H     H_    0.971824 0.427254 0.766810 0.263981
H24   H     H_    0.971790 0.317596 0.846249 0.287986
H25   H     H_    0.057511 0.464865 0.854886 0.252684

loop_
_geom_bond_atom_site_label_1
_geom_bond_atom_site_label_2
_geom_bond_distance
_ccdc_geom_bond_type
C32   H18   1.111542 S    
N4    O12   1.302012 A    
N2    C30   1.361068 A    
N3    O10   1.301514 A    
C22   C23   1.409091 A    
C33   H19   1.110713 S    
C9    C10   1.388349 A    
C8    C16   1.452909 S    
C34   C35   1.523621 S    
Zn1   N2    2.012094 S    
C21   C22   1.389250 A    
C29   H14   1.078252 S    
Zn1   O7    2.003442 S    
C16   C17   1.333356 D    
C34   H22   1.109931 S    
O4    C2    1.292487 A    
O7    C4    1.291650 A    
C31   H15   1.109355 S    
C5    C6    1.400545 A    
C30   C31   1.486019 S    
C8    C9    1.397664 A    
C22   H10   1.083417 S    
N5    O14   1.301238 A    
O5    C3    1.284816 A    
C2    C5    1.457152 S    
C10   H7    1.080965 S    
C1    C20   1.410608 S    
C6    C7    1.397842 A    
C13   C14   1.391941 A    
C32   H17   1.110452 S    
N4    O11   1.301191 A    
C12   C18   1.398662 A    
C11   C12   1.379902 A    
C33   H20   1.105830 S    
O3    Zn1   2.001607 S    
N1    C28   1.367987 A    
C29   N2    1.367602 A    
C5    C10   1.397827 A    
C26   H12   1.112038 S    
C25   N5    1.467451 S    
C28   H13   1.081766 S    
C14   C15   1.409751 A    
O3    C2    1.293258 A    
C9    H5    1.082673 S    
C21   H9    1.083462 S    
C35   H24   1.110364 S    
C31   H16   1.110732 S    
C11   H6    1.083434 S    
C6    H1    1.070634 S    
C25   C26   1.542607 S    
C27   C32   1.486064 S    
C35   H23   1.107901 S    
C28   C29   1.420348 A    
C13   H3    1.083401 S    
C23   C24   1.383377 A    
C19   C20   1.380840 A    
C35   H25   1.107618 S    
Zn2   O8    2.001607 S    
C7    C8    1.408782 A    
C13   C18   1.401011 A    
C34   H21   1.109400 S    
C16   H8    1.086592 S    
O8    C4    1.291948 A    
C14   N3    1.438543 S    
C33   C34   1.542448 S    
Zn2   N1    2.012372 S    
C3    C23   1.413451 S    
C24   C25   1.499742 S    
Zn1   O5    2.009094 S    
C11   C15   1.400203 A    
C26   H11   1.110899 S    
C12   H2    1.083339 S    
C17   H4    1.081766 S    
O1    Zn1   2.004875 S    
O2    Zn2   2.009093 S    
O15   C33   1.421873 S    
O6    C3    1.281592 A    
O4    Zn2   2.003442 S    
C15   C17   1.447962 S    
C27   C30   1.406479 A    
C4    C18   1.449786 S    
C19   C24   1.337283 A    
O2    C1    1.281186 A    
C31   C32   1.514818 S    
C20   C21   1.407197 A    
N5    O13   1.302295 A    
N3    O9    1.300874 A    
C7    O15   1.399727 S    
Zn2   O6    2.004876 S    
C27   N1    1.363468 A    
C25   N4    1.468965 S    
O1    C1    1.283894 A    
C19   C26   1.492277 S    
