data_mof_unit_9639.cif
_audit_creation_date              2012-10-26T20:51:09-0400
_audit_creation_method            fapswitch 2.2
_symmetry_space_group_name_H-M    P1
_symmetry_Int_Tables_number       1
_space_group_crystal_system       triclinic
_cell_length_a                    13.009302
_cell_length_b                    10.825285
_cell_length_c                    9.544785
_cell_angle_alpha                 90.174666
_cell_angle_beta                  96.089644
_cell_angle_gamma                 90.315671
_cell_volume                      1336.57209234

loop_
_atom_site_label
_atom_site_type_symbol
_atom_type_description
_atom_site_fract_x
_atom_site_fract_y
_atom_site_fract_z
_atom_type_partial_charge
C1    C     C_R   0.497694 0.262344 0.499443 0.547907
C2    C     C_R   0.474030 0.935080 0.369467 -0.143046
C3    C     C_R   0.487914 0.870854 0.497960 0.015080
C4    C     C_R   0.300550 0.499367 0.473740 0.544176
C5    C     C_R   0.486530 0.936983 0.623457 0.020805
C6    C     C_3   0.558939 0.932583 0.755635 -0.267710
C7    C     C_3   0.557208 0.072697 0.755951 -0.261751
C8    C     C_R   0.542835 0.596445 0.080371 0.165561
C9    C     C_R   0.448231 0.411828 0.066625 -0.024746
C10   C     C_R   0.448050 0.411958 0.917734 -0.016199
C11   C     C_R   0.543948 0.595630 0.932905 0.110479
C12   C     C_R   0.028269 0.502041 0.567285 0.046735
C13   C     C_3   0.654466 0.635380 0.943343 -0.249218
C14   C     C_3   0.653047 0.638254 0.102264 0.098444
C15   C     C_R   0.498260 0.737736 0.499794 0.561993
C16   C     C_R   0.699557 0.499032 0.526250 0.555909
C17   C     C_R   0.812505 0.497672 0.541411 0.005259
C18   C     C_R   0.187832 0.496929 0.458600 0.001714
C19   C     C_R   0.024460 0.480249 0.312448 -0.132277
C20   C     C_R   0.131909 0.484412 0.325184 -0.134118
C21   C     C_R   0.135580 0.505655 0.579215 -0.128519
C22   C     C_R   0.972256 0.489119 0.432940 0.051611
C23   C     C_R   0.864879 0.485876 0.421179 -0.112697
C24   C     C_R   0.868726 0.508992 0.674693 -0.134911
C25   C     C_R   0.976122 0.511123 0.687655 -0.135525
C26   C     C_R   0.485679 0.064150 0.623162 0.016762
C27   C     C_R   0.486884 0.129269 0.497431 0.009492
C28   C     C_R   0.473624 0.063912 0.369190 -0.157766
Cu1   Cu    Cu3+1 0.499990 0.499980 0.640670 0.937357
Cu2   Cu    Cu3+1 0.500010 0.500020 0.359330 0.958749
H1    H     H_    0.822496 0.474000 0.318213 0.109530
H2    H     H_    0.178172 0.515511 0.682679 0.124028
H3    H     H_    0.468048 0.111639 0.269118 0.126875
H4    H     H_    0.468439 0.886566 0.269524 0.138961
H5    H     H_    0.522277 0.891175 0.844633 0.129664
H6    H     H_    0.518729 0.112166 0.844423 0.130890
H7    H     H_    0.407912 0.339128 0.116283 0.112505
H8    H     H_    0.612970 0.812895 0.110021 0.313736
H9    H     H_    0.830098 0.516764 0.768898 0.119095
H10   H     H_    0.018254 0.520520 0.791401 0.103340
H11   H     H_    0.635650 0.894413 0.737764 0.138620
H12   H     H_    0.632997 0.115418 0.739847 0.145943
H13   H     H_    0.407499 0.339416 0.855920 0.117177
H14   H     H_    0.705096 0.561697 0.909041 0.114563
H15   H     H_    0.665266 0.727063 0.895555 0.130246
H16   H     H_    0.705653 0.570177 0.158079 0.157365
H17   H     H_    0.982308 0.470419 0.208769 0.102199
H18   H     H_    0.171084 0.477175 0.230895 0.128828
N1    N     N_R   0.500660 0.500930 0.148010 -0.247777
N2    N     N_R   0.500660 0.500890 0.852110 -0.233158
O1    O     O_R   0.500000 0.319640 0.618810 -0.506855
O2    O     O_R   0.500010 0.319680 0.381230 -0.515609
O3    O     O_R   0.348990 0.499960 0.599490 -0.508159
O4    O     O_R   0.349000 0.500000 0.361910 -0.509004
O5    O     O_R   0.499990 0.680320 0.618770 -0.500217
O6    O     O_R   0.500000 0.680360 0.381190 -0.479278
O7    O     O_R   0.651000 0.500000 0.638090 -0.508971
O8    O     O_R   0.651010 0.500040 0.400510 -0.497976
O9    O     O_3   0.664911 0.757637 0.161000 -0.686113

loop_
_geom_bond_atom_site_label_1
_geom_bond_atom_site_label_2
_ccdc_geom_bond_type
C2    C28   A    
C6    C7    S    
C4    O3    A    
C18   C21   A    
C1    O1    A    
C9    C10   A    
C19   C20   A    
C17   C23   A    
C12   C25   A    
C16   O7    A    
C4    C18   S    
C15   O6    A    
C2    H4    S    
C9    H7    S    
C2    C3    A    
C3    C15   S    
C14   H16   S    
C11   N2    A    
C16   O8    A    
C13   C14   S    
C24   C25   A    
C13   H15   S    
C14   O9    S    
Cu2   O4    S    
C26   C27   A    
C20   H18   S    
C7    C26   S    
Cu1   O3    S    
C8    C11   A    
Cu2   O8    S    
C21   H2    S    
Cu2   N1    S    
Cu1   O7    S    
C28   H3    S    
C18   C20   A    
Cu1   N2    S    
C25   H10   S    
Cu1   O1    S    
C5    C6    S    
C1    O2    A    
C19   H17   S    
C8    N1    A    
C17   C24   A    
Cu1   Cu2   S    
H8    O9    S    
C10   N2    A    
C12   C22   A    
C11   C13   S    
C19   C22   A    
C9    N1    A    
C6    H5    S    
C7    H6    S    
C7    H12   S    
C27   C28   A    
C1    C27   S    
Cu2   O2    S    
C22   C23   A    
C8    C14   S    
Cu1   O5    S    
C4    O4    A    
C10   H13   S    
Cu2   O6    S    
C12   C21   A    
C6    H11   S    
C13   H14   S    
C5    C26   A    
C15   O5    A    
C16   C17   S    
C3    C5    A    
C24   H9    S    
C23   H1    S    
