data_mof_unit_59637.cif
_audit_creation_date              2012-12-10T16:44:13-0500
_audit_creation_method            fapswitch 2.2
_symmetry_space_group_name_H-M    P1
_symmetry_Int_Tables_number       1
_space_group_crystal_system       triclinic
_cell_length_a                    7.499878
_cell_length_b                    8.734553
_cell_length_c                    13.533107
_cell_angle_alpha                 95.616288
_cell_angle_beta                  78.525607
_cell_angle_gamma                 103.259459
_cell_volume                      844.379181726

loop_
_atom_site_label
_atom_site_type_symbol
_atom_type_description
_atom_site_fract_x
_atom_site_fract_y
_atom_site_fract_z
_atom_type_partial_charge
C1    C     C_R   0.544892 0.800099 0.504063 0.850006
C2    C     C_R   0.416062 0.502566 0.973769 0.094217
C3    C     C_R   0.465426 0.545803 0.872306 0.094797
C4    C     C_R   0.554616 0.545225 0.037018 0.042038
C5    C     C_R   0.739538 0.622799 0.996034 0.025820
C6    C     C_R   0.776982 0.674972 0.898370 -0.173048
C7    C     C_R   0.638150 0.646687 0.841247 -0.180266
C8    C     C_R   0.516442 0.510733 0.138927 -0.330242
C9    C     C_R   0.843070 0.596099 0.152401 0.373646
C10   C     C_R   0.340865 0.488352 0.804114 -0.177397
C11   C     C_2   0.567492 0.968213 0.510177 -0.385669
C12   C     C_R   0.401245 0.496403 0.693726 0.784612
C13   C     C_2   0.434933 0.032218 0.489531 -0.381747
C14   C     C_R   0.455484 0.200007 0.496002 0.845469
C15   C     C_R   0.599794 0.511972 0.306417 0.811208
C16   C     C_R   0.883880 0.647008 0.053147 0.434952
C17   C     C_R   0.656686 0.537146 0.197205 -0.219587
C18   C     C_R   0.160349 0.405454 0.840158 -0.196272
C19   C     C_R   0.103077 0.368374 0.940393 0.507035
C20   C     C_R   0.231726 0.416706 0.006810 -0.225521
Cu1   Cu    Cu3+1 0.321300 0.483160 0.488710 1.019443
Cu2   Cu    Cu3+1 0.678700 0.516840 0.511290 1.008942
H1    H     H_    0.311579 0.960829 0.465409 0.153567
H2    H     H_    0.913055 0.739575 0.865014 0.174912
H3    H     H_    0.376725 0.463582 0.175434 0.213663
H4    H     H_    0.062466 0.364398 0.789215 0.182634
H5    H     H_    0.182988 0.391804 0.083774 0.135655
H6    H     H_    0.667104 0.705322 0.772188 0.150930
H7    H     H_    0.693073 0.039510 0.533134 0.155143
N1    N     N_2   0.947230 0.542220 0.528320 0.136813
N2    N     N_2   0.052770 0.457780 0.471680 0.121587
O1    O     O_R   0.383920 0.714220 0.492660 -0.562581
O2    O     O_R   0.685730 0.742660 0.511730 -0.631195
O3    O     O_R   0.275440 0.478800 0.636790 -0.541604
O4    O     O_R   0.577250 0.507240 0.655860 -0.574960
O5    O     O_R   0.314270 0.257340 0.488270 -0.611017
O6    O     O_R   0.616080 0.285780 0.507340 -0.586331
O7    O     O_R   0.422750 0.492760 0.344140 -0.578644
O8    O     O_R   0.724560 0.521200 0.363210 -0.518853
O9    O     O_3   0.985493 0.581696 0.199766 -0.559160
C21   C     C_3   0.056451 0.725895 0.249040 -0.201726
H8    H     H_    0.096696 0.701056 0.319382 0.206292
H9    H     H_    0.954893 0.804136 0.271130 0.110237
H10   H     H_    0.185513 0.786777 0.201032 0.168802
O10   O     O_3   0.013085 0.613838 0.610251 -0.469318
C22   C     C_3   0.009975 0.774255 0.610393 -0.115270
H11   H     H_    0.873596 0.796801 0.648099 0.131355
H12   H     H_    0.041706 0.818096 0.533083 0.123014
H13   H     H_    0.116247 0.843895 0.653069 0.127096
O11   O     O_3   0.000392 0.402583 0.383118 -0.477166
C23   C     C_3   0.977148 0.236531 0.376052 0.239383
H14   H     H_    0.827069 0.185777 0.380426 0.105302
H15   H     H_    0.018063 0.185797 0.438138 0.126724
C24   C     C_3   0.068553 0.179915 0.271807 -0.418413
H16   H     H_    0.968272 0.082032 0.241067 0.164686
H17   H     H_    0.101630 0.276272 0.220500 0.237622
C25   C     C_3   0.243994 0.120673 0.271678 -0.889195
H18   H     H_    0.356108 0.215643 0.293338 0.285243
H19   H     H_    0.294392 0.075522 0.194235 0.237929
H20   H     H_    0.213833 0.024387 0.323957 0.230538
O12   O     O_3   0.068364 0.696520 0.007518 -0.557718
C26   C     C_3   0.122030 0.862107 0.017231 -0.383309
H21   H     H_    0.276469 0.895700 0.004696 0.199112
H22   H     H_    0.069370 0.911329 0.093283 0.142079
H23   H     H_    0.076234 0.917460 0.959124 0.163189
O13   O     O_3   0.915946 0.295287 0.968833 -0.617401
C27   C     C_3   0.878965 0.203596 0.053729 0.023153
H24   H     H_    0.862942 0.280370 0.123773 0.182737
H25   H     H_    0.991264 0.139914 0.053060 0.115118
C28   C     C_3   0.696149 0.082696 0.052363 -0.311757
H26   H     H_    0.582677 0.145008 0.051689 0.224405
H27   H     H_    0.710130 0.004586 0.982553 0.221456
C29   C     C_3   0.643565 0.981985 0.144062 -0.972747
H28   H     H_    0.752564 0.916284 0.145768 0.242417
H29   H     H_    0.511711 0.894864 0.139682 0.265192
H30   H     H_    0.624919 0.056942 0.214938 0.257945

loop_
_geom_bond_atom_site_label_1
_geom_bond_atom_site_label_2
_ccdc_geom_bond_type
C2    C4    A    
C13   H1    S    
C15   O7    A    
C26   H21   S    
Cu2   O4    S    
C20   H5    S    
C11   C13   D    
C21   H8    S    
C24   H16   S    
N1    O10   S    
C26   H22   S    
C8    C17   A    
C18   H4    S    
C4    C8    A    
C27   C28   S    
C6    H2    S    
Cu1   Cu2   S    
C23   C24   S    
C28   C29   S    
O12   C26   S    
C2    C3    A    
C7    H6    S    
C1    O2    A    
C23   H14   S    
C5    C16   A    
C3    C10   A    
C13   C14   S    
C12   O4    A    
Cu1   O5    S    
C8    H3    S    
C21   H9    S    
C22   H13   S    
C15   O8    A    
C25   H18   S    
C5    C6    A    
C10   C12   S    
C10   C18   A    
Cu2   O8    S    
C9    C17   A    
O9    C21   S    
Cu1   O1    S    
C9    C16   A    
O11   C23   S    
C6    C7    A    
C3    C7    A    
C9    O9    S    
C14   O5    A    
N1    N2    D    
C21   H10   S    
C24   H17   S    
C25   H19   S    
C16   O12   S    
C29   H29   S    
N2    O11   S    
C2    C20   A    
C27   H24   S    
C22   H12   S    
C28   H26   S    
O13   C27   S    
C29   H30   S    
C11   H7    S    
C19   O13   S    
C14   O6    A    
C18   C19   A    
C29   H28   S    
C27   H25   S    
C15   C17   S    
Cu2   O2    S    
C22   H11   S    
C25   H20   S    
C28   H27   S    
Cu1   O3    S    
Cu2   N1    S    
C26   H23   S    
C23   H15   S    
O10   C22   S    
Cu2   O6    S    
C12   O3    A    
C1    O1    A    
Cu1   O7    S    
C19   C20   A    
C4    C5    A    
Cu1   N2    S    
C24   C25   S    
C1    C11   S    
