data_mof_unit_27068.cif
_audit_creation_date              2012-12-10T17:48:45-0500
_audit_creation_method            fapswitch 2.2
_symmetry_space_group_name_H-M    P1
_symmetry_Int_Tables_number       1
_space_group_crystal_system       triclinic
_cell_length_a                    15.742147
_cell_length_b                    10.671788
_cell_length_c                    9.938986
_cell_angle_alpha                 90.836897
_cell_angle_beta                  92.029353
_cell_angle_gamma                 94.36451
_cell_volume                      1663.58136974

loop_
_atom_site_label
_atom_site_type_symbol
_atom_type_description
_atom_site_fract_x
_atom_site_fract_y
_atom_site_fract_z
_atom_type_partial_charge
C1    C     C_R   0.506953 0.261731 0.499832 0.873592
C2    C     C_R   0.654611 0.091185 0.813575 -0.200268
C3    C     C_R   0.651473 0.960561 0.820163 0.224242
C4    C     C_R   0.338438 0.499601 0.498019 0.923437
C5    C     C_R   0.609981 0.888259 0.714691 -0.223482
C6    C     C_R   0.564826 0.944530 0.608547 0.061517
C7    C     C_R   0.566936 0.076307 0.605031 0.105374
C8    C     C_R   0.521181 0.131510 0.498946 -0.107243
C9    C     C_R   0.484227 0.060450 0.390996 -0.235821
C10   C     C_R   0.482232 0.933082 0.393666 -0.228584
C11   C     C_R   0.518594 0.874342 0.503395 -0.093326
C12   C     C_3   0.957136 0.545021 0.641490 0.296637
C13   C     C_R   0.400087 0.301597 0.122650 0.513721
C14   C     C_R   0.375679 0.194302 0.040470 -0.313259
C15   C     C_R   0.372959 0.203753 0.902791 -0.270371
C16   C     C_R   0.506704 0.740180 0.501553 0.853712
C17   C     C_R   0.403082 0.314177 0.845619 -0.137500
C18   C     C_R   0.451993 0.407092 0.921696 0.118768
C19   C     C_R   0.451663 0.404229 0.066282 0.067290
C20   C     C_R   0.546438 0.588581 0.075658 -0.109349
C21   C     C_R   0.546532 0.588020 0.933000 -0.134293
C22   C     C_R   0.661819 0.505023 0.501849 0.874576
C23   C     C_3   0.919004 0.539844 0.492688 -0.010844
C24   C     C_3   0.054571 0.527042 0.640140 -0.065096
C25   C     C_3   0.037152 0.399641 0.426984 -0.523399
C26   C     C_3   0.939749 0.409259 0.428658 -0.022218
C27   C     C_1   0.751145 0.522573 0.504224 -0.215835
C28   C     C_3   0.083814 0.521568 0.489309 0.079643
C29   C     C_3   0.863582 0.504662 0.818269 0.086474
C30   C     C_3   0.818286 0.398888 0.896360 -0.322646
C31   C     C_3   0.756837 0.449776 0.995042 -0.978352
C32   C     C_3   0.910048 0.678637 0.274148 -0.375304
C33   C     C_3   0.917858 0.813079 0.218837 -0.819339
C34   C     C_3   0.959746 0.659938 0.413741 0.510240
C35   C     C_3   0.692560 0.898984 0.939266 -0.399923
C36   C     C_3   0.764376 0.819117 0.898839 -0.956365
C37   C     C_3   0.081412 0.413146 0.726833 -0.296081
C38   C     C_3   0.091999 0.445171 0.877468 -0.898484
C39   C     C_3   0.295397 0.234459 0.281007 0.093043
C40   C     C_3   0.215173 0.267223 0.200100 -0.364793
C41   C     C_3   0.140757 0.170278 0.221781 -1.010000
C42   C     C_3   0.894644 0.371509 0.290026 -0.412136
C43   C     C_3   0.883226 0.228984 0.268776 -0.916667
C44   C     C_3   0.120389 0.764986 0.437420 -0.256571
C45   C     C_3   0.061063 0.640395 0.398001 0.254724
C46   C     C_3   0.139859 0.805513 0.584429 -0.924521
C47   C     C_3   0.087534 0.609002 0.246668 -0.424117
C48   C     C_3   0.096231 0.712932 0.140210 -0.901818
C49   C     C_3   0.877020 0.814079 0.525908 0.099067
C50   C     C_3   0.887822 0.957634 0.537505 -0.344063
C51   C     C_3   0.803312 0.013945 0.558164 -0.979192
C52   C     C_1   0.826721 0.535957 0.500307 -0.085608
C53   C     C_1   0.174898 0.509583 0.490910 -0.065927
C54   C     C_1   0.249799 0.503376 0.493541 -0.227326
C55   C     C_R   0.615859 0.148401 0.705208 -0.198228
H1    H     H_    0.087683 0.608740 0.692260 0.155966
H2    H     H_    0.342846 0.127710 0.840431 0.172733
H3    H     H_    0.387452 0.322937 0.741420 0.210590
H4    H     H_    0.585685 0.658402 0.883051 0.141673
H5    H     H_    0.058798 0.377733 0.325522 0.206442
H6    H     H_    0.053911 0.315746 0.484175 0.177011
H7    H     H_    0.915157 0.336184 0.499647 0.230005
H8    H     H_    0.814970 0.560997 0.769571 0.151321
H9    H     H_    0.903988 0.566560 0.890011 0.117575
H10   H     H_    0.782012 0.332612 0.824264 0.228615
H11   H     H_    0.866386 0.346871 0.952430 0.219662
H12   H     H_    0.952231 0.640468 0.685813 0.076124
H13   H     H_    0.791284 0.517984 0.066905 0.254747
H14   H     H_    0.726227 0.371156 0.052397 0.270652
H15   H     H_    0.706542 0.497248 0.939286 0.279632
H16   H     H_    0.864171 0.866957 0.250187 0.243614
H17   H     H_    0.978276 0.865780 0.251980 0.273690
H18   H     H_    0.914496 0.809928 0.107245 0.225714
H19   H     H_    0.927248 0.613843 0.194703 0.174677
H20   H     H_    0.840893 0.652914 0.281723 0.171732
H21   H     H_    0.742832 0.749946 0.818180 0.247972
H22   H     H_    0.819327 0.880083 0.864114 0.266168
H23   H     H_    0.452835 0.102872 0.306663 0.175916
H24   H     H_    0.785452 0.765708 0.987190 0.262497
H25   H     H_    0.719207 0.970731 0.014729 0.205838
H26   H     H_    0.643081 0.839714 0.990414 0.193996
H27   H     H_    0.144837 0.519131 0.895581 0.250509
H28   H     H_    0.032881 0.478221 0.917683 0.276196
H29   H     H_    0.107879 0.360208 0.933381 0.247853
H30   H     H_    0.035253 0.329656 0.712113 0.237457
H31   H     H_    0.143632 0.381897 0.696490 0.195790
H32   H     H_    0.283289 0.250163 0.389100 0.141792
H33   H     H_    0.306317 0.133202 0.275019 0.110770
H34   H     H_    0.626495 0.249308 0.700804 0.183128
H35   H     H_    0.197901 0.361588 0.232291 0.216186
H36   H     H_    0.226337 0.270847 0.090712 0.227820
H37   H     H_    0.156295 0.076053 0.185508 0.266689
H38   H     H_    0.083411 0.197145 0.164182 0.269127
H39   H     H_    0.126361 0.165231 0.330238 0.262011
H40   H     H_    0.945065 0.186509 0.282607 0.266448
H41   H     H_    0.837421 0.187240 0.340851 0.271086
H42   H     H_    0.857296 0.206417 0.165159 0.255783
H43   H     H_    0.830437 0.407235 0.281296 0.232883
H44   H     H_    0.931052 0.409587 0.205066 0.206232
H45   H     H_    0.688747 0.149234 0.891099 0.138828
H46   H     H_    0.081750 0.808339 0.643612 0.283724
H47   H     H_    0.186741 0.745838 0.632188 0.252304
H48   H     H_    0.170984 0.902571 0.586771 0.239197
H49   H     H_    0.184067 0.759327 0.393367 0.195650
H50   H     H_    0.092771 0.846727 0.390133 0.220207
H51   H     H_    0.115082 0.808191 0.180714 0.247312
H52   H     H_    0.146511 0.690519 0.069964 0.244502
H53   H     H_    0.037436 0.714225 0.076252 0.262927
H54   H     H_    0.151508 0.572110 0.251781 0.212220
H55   H     H_    0.046967 0.531740 0.198418 0.188472
H56   H     H_    0.616411 0.788963 0.715017 0.163650
H57   H     H_    0.857073 0.776978 0.624539 0.123939
H58   H     H_    0.825154 0.785940 0.451093 0.154309
H59   H     H_    0.932348 0.985449 0.623968 0.220231
H60   H     H_    0.916108 0.996981 0.444971 0.233199
H61   H     H_    0.758785 0.992380 0.470270 0.266417
H62   H     H_    0.813862 0.117465 0.571937 0.269875
H63   H     H_    0.774988 0.974580 0.649613 0.293610
H64   H     H_    0.448582 0.880303 0.311434 0.168897
H65   H     H_    0.584885 0.660738 0.132419 0.141198
H66   H     H_    0.348443 0.107190 0.079724 0.152826
N1    N     N_R   0.499210 0.498800 0.142780 -0.102337
N2    N     N_R   0.499180 0.498720 0.857170 -0.107909
O1    O     O_R   0.500000 0.316780 0.614690 -0.653366
O2    O     O_3   0.369021 0.313232 0.250640 -0.602153
O3    O     O_3   0.957463 0.771678 0.495329 -0.664009
O4    O     O_R   0.499990 0.316750 0.385360 -0.566904
O5    O     O_R   0.377150 0.500020 0.614720 -0.636306
O6    O     O_R   0.377140 0.499990 0.385380 -0.544215
O7    O     O_R   0.500010 0.683250 0.614640 -0.623656
O8    O     O_R   0.500000 0.683220 0.385310 -0.626661
O9    O     O_R   0.622860 0.500010 0.614620 -0.632846
O10   O     O_R   0.622850 0.499980 0.385280 -0.614990
O11   O     O_3   0.913778 0.451283 0.720356 -0.637926
Zn1   Zn    Zn3+2 0.500010 0.500020 0.653130 0.921949
Zn2   Zn    Zn3+2 0.499990 0.499980 0.346870 0.977810

loop_
_geom_bond_atom_site_label_1
_geom_bond_atom_site_label_2
_ccdc_geom_bond_type
C49   H58   S    
C29   H8    S    
C19   N1    A    
C39   O2    S    
C38   H28   S    
C1    C8    S    
C35   C36   S    
C7    C55   A    
C32   H20   S    
C35   H26   S    
C7    C8    A    
C48   H53   S    
C53   C54   T    
C44   C45   S    
C25   C28   S    
C49   O3    S    
C46   H47   S    
C12   C23   S    
C37   C38   S    
C37   H30   S    
C21   H4    S    
C36   H22   S    
C42   H43   S    
C32   H19   S    
C30   C31   S    
C48   H52   S    
C35   H25   S    
C51   H63   S    
C50   H60   S    
C23   C26   S    
C16   O8    A    
C10   H64   S    
C36   H21   S    
C33   H17   S    
C31   H15   S    
C48   H51   S    
C41   H39   S    
C8    C9    A    
O10   Zn2   S    
C43   H40   S    
C25   H5    S    
C39   H32   S    
C16   O7    A    
C9    C10   A    
C20   N1    A    
C17   H3    S    
C22   O9    A    
C29   O11   S    
C29   H9    S    
C2    H45   S    
C14   H66   S    
C12   O11   S    
C13   C14   A    
C38   H27   S    
C15   H2    S    
C1    O4    A    
C39   H33   S    
C12   H12   S    
C44   C46   S    
C50   C51   S    
C45   C47   S    
C44   H49   S    
C31   H13   S    
C46   H46   S    
C41   H38   S    
C28   C45   S    
C4    O5    A    
C22   O10   A    
C24   C28   S    
C37   H31   S    
O4    Zn2   S    
C24   C37   S    
O8    Zn2   S    
O5    Zn1   S    
C6    C11   A    
C13   C19   A    
C18   C19   A    
C5    H56   S    
C25   C26   S    
C44   H50   S    
N2    Zn1   S    
C50   H59   S    
C32   C34   S    
C21   N2    A    
C29   C30   S    
O6    Zn2   S    
C43   H41   S    
C11   C16   S    
C47   C48   S    
C3    C35   S    
C34   O3    S    
C23   C34   S    
C17   C18   A    
C4    O6    A    
C34   C45   S    
C25   H6    S    
N1    Zn2   S    
C30   H11   S    
C49   H57   S    
C33   H18   S    
C40   C41   S    
O7    Zn1   S    
C4    C54   S    
C22   C27   S    
C42   C43   S    
C20   H65   S    
C27   C52   T    
C26   C42   S    
C15   C17   A    
C12   C24   S    
O1    Zn1   S    
C38   H29   S    
C43   H42   S    
C3    C5    A    
C36   H24   S    
C28   C53   S    
C6    C7    A    
C24   H1    S    
C47   H55   S    
C46   H48   S    
C18   N2    A    
C51   H61   S    
C2    C55   A    
C32   C33   S    
C2    C3    A    
C26   H7    S    
C1    O1    A    
C13   O2    S    
C55   H34   S    
C47   H54   S    
C42   H44   S    
C23   C52   S    
C5    C6    A    
O9    Zn1   S    
C51   H62   S    
C9    H23   S    
C40   H36   S    
C30   H10   S    
C10   C11   A    
C33   H16   S    
C39   C40   S    
C31   H14   S    
C41   H37   S    
C20   C21   A    
C49   C50   S    
C14   C15   A    
C40   H35   S    
