data_mof_unit_30651.cif
_audit_creation_date              2012-12-10T16:48:11-0500
_audit_creation_method            fapswitch 2.2
_symmetry_space_group_name_H-M    P1
_symmetry_Int_Tables_number       1
_space_group_crystal_system       triclinic
_cell_length_a                    15.683349
_cell_length_b                    8.788669
_cell_length_c                    7.621098
_cell_angle_alpha                 101.465535
_cell_angle_beta                  98.951088
_cell_angle_gamma                 91.876464
_cell_volume                      1014.75771919

loop_
_atom_site_label
_atom_site_type_symbol
_atom_type_description
_atom_site_fract_x
_atom_site_fract_y
_atom_site_fract_z
_atom_type_partial_charge
C1    C     C_R   0.488258 0.201079 0.453531 0.803996
C2    C     C_R   0.492168 0.797099 0.542418 0.839424
C3    C     C_R   0.339776 0.506440 0.495057 0.759225
C4    C     C_R   0.660263 0.493528 0.504982 0.795762
C5    C     C_2   0.467899 0.032869 0.420538 -0.087432
C6    C     C_2   0.466156 0.957649 0.557984 -0.057389
C7    C     C_3   0.003620 0.397532 0.610352 0.313860
C8    C     C_3   0.997115 0.605885 0.392082 0.312681
C9    C     C_3   0.028773 0.368244 0.420288 0.319903
C10   C     C_3   0.971934 0.635240 0.582159 0.318704
C11   C     C_1   0.249066 0.524322 0.479208 -0.153006
C12   C     C_1   0.751228 0.477081 0.521342 -0.151971
C13   C     C_3   0.052745 0.558937 0.658197 0.292302
C14   C     C_3   0.948000 0.444514 0.344249 0.291554
C15   C     C_3   0.079586 0.529348 0.467776 -0.191529
C16   C     C_3   0.921065 0.474097 0.534654 -0.193138
C17   C     C_1   0.172302 0.534748 0.464736 0.121829
C18   C     C_1   0.828167 0.467921 0.536706 0.124201
Cu1   Cu    Cu3+1 0.509330 0.517380 0.684380 1.008536
Cu2   Cu    Cu3+1 0.490670 0.482620 0.315620 1.018134
N1    N     N_2   0.476600 0.456420 0.038510 0.160372
N2    N     N_2   0.523400 0.543580 0.961490 0.146836
O1    O     O_R   0.506070 0.286130 0.619780 -0.580497
O2    O     O_R   0.493930 0.713870 0.380220 -0.580524
O3    O     O_R   0.490300 0.256770 0.308360 -0.599674
O4    O     O_R   0.509700 0.743230 0.691640 -0.626433
O5    O     O_R   0.386960 0.514660 0.655680 -0.535232
O6    O     O_R   0.613040 0.485340 0.344320 -0.517930
O7    O     O_R   0.371190 0.485310 0.344260 -0.588793
O8    O     O_R   0.628810 0.514690 0.655740 -0.578393
O9    O     O_3   0.066708 0.237082 0.332686 -0.595231
C19   C     C_3   0.007585 0.106275 0.290912 -0.297086
H1    H     H_    0.960856 0.107138 0.166091 0.187710
H2    H     H_    0.972261 0.096167 0.404176 0.193752
H3    H     H_    0.044537 0.001239 0.263332 0.212968
O10   O     O_3   0.934165 0.766582 0.669797 -0.594012
C20   C     C_3   0.993447 0.897160 0.711460 -0.296182
H4    H     H_    0.028322 0.907574 0.597719 0.193018
H5    H     H_    0.040545 0.895745 0.835467 0.186428
H6    H     H_    0.956739 0.002318 0.740279 0.214345
O11   O     O_3   0.006542 0.288038 0.722780 -0.619342
C21   C     C_3   0.091978 0.241858 0.759901 -0.374489
H7    H     H_    0.097437 0.185650 0.878821 0.175751
H8    H     H_    0.141971 0.340137 0.794565 0.208947
H9    H     H_    0.107209 0.155607 0.643650 0.207416
O12   O     O_3   0.994361 0.715283 0.279588 -0.620234
C22   C     C_3   0.909001 0.761725 0.242503 -0.372393
H10   H     H_    0.858895 0.663673 0.208581 0.206238
H11   H     H_    0.903536 0.817453 0.123216 0.177268
H12   H     H_    0.893967 0.848384 0.358571 0.207458
O13   O     O_3   0.884722 0.377325 0.193091 -0.588929
C23   C     C_3   0.918424 0.368723 0.031779 -0.213671
H13   H     H_    0.878411 0.279464 0.924550 0.199490
H14   H     H_    0.985976 0.333170 0.044705 0.204435
H15   H     H_    0.913831 0.480770 0.986632 0.181361
O14   O     O_3   0.116238 0.626102 0.808993 -0.590097
C24   C     C_3   0.082767 0.635134 0.970638 -0.217892
H16   H     H_    0.015261 0.670884 0.958017 0.205443
H17   H     H_    0.122955 0.724417 0.077548 0.195453
H18   H     H_    0.087340 0.523187 0.016021 0.183216
C25   C     C_3   0.441900 0.951372 0.223376 -0.348719
C26   C     C_3   0.521882 0.926987 0.135225 -0.782505
H19   H     H_    0.550033 0.037686 0.113390 0.245868
H20   H     H_    0.572025 0.878648 0.223063 0.249886
H21   H     H_    0.503155 0.845844 0.004114 0.265848
H22   H     H_    0.402068 0.841055 0.205568 0.234857
H23   H     H_    0.397745 0.022359 0.150223 0.184922
C27   C     C_3   0.423168 0.027504 0.717090 -0.420186
C28   C     C_3   0.346137 0.923358 0.736057 -0.837464
H24   H     H_    0.302191 0.887630 0.603684 0.247735
H25   H     H_    0.367742 0.818327 0.785190 0.288020
H26   H     H_    0.308750 0.987593 0.835817 0.223020
H27   H     H_    0.471304 0.053252 0.842654 0.224968
H28   H     H_    0.395762 0.137105 0.694712 0.225035
O15   O     O_3   0.392183 0.461935 0.970791 -0.467378
C29   C     C_3   0.345911 0.324041 0.977487 -0.140739
H29   H     H_    0.307882 0.277330 0.841169 0.117096
H30   H     H_    0.296003 0.349749 0.065052 0.161577
H31   H     H_    0.386918 0.233882 0.020980 0.142405
O16   O     O_3   0.607705 0.533335 0.027519 -0.456411
C30   C     C_3   0.657934 0.666327 0.018583 -0.130175
H32   H     H_    0.626006 0.741072 0.931355 0.160205
H33   H     H_    0.717512 0.628440 0.965685 0.156093
H34   H     H_    0.680126 0.734701 0.157895 0.109528

loop_
_geom_bond_atom_site_label_1
_geom_bond_atom_site_label_2
_ccdc_geom_bond_type
O11   C21   S    
Cu1   Cu2   S    
C29   H31   S    
C9    C14   S    
C30   H32   S    
C22   H11   S    
C20   H4    S    
C1    C5    S    
O10   C20   S    
C29   H30   S    
C20   H6    S    
C28   H24   S    
C14   O13   S    
C5    C6    D    
C24   H17   S    
Cu2   O3    S    
C27   H28   S    
O14   C24   S    
C28   H25   S    
C3    O7    A    
Cu1   O4    S    
C26   H20   S    
C30   H33   S    
C25   H22   S    
Cu2   O2    S    
C27   C28   S    
C4    C12   S    
Cu1   O5    S    
C23   H15   S    
C13   O14   S    
C6    C27   S    
N1    N2    D    
C1    O3    A    
C2    C6    S    
C21   H8    S    
C4    O6    A    
C23   H14   S    
C22   H12   S    
Cu2   O7    S    
O13   C23   S    
C19   H3    S    
Cu1   N2    S    
C29   H29   S    
C24   H18   S    
Cu2   O6    S    
C27   H27   S    
C21   H9    S    
C19   H2    S    
C28   H26   S    
Cu1   O1    S    
O15   C29   S    
C26   H19   S    
C25   H23   S    
C22   H10   S    
C5    C25   S    
C2    O4    A    
C16   C18   S    
C7    C16   S    
C1    O1    A    
C8    C15   S    
C13   C15   S    
C2    O2    A    
C14   C16   S    
C21   H7    S    
C30   H34   S    
C23   H13   S    
C15   C17   S    
O12   C22   S    
C11   C17   T    
C8    C14   S    
C26   H21   S    
O9    C19   S    
O16   C30   S    
C10   C13   S    
N1    O15   S    
C19   H1    S    
C3    O5    A    
C9    C15   S    
N2    O16   S    
C20   H5    S    
C10   C16   S    
C24   H16   S    
C7    O11   S    
C25   C26   S    
C8    O12   S    
C3    C11   S    
C9    O9    S    
C7    C9    S    
C7    C13   S    
Cu2   N1    S    
C8    C10   S    
C12   C18   T    
C10   O10   S    
Cu1   O8    S    
C4    O8    A    
