data_mof_unit_63636.cif
_audit_creation_date              2013-03-05T16:13:51-0500
_audit_creation_method            fapswitch 2.2
_symmetry_space_group_name_H-M    P1
_symmetry_Int_Tables_number       1
_space_group_crystal_system       triclinic
_cell_length_a                    43.903997
_cell_length_b                    30.278072
_cell_length_c                    31.79582
_cell_angle_alpha                 89.999625
_cell_angle_beta                  136.359125
_cell_angle_gamma                 90.000282
_cell_volume                      29170.0374187

loop_
_atom_site_label
_atom_site_type_symbol
_atom_site_description
_atom_site_fract_x
_atom_site_fract_y
_atom_site_fract_z
_atom_type_partial_charge
O1    O     O_R   0.565460 0.963010 0.065460 -0.622994
O2    O     O_R   0.434540 0.963010 0.934540 -0.622967
O3    O     O_R   0.065460 0.463010 0.065460 -0.622994
O4    O     O_R   0.934540 0.463010 0.934540 -0.622974
O5    O     O_R   0.565400 0.036920 0.065400 -0.623354
O6    O     O_R   0.434600 0.036920 0.934600 -0.623321
O7    O     O_R   0.065400 0.536920 0.065400 -0.623352
O8    O     O_R   0.934600 0.536920 0.934600 -0.623331
C1    C     C_R   0.586292 0.999981 0.086301 0.884713
C2    C     C_R   0.413712 0.999981 0.913702 0.884724
C3    C     C_R   0.086292 0.499981 0.086301 0.884712
C4    C     C_R   0.913710 0.499981 0.913701 0.884718
O9    O     O_R   0.499990 0.963010 0.061610 -0.611811
O10   O     O_R   0.500010 0.963010 0.938390 -0.611851
O11   O     O_R   0.999990 0.463010 0.061610 -0.611819
O12   O     O_R   0.000010 0.463010 0.938390 -0.611836
O13   O     O_R   0.499940 0.036920 0.061550 -0.612873
O14   O     O_R   0.500060 0.036920 0.938450 -0.612835
O15   O     O_R   0.999940 0.536920 0.061550 -0.612860
O16   O     O_R   0.000060 0.536920 0.938450 -0.612844
C5    C     C_R   0.499954 0.999968 0.081246 0.908396
C6    C     C_R   0.500046 0.999968 0.918754 0.908394
C7    C     C_R   0.999954 0.499968 0.081246 0.908392
C8    C     C_R   0.000046 0.499968 0.918754 0.908392
Zn1   Zn    Zn3+2 0.500000 0.950610 0.000000 0.991995
Zn2   Zn    Zn3+2 1.000000 0.450610 0.000000 0.992012
Zn3   Zn    Zn3+2 0.500000 0.049320 0.000000 0.988710
Zn4   Zn    Zn3+2 0.000000 0.549320 0.000000 0.988729
C9    C     C_3   0.536672 0.979782 0.300600 -0.154745
C10   C     C_3   0.464207 0.978259 0.700278 -0.154343
C11   C     C_3   0.036415 0.479321 0.300344 -0.154632
C12   C     C_3   0.964744 0.477398 0.700814 -0.154157
C13   C     C_3   0.535808 0.021655 0.271810 -0.159790
C14   C     C_3   0.463312 0.020131 0.727311 -0.159727
C15   C     C_3   0.036078 0.521201 0.272080 -0.159775
C16   C     C_3   0.962835 0.519236 0.726834 -0.159709
H1    H     H_    0.565161 0.039423 0.288880 0.143969
H2    H     H_    0.433239 0.036650 0.709521 0.143981
H3    H     H_    0.065653 0.538598 0.289371 0.143971
H4    H     H_    0.932371 0.535020 0.708652 0.143985
H5    H     H_    0.566733 0.963224 0.342877 0.147278
H6    H     H_    0.434868 0.960452 0.658722 0.147531
H7    H     H_    0.066265 0.462385 0.342410 0.147349
H8    H     H_    0.935845 0.458885 0.659697 0.147655
H9    H     H_    0.498463 0.076181 0.274680 0.141449
H10   H     H_    0.498335 0.076180 0.722119 0.141459
H11   H     H_    0.999423 0.576194 0.275639 0.141454
H12   H     H_    0.996491 0.576117 0.720277 0.141484
C17   C     C_1   0.499955 0.999973 0.125798 -0.170128
C18   C     C_1   0.500044 0.999975 0.874201 -0.170129
C19   C     C_1   0.999955 0.499973 0.125798 -0.170146
C20   C     C_1   0.000044 0.499974 0.874201 -0.170144
C21   C     C_1   0.500014 0.999966 0.374182 -0.171879
C22   C     C_1   0.499985 0.999966 0.625818 -0.171880
C23   C     C_1   0.000014 0.499966 0.374182 -0.171879
C24   C     C_1   0.999986 0.499967 0.625819 -0.171881
C25   C     C_3   0.500849 0.958107 0.236891 -0.152597
C26   C     C_3   0.500907 0.958109 0.764865 -0.152552
C27   C     C_3   0.000323 0.458099 0.236365 -0.152594
C28   C     C_3   0.001922 0.458144 0.765877 -0.152586
C29   C     C_3   0.499985 0.999979 0.208905 0.192335
C30   C     C_3   0.500013 0.999981 0.791093 0.192351
C31   C     C_3   0.999986 0.499979 0.208905 0.192343
C32   C     C_3   0.000013 0.499981 0.791093 0.192365
C33   C     C_3   0.464198 0.978306 0.228206 -0.156181
C34   C     C_3   0.536679 0.979831 0.772671 -0.156515
C35   C     C_3   0.963928 0.478759 0.227937 -0.156285
C36   C     C_3   0.037157 0.480727 0.773149 -0.156707
C37   C     C_3   0.500020 0.999981 0.291111 0.193396
C38   C     C_3   0.499978 0.999982 0.708888 0.193378
C39   C     C_3   0.000021 0.499981 0.291111 0.193397
C40   C     C_3   0.999980 0.499982 0.708889 0.193382
C41   C     C_3   0.463334 0.020178 0.199416 -0.160641
C42   C     C_3   0.535784 0.021703 0.799703 -0.160744
C43   C     C_3   0.963591 0.520638 0.199673 -0.160671
C44   C     C_3   0.035248 0.522564 0.799168 -0.160747
C45   C     C_3   0.499156 0.041854 0.263124 -0.161487
C46   C     C_3   0.499084 0.041853 0.735116 -0.161551
C47   C     C_3   0.999684 0.541861 0.263651 -0.161496
C48   C     C_3   0.998071 0.541819 0.734105 -0.161558
C49   C     C_1   0.499966 0.999977 0.163381 -0.062518
C50   C     C_1   0.500033 0.999979 0.836618 -0.062517
C51   C     C_1   0.999966 0.499977 0.163381 -0.062531
C52   C     C_1   0.000033 0.499978 0.836618 -0.062530
C53   C     C_1   0.500027 0.999977 0.336621 -0.061948
C54   C     C_1   0.499972 0.999977 0.663378 -0.061950
C55   C     C_1   0.000027 0.499977 0.336622 -0.061950
C56   C     C_1   0.999973 0.499977 0.663379 -0.061954
H13   H     H_    0.433272 0.036735 0.157137 0.144092
H14   H     H_    0.565124 0.039509 0.841260 0.144034
H15   H     H_    0.933741 0.537573 0.157605 0.144068
H16   H     H_    0.064148 0.541076 0.840286 0.144052
H17   H     H_    0.434845 0.960536 0.211135 0.146853
H18   H     H_    0.566751 0.963311 0.790461 0.146633
H19   H     H_    0.934355 0.461361 0.210645 0.146778
H20   H     H_    0.067621 0.464942 0.791332 0.146501
H21   H     H_    0.501542 0.923779 0.225337 0.149500
H22   H     H_    0.501656 0.923783 0.777861 0.149485
H23   H     H_    0.000584 0.423765 0.224379 0.149487
H24   H     H_    0.003501 0.423845 0.779703 0.149435
C57   C     C_R   0.703191 0.040564 0.198755 -0.024900
C58   C     C_R   0.296824 0.040447 0.802102 -0.024603
C59   C     C_R   0.203190 0.540556 0.198689 -0.024879
C60   C     C_R   0.796818 0.540495 0.801784 -0.024751
C61   C     C_R   0.657251 0.039735 0.152505 -0.217313
C62   C     C_R   0.342763 0.039614 0.848333 -0.217377
C63   C     C_R   0.157250 0.539726 0.152441 -0.217313
C64   C     C_R   0.842758 0.539663 0.848020 -0.217358
H25   H     H_    0.639132 0.070369 0.130911 0.204135
H26   H     H_    0.360885 0.070157 0.870589 0.203821
H27   H     H_    0.139130 0.570354 0.130795 0.204114
H28   H     H_    0.860880 0.570241 0.870030 0.203976
C65   C     C_R   0.634351 0.000016 0.134400 -0.090663
C66   C     C_R   0.365660 0.000015 0.865609 -0.090385
C67   C     C_R   0.134350 0.500016 0.134400 -0.090642
C68   C     C_R   0.865656 0.500016 0.865605 -0.090504
C69   C     C_R   0.657285 0.960328 0.162185 -0.216562
C70   C     C_R   0.342730 0.960447 0.837003 -0.216628
C71   C     C_R   0.157284 0.460337 0.162248 -0.216566
C72   C     C_R   0.842723 0.460402 0.837305 -0.216603
H29   H     H_    0.639195 0.929670 0.147541 0.204428
H30   H     H_    0.360826 0.929880 0.850996 0.204142
H31   H     H_    0.139193 0.429685 0.147654 0.204409
H32   H     H_    0.860817 0.429798 0.851539 0.204247
C73   C     C_R   0.703225 0.959555 0.207892 -0.022932
C74   C     C_R   0.296790 0.959672 0.791275 -0.022712
C75   C     C_R   0.203224 0.459564 0.207958 -0.022919
C76   C     C_R   0.796784 0.459628 0.791585 -0.022794
C77   C     C_R   0.726250 0.000074 0.226379 -0.096916
C78   C     C_R   0.273763 0.000073 0.773630 -0.096896
C79   C     C_R   0.226249 0.500074 0.226379 -0.096915
C80   C     C_R   0.773758 0.500076 0.773629 -0.096910
C81   C     C_R   0.796743 0.996851 0.334950 -0.077429
C82   C     C_R   0.203263 0.997536 0.665008 -0.077546
C83   C     C_R   0.296743 0.496904 0.334955 -0.077441
C84   C     C_R   0.703261 0.497290 0.665024 -0.077560
H33   H     H_    0.778954 0.994370 0.346641 0.127297
H34   H     H_    0.221050 0.995589 0.653277 0.127322
H35   H     H_    0.278954 0.494465 0.346649 0.127295
H36   H     H_    0.721049 0.495151 0.653307 0.127308
C85   C     C_R   0.842477 0.996866 0.380690 -0.163792
C86   C     C_R   0.157529 0.997540 0.619271 -0.163756
C87   C     C_R   0.342477 0.496919 0.380694 -0.163790
C88   C     C_R   0.657528 0.497298 0.619285 -0.163772
H37   H     H_    0.859683 0.994313 0.427639 0.158034
H38   H     H_    0.140325 0.995528 0.572285 0.158185
H39   H     H_    0.359682 0.494407 0.427646 0.158045
H40   H     H_    0.640324 0.495091 0.572312 0.158132
C89   C     C_R   0.865556 0.000008 0.365601 -0.041747
C90   C     C_R   0.134450 0.000008 0.634404 -0.041853
C91   C     C_R   0.365555 0.500008 0.365601 -0.041758
C92   C     C_R   0.634448 0.500008 0.634403 -0.041817
C93   C     C_R   0.842485 0.003206 0.304397 -0.166454
C94   C     C_R   0.157524 0.002533 0.695656 -0.166523
C95   C     C_R   0.342485 0.503154 0.304393 -0.166457
C96   C     C_R   0.657520 0.502775 0.695639 -0.166490
H41   H     H_    0.859696 0.005728 0.291839 0.157434
H42   H     H_    0.140318 0.004513 0.708258 0.157454
H43   H     H_    0.359695 0.505634 0.291831 0.157438
H44   H     H_    0.640312 0.504949 0.708225 0.157445
C97   C     C_R   0.796754 0.003305 0.258735 -0.079239
C98   C     C_R   0.203256 0.002621 0.741319 -0.079505
C99   C     C_R   0.296753 0.503252 0.258730 -0.079254
C100  C     C_R   0.703252 0.502868 0.741302 -0.079331
H45   H     H_    0.778973 0.005802 0.211497 0.126599
H46   H     H_    0.221037 0.004583 0.788594 0.126580
H47   H     H_    0.278972 0.505707 0.211490 0.126601
H48   H     H_    0.721033 0.505022 0.788564 0.126579
C101  C     C_R   0.774092 0.000092 0.274201 0.190759
C102  C     C_R   0.225918 0.000093 0.725806 0.190600
C103  C     C_R   0.274091 0.500092 0.274201 0.190752
C104  C     C_R   0.725914 0.500094 0.725805 0.190679
O17   O     O_R   0.536910 0.934410 0.536900 -0.623760
O18   O     O_R   0.463090 0.934410 0.463100 -0.623768
O19   O     O_R   0.036910 0.434410 0.536900 -0.623763
O20   O     O_R   0.963090 0.434410 0.463100 -0.623774
C105  C     C_R   0.500000 0.913575 0.500000 0.878979
C106  C     C_R   0.000000 0.413575 0.500000 0.878986
O21   O     O_R   0.536920 0.999880 0.475310 -0.612862
O22   O     O_R   0.463080 0.999880 0.524690 -0.612857
O23   O     O_R   0.036920 0.499880 0.475310 -0.612851
O24   O     O_R   0.963080 0.499880 0.524690 -0.612848
O25   O     O_R   0.463000 0.999950 0.401380 -0.614372
O26   O     O_R   0.537000 0.999950 0.598620 -0.614378
O27   O     O_R   0.963000 0.499950 0.401380 -0.614383
O28   O     O_R   0.037000 0.499950 0.598620 -0.614386
C107  C     C_R   0.499978 0.999944 0.418695 0.911877
C108  C     C_R   0.500022 0.999944 0.581305 0.911878
C109  C     C_R   0.999977 0.499944 0.418695 0.911881
C110  C     C_R   0.000022 0.499944 0.581305 0.911881
Zn5   Zn    Zn3+2 0.549320 0.999860 0.549320 0.975893
Zn6   Zn    Zn3+2 0.450680 0.999860 0.450680 0.975901
Zn7   Zn    Zn3+2 0.049320 0.499860 0.549320 0.975894
Zn8   Zn    Zn3+2 0.950680 0.499860 0.450680 0.975895
O29   O     O_R   0.536940 0.065340 0.536940 -0.625002
O30   O     O_R   0.463060 0.065340 0.463060 -0.625008
O31   O     O_R   0.036940 0.565340 0.536940 -0.625001
O32   O     O_R   0.963060 0.565340 0.463060 -0.625010
C111  C     C_R   0.500000 0.086159 0.500000 0.858319
C112  C     C_R   1.000000 0.586160 0.500000 0.858319
O33   O     O_R   0.999920 0.065420 0.534690 -0.620972
O34   O     O_R   0.000080 0.065420 0.465310 -0.621150
O35   O     O_R   0.499920 0.565420 0.534690 -0.621015
O36   O     O_R   0.500080 0.565420 0.465310 -0.621117
C113  C     C_R   1.000000 0.086411 0.500000 0.935036
C114  C     C_R   0.500000 0.586412 0.500000 0.935035
O37   O     O_R   0.934500 0.999950 0.469270 -0.623143
O38   O     O_R   0.065500 0.999950 0.530730 -0.623205
O39   O     O_R   0.434500 0.499950 0.469270 -0.623146
O40   O     O_R   0.565500 0.499950 0.530730 -0.623180
O41   O     O_R   0.934490 0.999950 0.399700 -0.625659
O42   O     O_R   0.065510 0.999950 0.600300 -0.625675
O43   O     O_R   0.434490 0.499950 0.399700 -0.625660
O44   O     O_R   0.565510 0.499950 0.600300 -0.625672
C115  C     C_R   0.913513 0.999962 0.413520 0.881405
C116  C     C_R   0.086489 0.999962 0.586481 0.881467
C117  C     C_R   0.413513 0.499962 0.413520 0.881413
C118  C     C_R   0.586488 0.499962 0.586481 0.881448
Zn9   Zn    Zn3+2 0.999970 0.999950 0.546410 0.979394
Zn10  Zn    Zn3+2 0.000030 0.999950 0.453590 0.979382
Zn11  Zn    Zn3+2 0.499970 0.499950 0.546410 0.979399
Zn12  Zn    Zn3+2 0.500030 0.499950 0.453590 0.979392
O45   O     O_R   0.000010 0.934490 0.534800 -0.624616
O46   O     O_R   0.999990 0.934490 0.465200 -0.624433
O47   O     O_R   0.500010 0.434490 0.534800 -0.624578
O48   O     O_R   0.499990 0.434490 0.465200 -0.624474
C119  C     C_R   1.000000 0.913518 0.500000 0.875001
C120  C     C_R   0.500000 0.413518 0.500000 0.874994
C121  C     C_R   0.460301 0.796766 0.465870 -0.059134
C122  C     C_R   0.539698 0.796766 0.534126 -0.059104
C123  C     C_R   0.960294 0.296765 0.465813 -0.059152
C124  C     C_R   0.039705 0.296765 0.534183 -0.059101
H49   H     H_    0.429586 0.778991 0.439435 0.139435
H50   H     H_    0.570413 0.778991 0.560561 0.139450
H51   H     H_    0.929573 0.278990 0.439333 0.139435
H52   H     H_    0.070426 0.278990 0.560662 0.139462
C125  C     C_R   0.460251 0.842520 0.465728 -0.175160
C126  C     C_R   0.539748 0.842519 0.534270 -0.175138
C127  C     C_R   0.960244 0.342518 0.465672 -0.175164
C128  C     C_R   0.039756 0.342519 0.534325 -0.175134
H53   H     H_    0.429255 0.859734 0.439114 0.162073
H54   H     H_    0.570745 0.859734 0.560884 0.162077
H55   H     H_    0.929241 0.359732 0.439012 0.162082
H56   H     H_    0.070759 0.359732 0.560986 0.162090
C129  C     C_R   0.500000 0.865601 0.499999 -0.043931
C130  C     C_R   1.000000 0.365600 0.499999 -0.043945
C131  C     C_R   0.499999 0.774078 0.499998 0.213968
C132  C     C_R   1.000000 0.274077 0.499998 0.213959
C133  C     C_R   0.006999 0.203271 0.468867 0.299404
C134  C     C_R   0.993000 0.203271 0.531129 0.299377
C135  C     C_R   0.506944 0.703272 0.468803 0.299384
C136  C     C_R   0.493055 0.703272 0.531193 0.299365
C137  C     C_R   0.007353 0.157333 0.469852 -0.234921
C138  C     C_R   0.992646 0.157333 0.530145 -0.234723
C139  C     C_R   0.507300 0.657334 0.469790 -0.234879
C140  C     C_R   0.492699 0.657334 0.530207 -0.234764
H57   H     H_    0.012767 0.139459 0.446199 0.204970
H58   H     H_    0.987233 0.139459 0.553798 0.205018
H59   H     H_    0.512671 0.639461 0.446088 0.204999
H60   H     H_    0.487328 0.639461 0.553910 0.205027
C141  C     C_R   1.000000 0.134405 0.499999 -0.161537
C142  C     C_R   0.500000 0.634406 0.499999 -0.161556
C143  C     C_R   1.000000 0.226259 0.499998 -0.188475
C144  C     C_R   0.499999 0.726260 0.499998 -0.188471
C145  C     C_R   0.462037 0.202982 0.449760 -0.170381
C146  C     C_R   0.537961 0.202982 0.550242 -0.170355
C147  C     C_R   0.962037 0.702982 0.449760 -0.170388
C148  C     C_R   0.037961 0.702982 0.550241 -0.170343
H61   H     H_    0.432480 0.220572 0.410878 0.140772
H62   H     H_    0.567518 0.220572 0.589123 0.140778
H63   H     H_    0.932480 0.720572 0.410879 0.140770
H64   H     H_    0.067518 0.720572 0.589122 0.140783
C149  C     C_R   0.461926 0.157189 0.449902 -0.185598
C150  C     C_R   0.538073 0.157188 0.550099 -0.185589
C151  C     C_R   0.961926 0.657188 0.449902 -0.185600
C152  C     C_R   0.038073 0.657188 0.550099 -0.185585
H65   H     H_    0.432290 0.139879 0.410733 0.159047
H66   H     H_    0.567709 0.139878 0.589268 0.159047
H67   H     H_    0.932290 0.639879 0.410733 0.159047
H68   H     H_    0.067709 0.639879 0.589267 0.159051
C153  C     C_R   0.500000 0.134128 0.500000 -0.031147
C154  C     C_R   1.000000 0.634128 0.500000 -0.031152
C155  C     C_R   0.499999 0.225885 0.500001 0.106061
C156  C     C_R   0.999999 0.725885 0.500000 0.106058
C157  C     C_R   0.012338 0.796718 0.548689 -0.166774
C158  C     C_R   0.987660 0.796718 0.451311 -0.166731
C159  C     C_R   0.512338 0.296718 0.548689 -0.166772
C160  C     C_R   0.487661 0.296718 0.451312 -0.166740
H69   H     H_    0.021695 0.779128 0.586344 0.137878
H70   H     H_    0.978303 0.779128 0.413656 0.137915
H71   H     H_    0.521694 0.279128 0.586344 0.137886
H72   H     H_    0.478304 0.279128 0.413657 0.137912
C161  C     C_R   0.012070 0.842510 0.548523 -0.178882
C162  C     C_R   0.987929 0.842510 0.451478 -0.178723
C163  C     C_R   0.512070 0.342510 0.548523 -0.178849
C164  C     C_R   0.487929 0.342510 0.451478 -0.178761
H73   H     H_    0.021632 0.859831 0.586460 0.158444
H74   H     H_    0.978367 0.859831 0.413540 0.158523
H75   H     H_    0.521631 0.359830 0.586460 0.158470
H76   H     H_    0.478368 0.359830 0.413541 0.158518
C165  C     C_R   1.000000 0.865562 0.500000 -0.034552
C166  C     C_R   0.500000 0.365562 0.500000 -0.034564
C167  C     C_R   0.999999 0.773814 0.500000 0.106451
C168  C     C_R   0.499999 0.273814 0.500000 0.106446
C169  C     C_2   0.725554 0.915795 0.234408 0.898728
O49   O     O_2   0.762975 0.910077 0.258481 -0.625431
O50   O     O_R   0.703027 0.880481 0.230468 -0.806231
H77   H     H_    0.721293 0.852435 0.249588 0.352361
C170  C     C_2   0.274460 0.916025 0.763844 0.898681
O51   O     O_2   0.237092 0.909967 0.739824 -0.625307
O52   O     O_R   0.296926 0.881194 0.766851 -0.806204
H78   H     H_    0.278661 0.853175 0.747152 0.352383
C171  C     C_2   0.225553 0.415811 0.234545 0.898725
O53   O     O_2   0.262971 0.410068 0.258618 -0.625421
O54   O     O_R   0.203030 0.380533 0.230673 -0.806228
H79   H     H_    0.221295 0.352489 0.249838 0.352363
C172  C     C_2   0.774454 0.415937 0.764492 0.898694
O55   O     O_2   0.737069 0.410004 0.740464 -0.625357
O56   O     O_R   0.796938 0.380927 0.767831 -0.806202
H80   H     H_    0.778672 0.352897 0.748345 0.352377
N1    N     N_R   0.013280 0.225852 0.435685 0.210242
O57   O     O_R   0.037593 0.208139 0.430751 -0.376534
O58   O     O_R   0.990821 0.261272 0.404337 -0.381889
N2    N     N_R   0.986719 0.225852 0.564311 0.210255
O59   O     O_R   0.962406 0.208140 0.569244 -0.376413
O60   O     O_R   0.009179 0.261272 0.595660 -0.381824
N3    N     N_R   0.513167 0.725853 0.435553 0.210246
O61   O     O_R   0.537431 0.708138 0.430537 -0.376509
O62   O     O_R   0.490697 0.761276 0.404227 -0.381889
N4    N     N_R   0.486831 0.725853 0.564442 0.210255
O63   O     O_R   0.462566 0.708138 0.569457 -0.376427
O64   O     O_R   0.509301 0.761275 0.595769 -0.381837
C173  C     C_2   0.725485 0.084350 0.216897 0.901864
O65   O     O_2   0.762872 0.090093 0.267654 -0.617587
O66   O     O_R   0.702964 0.119654 0.175801 -0.806816
H81   H     H_    0.721205 0.147717 0.193213 0.354464
C174  C     C_2   0.274527 0.084117 0.784876 0.901774
O67   O     O_2   0.237204 0.090213 0.734160 -0.617499
O68   O     O_R   0.296973 0.118923 0.826808 -0.806844
H82   H     H_    0.278732 0.146961 0.809982 0.354431
C175  C     C_2   0.225484 0.584334 0.216761 0.901859
O69   O     O_2   0.262867 0.590104 0.267513 -0.617588
O70   O     O_R   0.202967 0.619602 0.175602 -0.806821
H83   H     H_    0.221208 0.647664 0.192969 0.354462
C176  C     C_2   0.774524 0.584213 0.784216 0.901825
O71   O     O_2   0.737166 0.590169 0.733499 -0.617552
O72   O     O_R   0.797012 0.619218 0.825820 -0.806836
H84   H     H_    0.778772 0.647267 0.808776 0.354450

loop_
_geom_bond_atom_site_label_1
_geom_bond_atom_site_label_2
_geom_bond_distance
_ccdc_geom_bond_type
C161  H73   1.083224 S    
C26   C30   1.533546 S    
C140  C142  1.397445 A    
C86   H38   1.083005 S    
O28   Zn7   1.994225 S    
C84   H36   1.083498 S    
C174  O67   1.222712 D    
C173  O65   1.222700 D    
C81   H33   1.083499 S    
O41   Zn10  2.019816 S    
C147  C151  1.386554 A    
C162  H74   1.083224 S    
C60   C176  1.493612 S    
Zn11  O47   2.016320 S    
C128  H56   1.083024 S    
O47   C120  1.275472 A    
C11   C27   1.548060 S    
C20   C52   1.194649 T    
C151  C154  1.401855 A    
C59   C175  1.493690 S    
C32   C52   1.446847 S    
C74   C170  1.493574 S    
C106  C130  1.452578 S    
C92   C96   1.403377 A    
C138  C141  1.397439 A    
N2    O59   1.301523 A    
C134  C138  1.391106 A    
O24   Zn8   1.994931 S    
C91   C95   1.403365 A    
O4    C4    1.285074 A    
C3    C67   1.456147 S    
C85   H37   1.083012 S    
C87   C91   1.403375 A    
C9    C37   1.533541 S    
C112  C154  1.452400 S    
N4    O63   1.301521 A    
C158  C167  1.398984 A    
C100  H48   1.083499 S    
O33   Zn9   2.016733 S    
C16   C48   1.548074 S    
C163  H75   1.083222 S    
C99   C103  1.396183 A    
O16   Zn4   1.994597 S    
O17   Zn5   2.017058 S    
O13   C5    1.281967 A    
O7    Zn4   2.016854 S    
C93   C97   1.385668 A    
O28   C110  1.282605 A    
O15   C7    1.281967 A    
O43   Zn12  2.019816 S    
C36   C40   1.533554 S    
C25   H21   1.110135 S    
O26   Zn5   1.994225 S    
O9    C5    1.281960 A    
C133  C143  1.413829 A    
O18   C105  1.284013 A    
C163  C166  1.401744 A    
C135  N3    1.441456 S    
C87   H39   1.083012 S    
O22   Zn6   1.994931 S    
O8    Zn4   2.016860 S    
C121  C125  1.385341 A    
C160  H72   1.083518 S    
C145  C155  1.398944 A    
N3    O62   1.301319 A    
C137  C141  1.397437 A    
O3    Zn2   2.018639 S    
C58   C78   1.418560 A    
C28   H24   1.110139 S    
C25   C29   1.533549 S    
C71   H31   1.083541 S    
C27   C31   1.533549 S    
C28   C32   1.533548 S    
O39   C117  1.275604 A    
C42   H14   1.110138 S    
C121  H49   1.083552 S    
C64   C68   1.396693 A    
C34   C38   1.533554 S    
C152  C154  1.401856 A    
C147  C156  1.398944 A    
C126  C129  1.403192 A    
C159  C163  1.386545 A    
C122  H50   1.083555 S    
C160  C164  1.386545 A    
C75   C79   1.418600 A    
O3    C3    1.285105 A    
O66   H81   1.013970 S    
C73   C77   1.418603 A    
O21   Zn5   1.994927 S    
C13   C29   1.533556 S    
N1    O57   1.301530 A    
C94   H42   1.083019 S    
C41   C45   1.548067 S    
C15   C31   1.533556 S    
C80   C104  1.449651 S    
C16   C32   1.533557 S    
C43   C47   1.548064 S    
O19   Zn7   2.017058 S    
C97   H45   1.083501 S    
O40   Zn12  2.018407 S    
C9    C13   1.548068 S    
C37   C45   1.533546 S    
C26   H22   1.110137 S    
C39   C47   1.533548 S    
C164  C166  1.401748 A    
C11   H7    1.110135 S    
C127  C130  1.403197 A    
C23   C109  1.416516 S    
C61   C65   1.396735 A    
C78   C102  1.449697 S    
O45   C119  1.275469 A    
C24   C56   1.194648 T    
C34   C42   1.548050 S    
C157  H69   1.083515 S    
C124  H52   1.083554 S    
C158  C162  1.386542 A    
C70   H30   1.083566 S    
O34   Zn10  2.016738 S    
C162  C165  1.401746 A    
C89   C93   1.403362 A    
C27   C35   1.548046 S    
O5    Zn3   2.016854 S    
C148  H64   1.083520 S    
C169  O50   1.399197 S    
C91   C117  1.453103 S    
C43   H15   1.110140 S    
C97   C101  1.396178 A    
O20   C106  1.284017 A    
C35   H19   1.110141 S    
C147  H63   1.083520 S    
O30   C111  1.284580 A    
C81   C101  1.396198 A    
O29   C111  1.284580 A    
C175  O70   1.399196 S    
C32   C44   1.533546 S    
C24   C110  1.416523 S    
C10   C14   1.548072 S    
C95   H43   1.083017 S    
O13   Zn3   1.994589 S    
C152  H68   1.083203 S    
C96   H44   1.083017 S    
O44   C118  1.275570 A    
C22   C54   1.194651 T    
C95   C99   1.385668 A    
C68   C72   1.396706 A    
C124  C132  1.396334 A    
C19   C51   1.194649 T    
C89   C115  1.453097 S    
O5    C1    1.285158 A    
O8    C4    1.285124 A    
C148  C152  1.386551 A    
O15   Zn4   1.994589 S    
C65   C69   1.396735 A    
C145  C149  1.386554 A    
C75   C171  1.493706 S    
C67   C71   1.396733 A    
C159  C168  1.398985 A    
C42   C46   1.548064 S    
C100  C104  1.396187 A    
C35   C43   1.548053 S    
C161  C165  1.401742 A    
C37   C53   1.446844 S    
C61   H25   1.083537 S    
C9    H5    1.110136 S    
O14   C6    1.281965 A    
C63   H27   1.083539 S    
C94   C98   1.385676 A    
C30   C42   1.533542 S    
C44   C48   1.548067 S    
C21   C53   1.194658 T    
O27   C109  1.282607 A    
C79   C103  1.449603 S    
C36   C44   1.548049 S    
O24   C110  1.282675 A    
C125  H53   1.083024 S    
C1    C65   1.456162 S    
O10   C6    1.281961 A    
C40   C48   1.533547 S    
C29   C49   1.446847 S    
C13   C45   1.548072 S    
Zn8   O32   2.017779 S    
C113  C141  1.453157 S    
C140  H60   1.083359 S    
C15   C47   1.548068 S    
C73   C169  1.493716 S    
Zn5   O29   2.017779 S    
C136  C144  1.413829 A    
C121  C131  1.396337 A    
C137  H57   1.083365 S    
N2    O60   1.301322 A    
C82   C102  1.396206 A    
O33   C113  1.275222 A    
C123  H51   1.083551 S    
C59   C79   1.418594 A    
C122  C131  1.396335 A    
O18   Zn6   2.017059 S    
C4    C68   1.456032 S    
C57   C77   1.418599 A    
C155  C168  1.451210 S    
C8    C20   1.416520 S    
C156  C167  1.451210 S    
O39   Zn11  2.018413 S    
C119  C165  1.452012 S    
O27   Zn8   1.994221 S    
O52   H78   1.013965 S    
O25   Zn6   1.994221 S    
C12   C40   1.533540 S    
C36   H20   1.110141 S    
N4    O64   1.301322 A    
C157  C167  1.398985 A    
Zn6   O30   2.017779 S    
O21   C107  1.282678 A    
C74   C78   1.418572 A    
C14   C30   1.533557 S    
C17   C49   1.194652 T    
C172  O56   1.399191 S    
C145  H61   1.083520 S    
O22   C108  1.282675 A    
C10   C38   1.533545 S    
C98   H46   1.083502 S    
O23   C109  1.282678 A    
C105  C129  1.452566 S    
C84   C104  1.396200 A    
O34   C113  1.275218 A    
C83   C103  1.396197 A    
C176  O72   1.399191 S    
O23   Zn7   1.994927 S    
C2    C66   1.455950 S    
C6    C18   1.416520 S    
C30   C50   1.446850 S    
O54   H79   1.013969 S    
C22   C108  1.416519 S    
C128  C130  1.403198 A    
C150  C153  1.401854 A    
C133  N1    1.441451 S    
C174  O68   1.399181 S    
O19   C106  1.284017 A    
C173  O66   1.399196 S    
O12   Zn2   1.994904 S    
O35   C114  1.275227 A    
C158  H70   1.083518 S    
O50   H77   1.013968 S    
O1    C1    1.285112 A    
C134  N2    1.441450 S    
O72   H84   1.013966 S    
H10   C46   1.110143 S    
C29   C41   1.533543 S    
C170  O51   1.222698 D    
C149  H65   1.083204 S    
C64   H28   1.083556 S    
C31   C51   1.446850 S    
C14   H2    1.110138 S    
O31   C112  1.284580 A    
C15   H3    1.110141 S    
C58   C174  1.493519 S    
O44   Zn11  2.019816 S    
O25   C107  1.282607 A    
C82   C86   1.385728 A    
C135  C139  1.391107 A    
O68   H82   1.013959 S    
C98   C102  1.396187 A    
O37   C115  1.275604 A    
C39   C55   1.446844 S    
C62   C66   1.396666 A    
C120  C166  1.452012 S    
C11   C15   1.548071 S    
C12   C28   1.548059 S    
O46   C119  1.275476 A    
C12   C16   1.548071 S    
C60   C64   1.392222 A    
C18   C50   1.194649 T    
O36   Zn12  2.016738 S    
C25   C33   1.548046 S    
O6    C2    1.285109 A    
O4    Zn2   2.018645 S    
C72   C76   1.392164 A    
O42   Zn9   2.019816 S    
C83   H35   1.083491 S    
C81   C85   1.385722 A    
C149  C153  1.401856 A    
C86   C90   1.403406 A    
O32   C112  1.284580 A    
C41   H13   1.110139 S    
N3    O61   1.301526 A    
C84   C88   1.385725 A    
C171  O53   1.222694 D    
C146  C150  1.386554 A    
C33   C37   1.533553 S    
O2    Zn1   2.018645 S    
C35   C39   1.533554 S    
O10   Zn1   1.994904 S    
C93   H41   1.083018 S    
C13   H1    1.110141 S    
C134  C143  1.413828 A    
C171  O54   1.399198 S    
Zn9   O45   2.016320 S    
O56   H80   1.013962 S    
C164  H76   1.083218 S    
C28   C36   1.548044 S    
C88   C92   1.403397 A    
C169  O49   1.222694 D    
C60   C80   1.418582 A    
Zn12  O48   2.016315 S    
C10   H6    1.110137 S    
O20   Zn8   2.017059 S    
C146  C155  1.398947 A    
O38   Zn10  2.018407 S    
O41   C115  1.275552 A    
O70   H83   1.013968 S    
C38   C46   1.533545 S    
C27   H23   1.110135 S    
O12   C8    1.281961 A    
C151  H67   1.083204 S    
C123  C132  1.396337 A    
H11   C47   1.110141 S    
C88   H40   1.083008 S    
C85   C89   1.403373 A    
C175  O69   1.222699 D    
O7    C3    1.285156 A    
C114  C142  1.453172 S    
C57   C173  1.493702 S    
C148  C156  1.398946 A    
C77   C101  1.449594 S    
C138  H58   1.083360 S    
C111  C153  1.452400 S    
C133  C137  1.391103 A    
C33   C41   1.548051 S    
O35   Zn11  2.016733 S    
C123  C127  1.385341 A    
C69   H29   1.083536 S    
C26   C34   1.548046 S    
O16   C8    1.281965 A    
N1    O58   1.301320 A    
C92   C118  1.453167 S    
C90   C116  1.453203 S    
C131  C144  1.447852 S    
C135  C144  1.413831 A    
C136  C140  1.391103 A    
C132  C143  1.447858 S    
O11   C7    1.281960 A    
O38   C116  1.275630 A    
O1    Zn1   2.018639 S    
C160  C168  1.398983 A    
O9    Zn1   1.994909 S    
C76   C80   1.418586 A    
C40   C56   1.446847 S    
C57   C61   1.392227 A    
C139  H59   1.083359 S    
C125  C129  1.403195 A    
O42   C116  1.275586 A    
C16   H4    1.110141 S    
C146  H62   1.083518 S    
O43   C117  1.275557 A    
O11   Zn2   1.994909 S    
O26   C108  1.282605 A    
C99   H47   1.083500 S    
C7    C19   1.416520 S    
O6    Zn3   2.016860 S    
C139  C142  1.397442 A    
O17   C105  1.284012 A    
C12   H8    1.110138 S    
C38   C54   1.446844 S    
C63   C67   1.396726 A    
C66   C70   1.396697 A    
C44   H16   1.110140 S    
C23   C55   1.194655 T    
C5    C17   1.416520 S    
O36   C114  1.275223 A    
O48   C120  1.275473 A    
C159  H71   1.083514 S    
C122  C126  1.385341 A    
C157  C161  1.386545 A    
O2    C2    1.285048 A    
Zn10  O46   2.016315 S    
C31   C43   1.533542 S    
C62   H26   1.083571 S    
C150  H66   1.083205 S    
O14   Zn3   1.994597 S    
C9    C25   1.548061 S    
C82   H34   1.083497 S    
H9    C45   1.110139 S    
C126  H54   1.083026 S    
O37   Zn9   2.018413 S    
O40   C118  1.275625 A    
C34   H18   1.110141 S    
C59   C63   1.392227 A    
H12   C48   1.110140 S    
C21   C107  1.416516 S    
C14   C46   1.548073 S    
C170  O52   1.399183 S    
C69   C73   1.392177 A    
Zn7   O31   2.017779 S    
C10   C26   1.548060 S    
C33   H17   1.110142 S    
C83   C87   1.385725 A    
C58   C62   1.392209 A    
C172  O55   1.222695 D    
C96   C100  1.385670 A    
C127  H55   1.083024 S    
C76   C172  1.493621 S    
C90   C94   1.403386 A    
C136  N4    1.441460 S    
C124  C128  1.385344 A    
C70   C74   1.392170 A    
C176  O71   1.222703 D    
C72   H32   1.083558 S    
C71   C75   1.392177 A    
C11   C39   1.533543 S    
