data_mof_unit_21927.cif
_audit_creation_date              2012-10-26T21:09:12-0400
_audit_creation_method            fapswitch 2.2
_symmetry_space_group_name_H-M    P1
_symmetry_Int_Tables_number       1
_space_group_crystal_system       triclinic
_cell_length_a                    15.430123
_cell_length_b                    15.405966
_cell_length_c                    9.752557
_cell_angle_alpha                 89.193814
_cell_angle_beta                  88.765249
_cell_angle_gamma                 89.877264
_cell_volume                      2317.56667289

loop_
_atom_site_label
_atom_site_type_symbol
_atom_type_description
_atom_site_fract_x
_atom_site_fract_y
_atom_site_fract_z
_atom_type_partial_charge
C1    C     C_R   0.381309 0.884155 0.501842 0.557206
C2    C     C_2   0.686578 0.250248 0.401183 -0.007410
C3    C     C_2   0.260798 0.326494 0.421865 -0.003477
C4    C     C_2   0.191178 0.747158 0.399028 -0.009813
C5    C     C_2   0.686148 0.819087 0.496781 -0.097122
C6    C     C_2   0.683607 0.184084 0.493878 -0.107527
C7    C     C_2   0.186182 0.319296 0.496831 -0.090565
C8    C     C_2   0.185112 0.682685 0.494266 -0.110179
C9    C     C_2   0.320710 0.251802 0.413172 -0.148246
C10   C     C_2   0.269620 0.800864 0.393917 -0.139088
C11   C     C_2   0.809182 0.741127 0.397821 -0.150220
C12   C     C_R   0.384128 0.118646 0.501059 0.545303
C13   C     C_2   0.764255 0.305784 0.394839 -0.140047
C14   C     C_2   0.322042 0.188770 0.508374 -0.135582
C15   C     C_2   0.308193 0.825552 0.508193 -0.144196
C16   C     C_2   0.824622 0.691242 0.507459 -0.140960
C17   C     C_2   0.806593 0.326842 0.508007 -0.144161
C18   C     C_2   0.435412 0.017250 0.930738 0.122923
C19   C     C_2   0.938856 0.527785 0.929941 0.129466
C20   C     C_2   0.455893 0.049846 0.070248 0.123682
C21   C     C_2   0.963776 0.556271 0.070519 0.129880
C22   C     C_3   0.776217 0.894092 0.309018 -0.255342
C23   C     C_R   0.880640 0.384709 0.501729 0.556995
C24   C     C_3   0.868975 0.925492 0.328752 -0.452882
C25   C     C_3   0.614127 0.266153 0.300024 -0.250384
C26   C     C_3   0.607924 0.359929 0.247401 -0.462039
C27   C     C_3   0.286925 0.408385 0.342346 -0.258544
C28   C     C_3   0.370260 0.446716 0.397481 -0.450442
C29   C     C_3   0.121510 0.763066 0.293848 -0.251821
C30   C     C_3   0.121186 0.854518 0.230371 -0.458299
C31   C     C_3   0.343575 0.992070 0.899336 -0.220981
C32   C     C_3   0.329396 0.895320 0.927129 -0.435174
C33   C     C_3   0.844407 0.526095 0.891236 -0.222513
C34   C     C_R   0.884237 0.618829 0.500942 0.546547
C35   C     C_3   0.789296 0.477005 0.998562 -0.470301
C36   C     C_3   0.450633 0.146524 0.092109 -0.229742
C37   C     C_3   0.359318 0.182454 0.073233 -0.449531
C38   C     C_3   0.975323 0.652187 0.093992 -0.233291
C39   C     C_3   0.902114 0.708675 0.038862 -0.469127
C40   C     C_R   0.616065 0.118626 0.498304 0.541618
C41   C     C_R   0.619760 0.885358 0.499213 0.549459
C42   C     C_R   0.116337 0.618433 0.498330 0.540913
C43   C     C_R   0.119445 0.385100 0.499278 0.550100
C44   C     C_2   0.753859 0.818809 0.406191 -0.005621
Cu1   Cu    Cu3+1 0.500020 1.000000 0.638630 0.913636
Cu2   Cu    Cu3+1 0.000020 0.500000 0.638630 0.914502
Cu3   Cu    Cu3+1 0.499980 1.000000 0.361370 0.903550
Cu4   Cu    Cu3+1 0.999980 0.500000 0.361370 0.901479
H1    H     H_    0.508430 0.937705 0.118361 0.211165
H2    H     H_    0.547736 0.368089 0.188054 0.128912
H3    H     H_    0.623336 0.222389 0.211320 0.153325
H4    H     H_    0.550756 0.251435 0.351443 0.146502
H5    H     H_    0.361258 0.462726 0.507599 0.156916
H6    H     H_    0.425059 0.400396 0.385740 0.149460
H7    H     H_    0.386903 0.507156 0.339444 0.135869
H8    H     H_    0.297129 0.392235 0.232484 0.134264
H9    H     H_    0.237025 0.460065 0.347115 0.177845
H10   H     H_    0.119559 0.904158 0.311920 0.162512
H11   H     H_    0.178800 0.864816 0.162082 0.144063
H12   H     H_    0.998245 0.437040 0.118388 0.212350
H13   H     H_    0.062667 0.862798 0.167123 0.128996
H14   H     H_    0.130587 0.715327 0.210802 0.154176
H15   H     H_    0.056945 0.753996 0.344652 0.147046
H16   H     H_    0.674403 0.765136 0.567271 0.077592
H17   H     H_    0.734693 0.174717 0.567413 0.082288
H18   H     H_    0.169563 0.260908 0.554424 0.073388
H19   H     H_    0.234647 0.673908 0.570642 0.082484
H20   H     H_    0.368949 0.251613 0.330919 0.130037
H21   H     H_    0.293758 0.823321 0.294270 0.150395
H22   H     H_    0.842326 0.728250 0.301574 0.143489
H23   H     H_    0.877618 0.945750 0.436472 0.157901
H24   H     H_    0.785257 0.331787 0.295566 0.150938
H25   H     H_    0.283923 0.192771 0.602698 0.094367
H26   H     H_    0.282210 0.807450 0.608962 0.096570
H27   H     H_    0.799284 0.708007 0.608364 0.097009
H28   H     H_    0.783209 0.306066 0.609005 0.099642
H29   H     H_    0.375775 0.855763 0.865751 0.180029
H30   H     H_    0.338244 0.880153 0.037678 0.136140
H31   H     H_    0.262394 0.877343 0.899554 0.121375
H32   H     H_    0.297103 0.028060 0.965838 0.109275
H33   H     H_    0.327888 0.008135 0.791833 0.188159
H34   H     H_    0.916495 0.873594 0.303562 0.145869
H35   H     H_    0.789319 0.511100 0.098184 0.165045
H36   H     H_    0.721386 0.473163 0.963723 0.127312
H37   H     H_    0.814549 0.409989 0.013225 0.147586
H38   H     H_    0.818683 0.592809 0.878791 0.124612
H39   H     H_    0.836307 0.493323 0.792390 0.201829
H40   H     H_    0.559567 0.012972 0.883082 0.206676
H41   H     H_    0.060544 0.500369 0.884894 0.207145
H42   H     H_    0.312552 0.149186 0.144293 0.167091
H43   H     H_    0.358749 0.253088 0.094024 0.123257
H44   H     H_    0.338893 0.174572 0.965708 0.143081
H45   H     H_    0.882400 0.982034 0.259720 0.135439
H46   H     H_    0.474603 0.164083 0.193697 0.179814
H47   H     H_    0.494566 0.179016 0.015656 0.114815
H48   H     H_    0.838025 0.683388 0.074312 0.147696
H49   H     H_    0.909450 0.776019 0.076015 0.125279
H50   H     H_    0.905388 0.711335 0.925039 0.155787
H51   H     H_    0.982108 0.665017 0.203756 0.187767
H52   H     H_    0.036493 0.672725 0.041097 0.117194
H53   H     H_    0.769269 0.872529 0.201566 0.138294
H54   H     H_    0.733631 0.951222 0.324210 0.179650
H55   H     H_    0.605597 0.405597 0.334561 0.160278
H56   H     H_    0.663667 0.376038 0.178072 0.145506
N1    N     N_2   0.498660 1.000000 0.846910 -0.353724
N2    N     N_2   0.998660 0.500000 0.846910 -0.359388
N3    N     N_2   0.498630 1.000000 0.153040 -0.365441
N4    N     N_2   0.998630 0.500000 0.153040 -0.367217
O1    O     O_R   0.410990 0.910970 0.617040 -0.501345
O2    O     O_R   0.589050 0.910970 0.617100 -0.492433
O3    O     O_R   0.089050 0.589030 0.617100 -0.495218
O4    O     O_R   0.089050 0.410970 0.617100 -0.491950
O5    O     O_R   0.589010 0.089030 0.382960 -0.507176
O6    O     O_R   0.589010 0.910970 0.382960 -0.501615
O7    O     O_R   0.089010 0.589030 0.382960 -0.509636
O8    O     O_R   0.089010 0.410970 0.382960 -0.497706
O9    O     O_R   0.410990 0.089030 0.617040 -0.505507
O10   O     O_R   0.910990 0.410970 0.617040 -0.503792
O11   O     O_R   0.910990 0.589030 0.617040 -0.509068
O12   O     O_R   0.410950 0.910970 0.382900 -0.492143
O13   O     O_R   0.410950 0.089030 0.382900 -0.496688
O14   O     O_R   0.910950 0.410970 0.382900 -0.493503
O15   O     O_R   0.910950 0.589030 0.382900 -0.502447
O16   O     O_R   0.589050 0.089030 0.617100 -0.498133

loop_
_geom_bond_atom_site_label_1
_geom_bond_atom_site_label_2
_ccdc_geom_bond_type
Cu3   O6    S    
C29   H15   S    
C34   O15   A    
Cu2   O4    S    
C16   H27   S    
C41   O6    A    
C42   O3    A    
C23   O10   A    
C11   H22   S    
C31   H32   S    
H1    N3    S    
C17   C23   S    
C22   H53   S    
C37   H42   S    
C22   C24   S    
C36   C37   S    
C19   C21   S    
C8    C42   S    
C3    C7    D    
C10   C15   D    
C26   H2    S    
Cu4   O14   S    
C38   C39   S    
C26   H55   S    
Cu1   O1    S    
Cu3   O13   S    
C30   H10   S    
Cu2   O10   S    
C2    C13   S    
C24   H34   S    
C26   H56   S    
C32   H29   S    
C6    H17   S    
C22   C44   S    
C21   C38   S    
C40   O5    A    
H41   N2    S    
C17   H28   S    
C1    C15   S    
C7    C43   S    
C4    C29   S    
H12   N4    S    
C4    C8    D    
Cu4   O8    S    
C20   N3    D    
C16   C34   S    
Cu2   O3    S    
C2    C6    D    
Cu4   O15   S    
C28   H7    S    
Cu1   N1    S    
C23   O14   A    
Cu1   Cu3   S    
Cu1   O16   S    
C40   O16   A    
Cu2   Cu4   S    
C37   H43   S    
C14   H25   S    
C38   H52   S    
C19   C33   S    
C28   H6    S    
Cu1   O2    S    
C39   H50   S    
C1    O1    A    
C25   C26   S    
C5    H16   S    
C1    O12   A    
C9    C14   D    
C25   H3    S    
C29   C30   S    
C3    C9    S    
C36   H46   S    
C43   O8    A    
C11   C16   D    
C31   C32   S    
C28   H5    S    
C30   H11   S    
C11   C44   S    
Cu4   O7    S    
Cu3   O12   S    
C5    C44   D    
C12   C14   S    
Cu3   N3    S    
C41   O2    A    
C27   H9    S    
C6    C40   S    
C43   O4    A    
C4    C10   S    
Cu1   O9    S    
C34   O11   A    
Cu3   O5    S    
C5    C41   S    
C29   H14   S    
C12   O13   A    
C35   H35   S    
C37   H44   S    
C27   H8    S    
C38   H51   S    
C22   H54   S    
C35   H36   S    
C13   H24   S    
C31   H33   S    
C13   C17   D    
C3    C27   S    
C33   H39   S    
C9    H20   S    
C24   H45   S    
C7    H18   S    
H40   N1    S    
C35   H37   S    
C36   H47   S    
Cu4   N4    S    
Cu2   N2    S    
C33   C35   S    
Cu2   O11   S    
C2    C25   S    
C18   C20   S    
C39   H48   S    
C25   H4    S    
C21   N4    D    
C39   H49   S    
C32   H30   S    
C12   O9    A    
C20   C36   S    
C19   N2    D    
C10   H21   S    
C42   O7    A    
C15   H26   S    
C8    H19   S    
C30   H13   S    
C27   C28   S    
C18   N1    D    
C18   C31   S    
C33   H38   S    
C24   H23   S    
C32   H31   S    
