data_mof_unit_38547.cif
_audit_creation_date              2013-03-05T15:58:07-0500
_audit_creation_method            fapswitch 2.2
_symmetry_space_group_name_H-M    P1
_symmetry_Int_Tables_number       1
_space_group_crystal_system       triclinic
_cell_length_a                    15.080366
_cell_length_b                    13.693686
_cell_length_c                    10.7336
_cell_angle_alpha                 89.969825
_cell_angle_beta                  89.858121
_cell_angle_gamma                 89.708232
_cell_volume                      2216.51479233

loop_
_atom_site_label
_atom_site_type_symbol
_atom_site_description
_atom_site_fract_x
_atom_site_fract_y
_atom_site_fract_z
_atom_type_partial_charge
O1    O     O_R   0.370250 0.582280 0.500040 -0.584667
O2    O     O_R   0.370250 0.417720 0.500040 -0.591048
C1    C     C_R   0.328653 0.500221 0.500044 0.807157
O3    O     O_R   0.499970 0.582270 0.317700 -0.595500
O4    O     O_R   0.499970 0.417730 0.317700 -0.587633
C2    C     C_R   0.500101 0.499860 0.259632 0.775640
Cu1   Cu    Cu3+1 0.499990 0.597420 0.500010 0.931667
Cu2   Cu    Cu3+1 0.499990 0.402580 0.500010 0.966043
O5    O     O_R   0.629730 0.582260 0.499980 -0.594660
O6    O     O_R   0.629730 0.417740 0.499980 -0.528336
O7    O     O_R   0.500000 0.582270 0.682320 -0.593982
O8    O     O_R   0.500000 0.417730 0.682320 -0.593526
C3    C     C_R   0.671482 0.499673 0.496420 0.863168
C4    C     C_R   0.500072 0.499833 0.740391 0.751128
C5    C     C_3   0.416276 0.552313 0.072159 -0.379586
C6    C     C_3   0.500547 0.392892 0.071420 -0.367236
H1    H     H_    0.414242 0.629002 0.106419 0.174682
H2    H     H_    0.560298 0.352919 0.105336 0.197657
H3    H     H_    0.355571 0.515310 0.107214 0.153068
H4    H     H_    0.441117 0.353051 0.105812 0.164753
C7    C     C_3   0.416274 0.552329 0.928364 -0.383398
C8    C     C_3   0.500469 0.392876 0.928774 -0.370480
H5    H     H_    0.414272 0.629025 0.894009 0.166044
H6    H     H_    0.560165 0.352853 0.894425 0.181621
H7    H     H_    0.585220 0.628739 0.105839 0.163468
H8    H     H_    0.644653 0.514881 0.106271 0.187914
H9    H     H_    0.585256 0.628673 0.893409 0.173511
H10   H     H_    0.644640 0.514776 0.892801 0.160431
C9    C     C_3   0.583701 0.552045 0.071607 -0.374698
C10   C     C_3   0.500163 0.499311 0.121770 0.151875
C11   C     C_3   0.500134 0.499277 0.878266 0.158922
C12   C     C_3   0.583700 0.551997 0.927793 -0.379366
C13   C     C_R   0.815399 0.419583 0.437275 0.314612
C14   C     C_R   0.768477 0.498893 0.490744 -0.188355
C15   C     C_R   0.814315 0.578076 0.541561 -0.305669
C16   C     C_R   0.906546 0.578928 0.542558 0.114377
C17   C     C_R   0.953986 0.499069 0.492305 0.010787
C18   C     C_R   0.908660 0.419062 0.439277 -0.007297
C19   C     C_R   0.952066 0.658423 0.593591 -0.189457
C20   C     C_R   0.044476 0.659218 0.594712 -0.214508
C21   C     C_R   0.092394 0.580315 0.545326 0.109770
C22   C     C_R   0.047120 0.499752 0.494160 0.088026
C23   C     C_R   0.095028 0.420017 0.444531 0.113558
C24   C     C_R   0.050077 0.341436 0.391350 -0.234705
C25   C     C_R   0.957853 0.341233 0.387679 -0.144156
C26   C     C_R   0.184893 0.580471 0.546127 -0.252326
C27   C     C_R   0.232187 0.500470 0.498334 -0.073158
C28   C     C_R   0.187299 0.420470 0.448073 -0.252158
H11   H     H_    0.777954 0.638783 0.582240 0.171692
H12   H     H_    0.916153 0.720071 0.632446 0.144763
H13   H     H_    0.078455 0.721405 0.634321 0.142895
H14   H     H_    0.220068 0.642071 0.585404 0.145752
H15   H     H_    0.224279 0.359219 0.409899 0.152616
H16   H     H_    0.925766 0.279610 0.344207 0.198276
C29   C     C_R   0.448112 0.793544 0.583507 0.006093
C30   C     C_R   0.448639 0.206952 0.584150 0.000796
N1    N     N_R   0.499930 0.743810 0.499950 -0.183237
N2    N     N_R   0.499930 0.256190 0.499950 -0.193946
C31   C     C_R   0.551679 0.793065 0.416349 0.010616
C32   C     C_R   0.550667 0.206364 0.415267 0.062574
C33   C     C_R   0.552671 0.896126 0.414085 -0.007291
C34   C     C_R   0.552198 0.103329 0.413598 -0.014099
C35   C     C_R   0.499867 0.948164 0.499943 0.090324
C36   C     C_R   0.499826 0.051803 0.499921 0.081296
C37   C     C_R   0.447055 0.896621 0.585757 -0.003246
C38   C     C_R   0.447283 0.103873 0.586052 -0.002111
C39   C     C_R   0.604935 0.948168 0.328356 -0.210057
C40   C     C_R   0.604595 0.050835 0.327987 -0.161923
C41   C     C_R   0.394864 0.051842 0.671600 -0.199350
C42   C     C_R   0.394671 0.949165 0.671356 -0.204906
H17   H     H_    0.407629 0.752810 0.648552 0.120008
H18   H     H_    0.408618 0.248067 0.649762 0.125959
H19   H     H_    0.592138 0.751963 0.351247 0.127054
H20   H     H_    0.589801 0.246956 0.348725 0.186871
H21   H     H_    0.353962 0.090529 0.738626 0.135516
H22   H     H_    0.353607 0.910876 0.738184 0.133653
H23   H     H_    0.086304 0.280234 0.351890 0.146925
H24   H     H_    0.645984 0.909496 0.261491 0.140188
H25   H     H_    0.645409 0.089165 0.260885 0.164248
H26   H     H_    0.355550 0.515376 0.893763 0.150978
H27   H     H_    0.440977 0.353082 0.894945 0.162885
N3    N     N_R   0.768628 0.342191 0.376455 0.105494
O9    O     O_R   0.768446 0.254794 0.424071 -0.392852
O10   O     O_R   0.725208 0.359567 0.274163 -0.428432

loop_
_geom_bond_atom_site_label_1
_geom_bond_atom_site_label_2
_geom_bond_distance
_ccdc_geom_bond_type
C35   C37   1.407929 A    
C21   C22   1.412446 A    
C15   C16   1.391052 A    
C4    C11   1.479906 S    
Cu1   Cu2   2.668076 S    
C5    H3    1.113191 S    
C7    C11   1.550465 S    
C17   C18   1.414821 A    
C24   H23   1.083877 S    
C9    C12   1.543645 S    
O4    C2    1.285543 A    
O7    C4    1.289232 A    
N1    C31   1.367634 A    
C38   C41   1.406111 A    
N2    C32   1.367138 A    
C37   C42   1.406153 A    
C26   H14   1.084743 S    
C32   C34   1.411117 A    
C14   C15   1.400427 A    
C32   H20   1.080834 S    
C17   C22   1.404767 A    
C33   C35   1.408003 A    
O5    C3    1.292104 A    
C18   C25   1.408350 A    
C34   C36   1.407655 A    
Cu2   N2    2.004624 S    
C27   C28   1.399774 A    
C30   H18   1.082617 S    
C15   H11   1.084873 S    
C21   C26   1.394981 A    
C13   N3    1.434370 S    
C31   H19   1.082660 S    
C6    H4    1.113681 S    
C40   H25   1.083412 S    
C39   H24   1.083324 S    
O3    Cu1   1.967919 S    
C29   C37   1.411733 A    
H7    C9    1.113180 S    
C28   H15   1.084827 S    
C31   C33   1.411628 A    
C8    C11   1.554342 S    
C39   C40   1.405871 A    
C8    H27   1.113771 S    
H10   C12   1.113167 S    
O3    C2    1.289458 A    
C19   C20   1.393755 A    
O1    C1    1.289708 A    
C36   C38   1.407934 A    
Cu1   O7    1.967701 S    
C23   C24   1.397586 A    
C9    C10   1.550466 S    
C33   C39   1.406145 A    
C11   C12   1.550774 S    
Cu2   O8    1.967918 S    
C13   C14   1.414354 A    
C6    H2    1.113762 S    
C20   C21   1.400478 A    
C2    C10   1.479779 S    
O8    C4    1.285806 A    
C25   H16   1.081498 S    
N3    O10   1.300989 A    
C7    H5    1.113212 S    
C42   H22   1.083338 S    
C8    H6    1.113675 S    
C22   C23   1.410172 A    
C24   C25   1.391444 A    
C5    C10   1.550558 S    
C23   C28   1.392144 A    
C5    H1    1.113110 S    
C26   C27   1.401004 A    
C16   C17   1.410450 A    
C6    C8    1.531105 S    
H9    C12   1.113107 S    
O1    Cu1   1.968529 S    
C16   C19   1.402287 A    
O2    Cu2   1.966429 S    
O6    C3    1.289860 A    
O4    Cu2   1.967701 S    
C20   H13   1.083696 S    
C13   C18   1.406612 A    
C34   C40   1.405985 A    
C29   N1    1.367687 A    
O2    C1    1.289425 A    
C3    C14   1.463825 S    
C30   C38   1.411922 A    
C7    H26   1.113183 S    
C1    C27   1.454885 S    
C30   N2    1.367810 A    
C41   H21   1.083327 S    
C41   C42   1.406044 A    
C35   C36   1.419189 A    
Cu1   O5    1.966459 S    
C5    C7    1.543437 S    
C19   H12   1.083742 S    
H8    C9    1.113117 S    
Cu2   O6    1.968561 S    
N3    O9    1.301111 A    
C6    C10   1.554487 S    
Cu1   N1    2.004614 S    
C29   H17   1.082702 S    
