data_mof_unit_18182.cif
_audit_creation_date              2012-12-11T15:35:39-0500
_audit_creation_method            fapswitch 2.2
_symmetry_space_group_name_H-M    P1
_symmetry_Int_Tables_number       1
_space_group_crystal_system       triclinic
_cell_length_a                    17.360007
_cell_length_b                    24.176201
_cell_length_c                    15.110805
_cell_angle_alpha                 89.975548
_cell_angle_beta                  125.591799
_cell_angle_gamma                 90.025625
_cell_volume                      5157.20466854

loop_
_atom_site_label
_atom_site_type_symbol
_atom_type_description
_atom_site_fract_x
_atom_site_fract_y
_atom_site_fract_z
_atom_type_partial_charge
C1    C     C_R   0.307357 0.122884 0.906346 -0.124928
C2    C     C_R   0.307483 0.876849 0.906445 -0.123146
C3    C     C_R   0.807450 0.623076 0.906489 -0.124460
C4    C     C_R   0.807392 0.377037 0.906298 -0.123613
C5    C     C_R   0.644564 0.152779 0.092713 0.074352
C6    C     C_R   0.643385 0.846984 0.092494 0.053680
C7    C     C_R   0.143363 0.653059 0.092538 0.054555
C8    C     C_R   0.144580 0.347269 0.092694 0.073628
C9    C     C_R   0.554545 0.845697 0.912893 -0.144213
C10   C     C_R   0.553654 0.154557 0.913195 -0.140617
C11   C     C_R   0.054662 0.345737 0.912964 -0.146653
C12   C     C_R   0.053536 0.654599 0.913128 -0.138181
C13   C     C_R   0.529676 0.000008 0.705059 -0.093856
C14   C     C_R   0.030346 0.499997 0.705711 -0.093705
C15   C     C_R   0.825827 0.999090 0.275757 -0.025297
C16   C     C_R   0.325815 0.500857 0.275881 -0.025032
C17   C     C_R   0.613523 0.186881 0.003747 -0.020759
C18   C     C_R   0.613496 0.813161 0.003564 -0.013453
C19   C     C_R   0.112747 0.687065 0.003665 -0.014791
C20   C     C_R   0.114271 0.313343 0.003666 -0.019423
C21   C     C_3   0.087868 0.949447 0.455791 -0.446395
C22   C     C_3   0.041800 0.995653 0.570959 -0.444102
C23   C     C_3   0.541732 0.504023 0.571078 -0.443185
C24   C     C_3   0.587664 0.550713 0.456106 -0.448378
C25   C     C_3   0.980033 0.942597 0.370021 -0.096263
C26   C     C_3   0.938585 0.005349 0.476248 -0.093095
C27   C     C_3   0.438564 0.494186 0.476336 -0.095487
C28   C     C_3   0.479824 0.557515 0.370543 -0.095948
C29   C     C_3   0.081650 0.052362 0.461385 -0.423586
C30   C     C_3   0.581699 0.447780 0.461203 -0.422808
C31   C     C_3   0.106338 0.999330 0.530947 0.358210
C32   C     C_3   0.606274 0.500674 0.531037 0.358773
C33   C     C_3   0.928105 0.997285 0.366619 0.263440
C34   C     C_3   0.428049 0.502651 0.366765 0.264750
C35   C     C_R   0.399675 0.875412 0.089304 -0.121525
C36   C     C_R   0.399514 0.124364 0.089239 -0.122366
C37   C     C_R   0.899498 0.375502 0.089189 -0.121036
C38   C     C_R   0.899690 0.624467 0.089344 -0.122783
C39   C     C_3   0.980641 0.046737 0.355966 -0.449972
C40   C     C_3   0.480672 0.453428 0.355786 -0.450591
C41   C     C_R   0.156067 0.813316 0.897837 -0.165718
C42   C     C_R   0.156451 0.186734 0.897609 -0.169291
C43   C     C_R   0.656620 0.312916 0.897295 -0.169281
C44   C     C_R   0.655926 0.686358 0.898139 -0.165940
C45   C     C_R   0.608024 0.268291 0.899899 -0.158101
C46   C     C_R   0.607144 0.730951 0.900616 -0.155384
C47   C     C_R   0.106991 0.768892 0.900349 -0.155634
C48   C     C_R   0.108147 0.231527 0.900180 -0.157704
C49   C     C_R   0.636216 0.245433 0.000211 0.144676
C50   C     C_R   0.636711 0.754649 0.000788 0.141443
C51   C     C_R   0.135817 0.745593 0.000577 0.140588
C52   C     C_R   0.137106 0.254797 0.000453 0.145553
C53   C     C_R   0.699358 0.275680 0.095616 -0.167055
C54   C     C_R   0.701768 0.725320 0.096786 -0.163990
C55   C     C_R   0.200333 0.775222 0.096353 -0.164039
C56   C     C_R   0.200818 0.224851 0.096102 -0.167081
C57   C     C_R   0.248716 0.819960 0.093643 -0.175651
C58   C     C_R   0.248524 0.179772 0.093332 -0.179098
C59   C     C_R   0.747665 0.320491 0.092862 -0.177943
C60   C     C_R   0.749557 0.680311 0.094077 -0.176984
C61   C     C_R   0.234215 0.834910 0.995540 0.140275
C62   C     C_R   0.234085 0.164808 0.995290 0.143974
C63   C     C_R   0.733925 0.335047 0.994984 0.143681
C64   C     C_R   0.734381 0.664960 0.995828 0.140601
C65   C     C_R   0.624775 0.978771 0.639010 -0.168351
C66   C     C_R   0.467933 0.020591 0.519791 -0.164763
C67   C     C_R   0.125681 0.479382 0.639627 -0.168541
C68   C     C_R   0.967732 0.519781 0.519914 -0.164423
C69   C     C_R   0.634479 0.979201 0.554638 -0.167056
C70   C     C_R   0.477954 0.021613 0.436786 -0.179081
C71   C     C_R   0.135067 0.479697 0.554987 -0.162326
C72   C     C_R   0.977384 0.520640 0.436609 -0.180734
C73   C     C_R   0.561081 0.001194 0.454948 0.161314
C74   C     C_R   0.060893 0.500876 0.454894 0.163103
C75   C     C_R   0.548679 0.045642 0.302218 0.017294
C76   C     C_R   0.548606 0.954767 0.302867 0.031196
C77   C     C_R   0.048480 0.545521 0.302263 0.014816
C78   C     C_R   0.048479 0.454641 0.302706 0.032949
C79   C     C_R   0.541897 0.000100 0.620502 0.171200
C80   C     C_R   0.042382 0.500055 0.620981 0.170786
C81   C     C_R   0.247784 0.953881 0.694789 -0.150208
C82   C     C_R   0.247620 0.045841 0.693983 -0.161357
C83   C     C_R   0.747587 0.454175 0.693993 -0.159189
C84   C     C_R   0.747761 0.546137 0.694827 -0.152485
C85   C     C_R   0.309072 0.136120 0.996857 0.033926
C86   C     C_R   0.309276 0.863519 0.996988 0.034466
C87   C     C_R   0.809276 0.636323 0.997080 0.035111
C88   C     C_R   0.809074 0.363713 0.996756 0.033190
C89   C     C_R   0.565074 0.000408 0.364472 -0.064277
C90   C     C_R   0.064811 0.500214 0.364362 -0.064666
C91   C     C_R   0.203422 0.999745 0.630220 0.027487
C92   C     C_R   0.703367 0.500281 0.630265 0.027265
C93   C     C_R   0.506471 0.046020 0.738375 0.058905
C94   C     C_R   0.505857 0.953978 0.737560 0.053317
C95   C     C_R   0.006804 0.546009 0.738692 0.056745
C96   C     C_R   0.006291 0.453979 0.738001 0.055368
C97   C     C_R   0.767263 0.953537 0.243282 -0.107221
C98   C     C_R   0.769759 0.045799 0.251145 -0.127800
C99   C     C_R   0.269714 0.454153 0.251214 -0.129670
C100  C     C_R   0.267313 0.546426 0.243314 -0.106628
H1    H     H_    0.248844 0.126620 0.821790 0.093158
H2    H     H_    0.248957 0.872947 0.821972 0.094409
H3    H     H_    0.748898 0.627023 0.822031 0.094591
H4    H     H_    0.748907 0.373343 0.821729 0.092925
H5    H     H_    0.119696 0.910386 0.501507 0.153509
H6    H     H_    0.051305 0.954241 0.608718 0.171258
H7    H     H_    0.551023 0.545369 0.608893 0.171659
H8    H     H_    0.619448 0.589733 0.501941 0.153042
H9    H     H_    0.965794 0.935868 0.288884 0.107404
H10   H     H_    0.920205 0.048977 0.480375 0.118057
H11   H     H_    0.420496 0.450445 0.480248 0.117061
H12   H     H_    0.465472 0.564553 0.289429 0.107425
H13   H     H_    0.133213 0.058951 0.441141 0.162908
H14   H     H_    0.084183 0.089265 0.507007 0.161988
H15   H     H_    0.584302 0.410752 0.506626 0.161800
H16   H     H_    0.633276 0.441411 0.440944 0.164742
H17   H     H_    0.984121 0.039602 0.285598 0.174999
H18   H     H_    0.944223 0.086881 0.341557 0.163965
H19   H     H_    0.444275 0.413232 0.341079 0.163809
H20   H     H_    0.484149 0.460830 0.285484 0.175026
H21   H     H_    0.138466 0.826259 0.819629 0.111957
H22   H     H_    0.138844 0.173793 0.819414 0.107910
H23   H     H_    0.639551 0.325501 0.819153 0.107882
H24   H     H_    0.637810 0.673067 0.819894 0.111931
H25   H     H_    0.555940 0.248762 0.823147 0.117143
H26   H     H_    0.553541 0.749736 0.823650 0.118104
H27   H     H_    0.053897 0.749831 0.823471 0.118821
H28   H     H_    0.055528 0.250766 0.823314 0.116276
H29   H     H_    0.718892 0.263324 0.174307 0.134313
H30   H     H_    0.723647 0.738679 0.175861 0.134047
H31   H     H_    0.221173 0.762313 0.175288 0.134801
H32   H     H_    0.221434 0.237652 0.174980 0.133399
H33   H     H_    0.303622 0.838808 0.170064 0.116209
H34   H     H_    0.302956 0.160642 0.169679 0.111854
H35   H     H_    0.801830 0.339821 0.169102 0.115412
H36   H     H_    0.804712 0.661657 0.170596 0.112864
H37   H     H_    0.680788 0.962209 0.717711 0.125728
H38   H     H_    0.402741 0.035447 0.505752 0.120286
H39   H     H_    0.182259 0.463425 0.718633 0.124939
H40   H     H_    0.902313 0.534181 0.505861 0.120749
H41   H     H_    0.424701 0.869538 0.172399 0.106895
H42   H     H_    0.424458 0.130185 0.172340 0.104760
H43   H     H_    0.924390 0.369581 0.172254 0.107943
H44   H     H_    0.924762 0.630265 0.172462 0.103815
H45   H     H_    0.697847 0.962736 0.566383 0.133824
H46   H     H_    0.420464 0.037290 0.357856 0.119422
H47   H     H_    0.198810 0.463814 0.566826 0.126452
H48   H     H_    0.919411 0.535761 0.357424 0.119803
H49   H     H_    0.235719 0.910942 0.670921 0.092592
H50   H     H_    0.235148 0.088509 0.667760 0.094097
H51   H     H_    0.735084 0.411516 0.667748 0.094659
H52   H     H_    0.735742 0.589083 0.670996 0.092088
H53   H     H_    0.785708 0.910996 0.247716 0.117871
H54   H     H_    0.793037 0.088023 0.270854 0.107342
H55   H     H_    0.292884 0.411896 0.270903 0.106987
H56   H     H_    0.285877 0.588931 0.247567 0.117791
H57   H     H_    0.503842 0.830343 0.832000 0.115486
H58   H     H_    0.501161 0.170338 0.833189 0.114635
H59   H     H_    0.003598 0.330288 0.832237 0.115866
H60   H     H_    0.001376 0.670279 0.832932 0.114197
H61   H     H_    0.122496 0.957280 0.413910 0.156520
H62   H     H_    0.062226 0.027168 0.634984 0.151727
H63   H     H_    0.562305 0.472428 0.635039 0.151078
H64   H     H_    0.622193 0.543088 0.414078 0.155364
N1    N     N_R   0.392140 0.102630 0.941800 -0.042220
N2    N     N_R   0.392140 0.897370 0.941800 -0.042073
N3    N     N_R   0.892140 0.602630 0.941800 -0.042312
N4    N     N_R   0.892140 0.397370 0.941800 -0.041958
N5    N     N_R   0.450890 0.896450 0.057150 -0.042302
N6    N     N_R   0.450890 0.103550 0.057150 -0.041804
N7    N     N_R   0.950890 0.396450 0.057150 -0.042023
N8    N     N_R   0.950890 0.603550 0.057150 -0.042036
N9    N     N_R   0.525160 0.027960 0.206160 -0.068124
N10   N     N_R   0.525160 0.972040 0.206160 -0.068879
N11   N     N_R   0.025160 0.527960 0.206160 -0.068520
N12   N     N_R   0.025160 0.472040 0.206160 -0.068377
N13   N     N_R   0.317870 0.971120 0.792790 -0.036282
N14   N     N_R   0.317870 0.028880 0.792790 -0.035416
N15   N     N_R   0.817870 0.471120 0.792790 -0.035518
N16   N     N_R   0.817870 0.528880 0.792790 -0.036138
N17   N     N_R   0.473480 0.027920 0.793480 -0.068323
N18   N     N_R   0.473480 0.972080 0.793480 -0.067722
N19   N     N_R   0.973480 0.527920 0.793480 -0.068509
N20   N     N_R   0.973480 0.472080 0.793480 -0.067653
N21   N     N_R   0.681610 0.971120 0.207570 -0.042625
N22   N     N_R   0.681610 0.028880 0.207570 -0.040237
N23   N     N_R   0.181610 0.471120 0.207570 -0.040454
N24   N     N_R   0.181610 0.528880 0.207570 -0.042372
N25   N     N_R   0.605410 0.102620 0.056870 -0.059687
N26   N     N_R   0.605410 0.897380 0.056870 -0.061730
N27   N     N_R   0.105410 0.602620 0.056870 -0.061911
N28   N     N_R   0.105410 0.397380 0.056870 -0.059384
N29   N     N_R   0.549680 0.896430 0.944180 -0.051691
N30   N     N_R   0.549680 0.103570 0.944180 -0.052158
N31   N     N_R   0.049680 0.396430 0.944180 -0.052042
N32   N     N_R   0.049680 0.603570 0.944180 -0.051811
Ni1   Ni    Ni4+2 0.433410 0.064680 0.868830 0.206938
Ni2   Ni    Ni4+2 0.433410 0.935320 0.868830 0.209063
Ni3   Ni    Ni4+2 0.933410 0.564680 0.868830 0.207552
Ni4   Ni    Ni4+2 0.933410 0.435320 0.868830 0.208415
Ni5   Ni    Ni4+2 0.565650 0.934380 0.131170 0.231434
Ni6   Ni    Ni4+2 0.565650 0.065620 0.131170 0.229603
Ni7   Ni    Ni4+2 0.065650 0.434380 0.131170 0.229722
Ni8   Ni    Ni4+2 0.065650 0.565620 0.131170 0.231093
C101  C     C_1   0.950429 0.891809 0.397647 0.050708
N33   N     N_1   0.928118 0.851945 0.419771 -0.083047
C102  C     C_1   0.875617 0.970466 0.489198 0.077760
N34   N     N_1   0.826328 0.943307 0.499390 -0.087016
C103  C     C_1   0.375312 0.528617 0.489461 0.075711
N35   N     N_1   0.325771 0.555378 0.499806 -0.077631
C104  C     C_1   0.450199 0.608044 0.398735 0.050910
N36   N     N_1   0.427891 0.647710 0.421296 -0.082162
C105  C     C_1   0.581089 0.100608 0.344574 0.037672
N37   N     N_1   0.606806 0.144685 0.379393 -0.081723
C106  C     C_1   0.579378 0.899720 0.345589 0.037334
N38   N     N_1   0.603839 0.855598 0.380819 -0.077951
C107  C     C_1   0.080325 0.600497 0.344893 0.051283
N39   N     N_1   0.105563 0.644556 0.380093 -0.076159
C108  C     C_1   0.079883 0.399632 0.345327 0.024069
N40   N     N_1   0.104877 0.355514 0.380331 -0.083478
C109  C     C_1   0.495981 0.101297 0.697082 0.019624
N41   N     N_1   0.487329 0.145188 0.661740 -0.102264
C110  C     C_1   0.489591 0.899697 0.690570 0.027298
N42   N     N_1   0.476256 0.856512 0.651037 -0.096954
C111  C     C_1   0.995996 0.601210 0.696956 0.022298
N43   N     N_1   0.987087 0.645038 0.661267 -0.097905
C112  C     C_1   0.990285 0.399677 0.691161 0.025239
N44   N     N_1   0.977169 0.356474 0.651762 -0.101152
C113  C     C_1   0.680471 0.170781 0.200986 -0.023570
N45   N     N_1   0.709752 0.185083 0.288326 -0.088594
C114  C     C_1   0.675559 0.828548 0.199432 -0.005819
N46   N     N_1   0.701775 0.813890 0.285620 -0.075132
C115  C     C_1   0.176663 0.671320 0.199912 -0.006644
N47   N     N_1   0.203858 0.685867 0.286464 -0.074273
C116  C     C_1   0.179195 0.329097 0.200513 -0.023265
N48   N     N_1   0.207342 0.314686 0.287471 -0.089577

loop_
_geom_bond_atom_site_label_1
_geom_bond_atom_site_label_2
_ccdc_geom_bond_type
C68   C80   A    
C38   C87   A    
C71   H47   S    
C29   H14   S    
C98   H54   S    
C58   C62   A    
C65   C79   A    
C43   H23   S    
C63   C88   S    
C75   N9    A    
C69   H45   S    
C37   C88   A    
C26   C102  S    
N18   Ni2   S    
C41   C61   A    
C106  N38   T    
N17   Ni1   S    
C94   N18   A    
C7    C115  S    
C53   C59   A    
C3    N3    A    
C54   C60   A    
C101  N33   T    
C44   C64   A    
C28   C104  S    
C97   N21   A    
C83   C92   A    
C21   C31   S    
C18   C50   S    
C50   C54   A    
C57   C61   A    
C34   C40   S    
C100  N24   A    
C96   N20   A    
N11   Ni8   S    
C10   N30   A    
C22   H62   S    
C35   C86   A    
C9    N29   A    
N30   Ni1   S    
C5    C17   A    
N15   Ni4   S    
C2    H2    S    
C10   C17   A    
N21   Ni5   S    
N29   Ni2   S    
N23   Ni7   S    
C27   C103  S    
C13   C79   S    
N22   Ni6   S    
N8    Ni8   S    
C41   H21   S    
C24   C32   S    
C84   N16   A    
C36   H42   S    
N27   N32   A    
C21   C25   S    
N26   N29   A    
C16   C34   S    
C93   N17   A    
N25   N30   A    
C33   C39   S    
N4    N7    A    
C110  N42   T    
C45   H25   S    
N20   Ni4   S    
C99   H55   S    
C116  N48   T    
C69   C73   A    
C70   H46   S    
C55   H31   S    
C23   C27   S    
C56   C58   A    
C67   H39   S    
C115  N47   T    
C26   H10   S    
C64   C87   S    
C83   H51   S    
C25   H9    S    
C76   C89   A    
C65   H37   S    
C100  H56   S    
C27   H11   S    
C77   N11   A    
N9    N10   A    
C6    C114  S    
C78   N12   A    
C12   N32   A    
N12   Ni7   S    
C57   H33   S    
C24   H64   S    
C7    N27   A    
C38   H44   S    
C15   C97   A    
N32   Ni3   S    
C25   C101  S    
C14   C96   A    
C72   H48   S    
C44   C46   A    
C46   C50   A    
C103  N35   T    
C23   H63   S    
C30   H15   S    
C81   H49   S    
C27   C34   S    
C1    C85   A    
C6    C18   A    
C62   C85   S    
C11   C20   A    
C32   C92   S    
C21   H61   S    
C22   C31   S    
C3    C87   A    
C102  N34   T    
C105  N37   T    
C72   C74   A    
C17   C49   S    
C108  N40   T    
C16   C100  A    
C54   H30   S    
C30   H16   S    
C51   C55   A    
C107  N39   T    
N17   N18   A    
C97   H53   S    
N24   Ni8   S    
N10   Ni5   S    
C58   H34   S    
C82   C91   A    
C4    N4    A    
C13   C93   A    
N9    Ni6   S    
C60   C64   A    
C42   C48   A    
N19   N20   A    
C95   C111  S    
C104  N36   T    
C113  N45   T    
C66   C79   A    
N1    Ni1   S    
C78   C108  S    
C48   H28   S    
C109  N41   T    
C26   C33   S    
C112  N44   T    
C66   H38   S    
C9    H57   S    
C68   C72   A    
C36   C85   A    
C23   H7    S    
C6    N26   A    
C70   C73   A    
C111  N43   T    
C41   C47   A    
C30   C40   S    
N2    Ni2   S    
N26   Ni5   S    
C10   H58   S    
C8    C20   A    
C12   H60   S    
C38   N8    A    
C43   C45   A    
C56   H32   S    
C35   H41   S    
C24   H8    S    
C84   H52   S    
C22   H6    S    
C40   H20   S    
N14   Ni1   S    
C7    C19   A    
C14   C80   S    
C55   C57   A    
C94   C110  S    
C35   N5    A    
C5    C113  S    
C68   H40   S    
C11   H59   S    
C53   H29   S    
N27   Ni8   S    
C15   C98   A    
C1    H1    S    
C14   C95   A    
C43   C63   A    
C42   H22   S    
N31   Ni4   S    
C3    H3    S    
N1    N6    A    
C29   H13   S    
C37   H43   S    
C95   N19   A    
C1    N1    A    
C29   C31   S    
C59   C63   A    
C46   H26   S    
N4    Ni4   S    
C67   C80   A    
C24   C28   S    
C31   C91   S    
C11   N31   A    
C82   H50   S    
C37   N7    A    
C71   C74   A    
C47   C51   A    
C5    N25   A    
C16   C99   A    
C47   H27   S    
N3    N8    A    
C4    C88   A    
C42   C62   A    
N25   Ni6   S    
C73   C89   S    
C39   H18   S    
C2    N2    A    
C96   C112  S    
C13   C94   A    
C36   N6    A    
C83   N15   A    
C60   H36   S    
N13   Ni2   S    
C28   H12   S    
C23   C32   S    
C74   C90   S    
C76   N10   A    
N28   N31   A    
C99   N23   A    
C81   N13   A    
N23   N24   A    
C98   N22   A    
N11   N12   A    
C39   H17   S    
C30   C32   S    
C76   C106  S    
C77   C107  S    
N21   N22   A    
C66   C70   A    
C29   C39   S    
C78   C90   A    
C65   C69   A    
C4    H4    S    
C12   C19   A    
C59   H35   S    
N28   Ni7   S    
C75   C105  S    
C45   C49   A    
C2    C86   A    
C67   C71   A    
C28   C34   S    
N7    Ni7   S    
C8    N28   A    
N19   Ni3   S    
N6    Ni6   S    
C49   C53   A    
C61   C86   S    
C75   C89   A    
N5    Ni5   S    
N15   N16   A    
C81   C91   A    
C8    C116  S    
C19   C51   S    
C9    C18   A    
C48   C52   A    
C40   H19   S    
N2    N5    A    
C20   C52   S    
N13   N14   A    
C22   C26   S    
C44   H24   S    
C114  N46   T    
N16   Ni3   S    
C77   C90   A    
N3    Ni3   S    
C93   C109  S    
C84   C92   A    
C82   N14   A    
C15   C33   S    
C21   H5    S    
C52   C56   A    
C25   C33   S    
