data_mof_unit_6182.cif
_audit_creation_date              2012-12-10T18:06:38-0500
_audit_creation_method            fapswitch 2.2
_symmetry_space_group_name_H-M    P1
_symmetry_Int_Tables_number       1
_space_group_crystal_system       triclinic
_cell_length_a                    12.629884
_cell_length_b                    13.171094
_cell_length_c                    15.62486
_cell_angle_alpha                 83.877681
_cell_angle_beta                  99.861068
_cell_angle_gamma                 96.406658
_cell_volume                      2534.6004054

loop_
_atom_site_label
_atom_site_type_symbol
_atom_type_description
_atom_site_fract_x
_atom_site_fract_y
_atom_site_fract_z
_atom_type_partial_charge
Br1   Br    Br    0.632847 0.291996 0.351463 -0.417356
Br2   Br    Br    0.055906 0.408214 0.329854 -0.526965
Br3   Br    Br    0.815189 0.412012 0.729903 -0.547242
Br4   Br    Br    0.871079 0.491772 0.072851 -0.422373
Br5   Br    Br    0.706958 0.499195 0.205179 -0.432847
C1    C     C_R   0.445160 0.308528 0.512625 0.872956
C2    C     C_R   0.681259 0.485679 0.938282 -0.026399
C3    C     C_R   0.571790 0.494626 0.903895 0.050339
C4    C     C_R   0.435727 0.515923 0.336403 0.897332
C5    C     C_R   0.751257 0.465084 0.882538 -0.141783
C6    C     C_R   0.715035 0.458076 0.793833 0.253415
C7    C     C_R   0.540776 0.502808 0.813342 -0.266160
C8    C     C_R   0.729472 0.926330 0.562300 -0.182504
C9    C     C_R   0.594764 0.797937 0.500588 -0.038948
C10   C     C_R   0.301635 0.165864 0.498781 -0.163632
C11   C     C_R   0.269212 0.062572 0.492074 -0.127638
C12   C     C_R   0.448504 0.514604 0.101729 0.133502
C13   C     C_R   0.346267 0.992873 0.502178 -0.186264
C14   C     C_R   0.457796 0.025591 0.523105 0.093914
C15   C     C_R   0.488569 0.127377 0.543334 0.087352
C16   C     C_R   0.556774 0.691087 0.491961 0.842057
C17   C     C_R   0.539867 0.960765 0.524442 0.084274
C18   C     C_R   0.648634 0.992156 0.559086 0.165802
C19   C     C_R   0.674616 0.087978 0.591095 -0.214836
C20   C     C_R   0.595541 0.154948 0.583481 -0.165056
C21   C     C_R   0.516757 0.866181 0.490234 -0.243272
C22   C     C_R   0.702251 0.828497 0.534316 -0.186192
C23   C     C_R   0.337878 0.488082 0.068215 0.142863
C24   C     C_R   0.411428 0.199130 0.521784 -0.107123
C25   C     C_R   0.139638 0.661513 0.604047 -0.298289
C26   C     C_R   0.759806 0.372239 0.402282 0.413018
C27   C     C_R   0.853625 0.354538 0.374815 -0.223055
C28   C     C_R   0.566062 0.487127 0.663835 0.862383
C29   C     C_R   0.948898 0.412048 0.402636 0.220877
C30   C     C_R   0.952774 0.479791 0.468413 -0.065143
C31   C     C_R   0.853658 0.500389 0.490853 0.161784
C32   C     C_R   0.048964 0.528239 0.512357 0.031474
C33   C     C_R   0.044595 0.608107 0.565681 0.189797
C34   C     C_R   0.530478 0.508139 0.049788 -0.065765
C35   C     C_R   0.945882 0.630615 0.582888 -0.251317
C36   C     C_R   0.852086 0.574112 0.548764 -0.107068
C37   C     C_R   0.149923 0.496277 0.510197 -0.001024
C38   C     C_R   0.237471 0.633412 0.590488 0.005015
C39   C     C_R   0.396246 0.522903 0.242861 -0.100973
C40   C     C_R   0.609281 0.482056 0.757706 -0.123747
C41   C     C_R   0.258654 0.480376 0.122101 -0.156326
C42   C     C_R   0.288871 0.493601 0.210171 -0.143988
C43   C     C_R   0.470905 0.546317 0.186001 -0.169450
C44   C     C_R   0.495233 0.494901 0.959808 0.043776
C45   C     C_R   0.383791 0.473180 0.928222 -0.177672
C46   C     C_R   0.307144 0.468020 0.981930 -0.208425
C47   C     C_R   0.644158 0.506090 0.083235 0.214904
C48   C     C_R   0.717828 0.494214 0.027321 0.244513
H1    H     H_    0.223170 0.447551 0.955710 0.164004
H2    H     H_    0.618917 0.228030 0.610332 0.186339
H3    H     H_    0.312243 0.675594 0.617013 0.140882
H4    H     H_    0.462705 0.527528 0.785210 0.172650
H5    H     H_    0.941598 0.688670 0.626106 0.151293
H6    H     H_    0.138186 0.724098 0.643460 0.151151
H7    H     H_    0.160314 0.426664 0.483934 0.166122
H8    H     H_    0.850616 0.300679 0.326439 0.223795
H9    H     H_    0.779466 0.587872 0.570126 0.207419
H10   H     H_    0.174546 0.458793 0.097180 0.187615
H11   H     H_    0.229676 0.479044 0.252877 0.222930
H12   H     H_    0.833840 0.450262 0.907203 0.210378
H13   H     H_    0.544768 0.590746 0.209050 0.189809
H14   H     H_    0.353765 0.452135 0.862943 0.153413
H15   H     H_    0.763738 0.775736 0.542775 0.148682
H16   H     H_    0.756445 0.111954 0.620560 0.165696
H17   H     H_    0.812597 0.949110 0.589223 0.141309
H18   H     H_    0.437143 0.842019 0.457238 0.154689
H19   H     H_    0.241030 0.220001 0.483662 0.172642
H20   H     H_    0.316142 0.913744 0.495365 0.135783
H21   H     H_    0.184362 0.036935 0.475506 0.154469
N1    N     N_R   0.239390 0.551900 0.544730 -0.113031
N2    N     N_R   0.759950 0.448600 0.455730 -0.151297
O1    O     O_R   0.374950 0.371210 0.521360 -0.621505
O2    O     O_R   0.542050 0.338030 0.492790 -0.573026
O3    O     O_R   0.368720 0.526070 0.390200 -0.602393
O4    O     O_R   0.535820 0.492890 0.361630 -0.547006
O5    O     O_R   0.457950 0.661970 0.507210 -0.621340
O6    O     O_R   0.625050 0.628790 0.478640 -0.637210
O7    O     O_R   0.464180 0.507110 0.638370 -0.623121
O8    O     O_R   0.631280 0.473930 0.609800 -0.600361
Zn1   Zn    Zn3+2 0.388420 0.522150 0.519080 0.958034
Zn2   Zn    Zn3+2 0.611580 0.477850 0.480920 1.008671

loop_
_geom_bond_atom_site_label_1
_geom_bond_atom_site_label_2
_ccdc_geom_bond_type
C2    C5    A    
C15   C20   A    
Br4   C48   S    
C28   C40   S    
C14   C15   A    
C12   C43   A    
C2    C3    A    
C10   H19   S    
C23   C41   A    
C37   N1    A    
C11   H21   S    
C9    C16   S    
C30   C32   A    
O8    Zn2   S    
C27   H8    S    
C13   C14   A    
C4    O3    A    
C23   C46   A    
C1    O2    A    
C8    H17   S    
C10   C11   A    
Br1   C26   S    
C8    C18   A    
C29   C30   A    
C12   C34   A    
C32   C37   A    
O4    Zn2   S    
C22   H15   S    
C31   N2    A    
N1    Zn1   S    
C30   C31   A    
C18   C19   A    
Br5   C47   S    
C9    C22   A    
C45   H14   S    
C39   C42   A    
O2    Zn2   S    
C34   C47   A    
O1    Zn1   S    
C21   H18   S    
C31   C36   A    
C36   H9    S    
C19   H16   S    
C10   C24   A    
C15   C24   A    
C38   N1    A    
C35   H5    S    
C14   C17   A    
C19   C20   A    
C37   H7    S    
C42   H11   S    
C1    O1    A    
O6    Zn2   S    
C4    O4    A    
C27   C29   A    
C32   C33   A    
C26   C27   A    
C3    C7    A    
C25   H6    S    
C45   C46   A    
C9    C21   A    
C28   O7    A    
C7    H4    S    
C35   C36   A    
O7    Zn1   S    
C16   O5    A    
C13   H20   S    
C25   C38   A    
C6    C40   A    
C2    C48   A    
N2    Zn2   S    
O3    Zn1   S    
C47   C48   A    
C5    H12   S    
C41   C42   A    
C4    C39   S    
C34   C44   A    
C12   C23   A    
C20   H2    S    
C7    C40   A    
C41   H10   S    
C46   H1    S    
C33   C35   A    
Br2   C29   S    
C26   N2    A    
C28   O8    A    
Br3   C6    S    
C5    C6    A    
C38   H3    S    
C1    C24   S    
C16   O6    A    
C11   C13   A    
C44   C45   A    
C17   C21   A    
C17   C18   A    
C8    C22   A    
C25   C33   A    
C43   H13   S    
C3    C44   A    
O5    Zn1   S    
C39   C43   A    
