data_mof_unit_56576.cif
_audit_creation_date              2012-12-10T20:34:12-0500
_audit_creation_method            fapswitch 2.2
_symmetry_space_group_name_H-M    P1
_symmetry_Int_Tables_number       1
_space_group_crystal_system       triclinic
_cell_length_a                    9.928392
_cell_length_b                    10.671288
_cell_length_c                    13.595776
_cell_angle_alpha                 91.330876
_cell_angle_beta                  82.6897
_cell_angle_gamma                 88.046747
_cell_volume                      1427.36435698

loop_
_atom_site_label
_atom_site_type_symbol
_atom_type_description
_atom_site_fract_x
_atom_site_fract_y
_atom_site_fract_z
_atom_type_partial_charge
C1    C     C_R   0.497262 0.739938 0.501917 0.913107
C2    C     C_3   0.278217 0.947471 0.413178 0.516734
C3    C     C_R   0.914490 0.570983 0.568799 0.110025
C4    C     C_R   0.475417 0.500168 0.685634 0.896085
C5    C     C_R   0.946775 0.441658 0.424493 0.401951
C6    C     C_R   0.089305 0.442581 0.426218 -0.139338
C7    C     C_R   0.056189 0.567688 0.569775 0.263310
C8    C     C_3   0.044418 0.553971 0.678991 -0.510627
C9    C     C_3   0.890824 0.562413 0.679521 0.257180
C10   C     C_R   0.503188 0.260518 0.495444 0.906882
C11   C     C_R   0.524555 0.499345 0.314399 0.944785
C12   C     C_1   0.457382 0.503262 0.789660 -0.048698
C13   C     C_1   0.543117 0.484134 0.210886 -0.038274
C14   C     C_2   0.552302 0.450114 0.020540 0.477257
C15   C     C_2   0.451252 0.507854 0.981243 -0.265775
C16   C     C_1   0.449421 0.505979 0.877537 0.181825
C17   C     C_1   0.552405 0.467466 0.123694 -0.007042
C18   C     C_R   0.423079 0.937456 0.435893 -0.018823
C19   C     C_R   0.494094 0.872580 0.502154 -0.081054
C20   C     C_R   0.589443 0.934969 0.551231 -0.105706
C21   C     C_R   0.597577 0.063634 0.544969 -0.135910
C22   C     C_R   0.513061 0.128501 0.487027 -0.059816
C23   C     C_R   0.439813 0.062672 0.423413 0.013374
C24   C     C_3   0.306182 0.085365 0.386235 0.088040
H1    H     H_    0.662959 0.112599 0.589818 0.166861
H2    H     H_    0.653322 0.885217 0.597308 0.219303
H3    H     H_    0.497407 0.091875 0.136116 0.403292
H4    H     H_    0.998142 0.054586 0.464101 0.356657
H5    H     H_    0.349227 0.750401 0.184461 0.372867
H6    H     H_    0.742990 0.251817 0.271531 0.396604
H7    H     H_    0.239144 0.156506 0.431146 0.118992
H8    H     H_    0.372416 0.563556 0.027255 0.155219
H9    H     H_    0.158700 0.396518 0.367946 0.228735
H10   H     H_    0.082295 0.460196 0.699707 0.191024
H11   H     H_    0.087857 0.634253 0.716146 0.271759
H12   H     H_    0.838966 0.476246 0.705220 0.133505
H13   H     H_    0.846477 0.903522 0.721452 0.387772
H14   H     H_    0.700426 0.229585 0.824285 0.379508
N1    N     N_R   0.857130 0.500860 0.500650 -0.200329
N2    N     N_R   0.142770 0.500820 0.500650 -0.131573
O1    O     O_R   0.385310 0.683210 0.499990 -0.550367
O2    O     O_2   0.842617 0.706612 0.846306 -0.205178
O3    O     O_3   0.890187 0.829318 0.683592 -0.468469
O4    O     O_2   0.752237 0.274837 0.021335 -0.223382
O5    O     O_2   0.786176 0.440428 0.899820 -0.267489
O6    O     O_3   0.620066 0.264955 0.868051 -0.562578
O7    O     O_2   0.218553 0.096482 0.203998 -0.141265
O8    O     O_2   0.356567 0.265189 0.253923 -0.341323
O9    O     O_3   0.478587 0.051738 0.201157 -0.466482
O10   O     O_2   0.161112 0.818880 0.570069 -0.218542
O11   O     O_2   0.181265 0.043385 0.597030 -0.328399
O12   O     O_R   0.614650 0.683240 0.500000 -0.591835
O13   O     O_3   0.997891 0.968962 0.490737 -0.466690
O14   O     O_2   0.210273 0.713680 0.362302 -0.269719
O15   O     O_2   0.118228 0.884804 0.273388 -0.185758
O16   O     O_3   0.374369 0.818659 0.228481 -0.504153
O17   O     O_2   0.863926 0.471942 0.246897 -0.241289
O18   O     O_2   0.015504 0.292269 0.262527 -0.231703
O19   O     O_3   0.767468 0.275341 0.337737 -0.529238
O20   O     O_R   0.368820 0.499950 0.640340 -0.625800
O21   O     O_R   0.598170 0.499990 0.640350 -0.602999
O22   O     O_R   0.385350 0.316760 0.500000 -0.628738
O23   O     O_R   0.614690 0.316790 0.500010 -0.583473
O24   O     O_R   0.401830 0.500010 0.359650 -0.577639
O25   O     O_R   0.631180 0.500050 0.359660 -0.546117
O26   O     O_2   0.667505 0.713838 0.734936 -0.329501
S1    S     S_3+6 0.817717 0.705132 0.739552 0.083038
S2    S     S_3+6 0.683831 0.356181 0.952142 0.077528
S3    S     S_3+6 0.336867 0.126592 0.257817 0.102416
S4    S     S_3+6 0.154626 0.943797 0.522541 0.069046
S5    S     S_3+6 0.241132 0.838389 0.317671 0.126553
S6    S     S_3+6 0.898225 0.370319 0.315288 0.094441
Zn1   Zn    Zn3+2 0.346870 0.499980 0.499990 1.054612
Zn2   Zn    Zn3+2 0.653130 0.500020 0.500010 1.070805

loop_
_geom_bond_atom_site_label_1
_geom_bond_atom_site_label_2
_ccdc_geom_bond_type
O15   S5    D    
H13   O3    S    
C9    H12   S    
C23   C24   S    
C9    S1    S    
O22   Zn1   S    
O6    S2    S    
C3    C9    S    
H5    O16   S    
C2    S4    S    
O21   Zn2   S    
C2    C18   S    
C4    C12   S    
O8    S3    D    
C7    N2    A    
O12   Zn2   S    
C19   C20   A    
C6    H9    S    
C13   C17   T    
O19   S6    S    
O24   Zn1   S    
O16   S5    S    
H6    O19   S    
C4    O20   A    
O5    S2    D    
O26   S1    D    
O10   S4    D    
C24   H7    S    
C3    N1    A    
C7    C8    S    
O9    S3    S    
C21   C22   A    
N2    Zn1   S    
H4    O13   S    
C11   C13   S    
C14   C17   S    
O18   S6    D    
C21   H1    S    
C10   O22   A    
C20   H2    S    
C18   C23   A    
C15   C16   S    
C1    O1    A    
O11   S4    D    
C24   S3    S    
C11   O24   A    
C5    S6    S    
C3    C7    A    
C5    N1    A    
O17   S6    D    
C2    C24   S    
C5    C6    A    
C1    O12   A    
C6    N2    A    
H14   O6    S    
O4    S2    D    
O2    S1    D    
O13   S4    S    
O1    Zn1   S    
C2    S5    S    
H3    O9    S    
O20   Zn1   S    
C15   H8    S    
C8    H11   S    
C20   C21   A    
O3    S1    S    
C18   C19   A    
N1    Zn2   S    
C14   S2    S    
C14   C15   D    
O7    S3    D    
C8    H10   S    
O25   Zn2   S    
C22   C23   A    
C1    C19   S    
C11   O25   A    
C4    O21   A    
C10   O23   A    
C10   C22   S    
O14   S5    D    
C12   C16   T    
C8    C9    S    
O23   Zn2   S    
