data_mof_unit_25173.cif
_audit_creation_date              2012-10-26T20:37:56-0400
_audit_creation_method            fapswitch 2.2
_symmetry_space_group_name_H-M    P1
_symmetry_Int_Tables_number       1
_space_group_crystal_system       triclinic
_cell_length_a                    9.883725
_cell_length_b                    10.911878
_cell_length_c                    12.933532
_cell_angle_alpha                 88.98209
_cell_angle_beta                  76.507362
_cell_angle_gamma                 109.949692
_cell_volume                      1267.73434372

loop_
_atom_site_label
_atom_site_type_symbol
_atom_type_description
_atom_site_fract_x
_atom_site_fract_y
_atom_site_fract_z
_atom_type_partial_charge
C1    C     C_R   0.442863 0.254653 0.500846 0.543227
C2    C     C_R   0.664009 0.645092 0.009361 0.028974
C3    C     C_R   0.355503 0.358977 0.878983 -0.050287
C4    C     C_R   0.643947 0.639308 0.120562 -0.044399
C5    C     C_R   0.542496 0.579242 0.862081 0.000717
C6    C     C_R   0.455785 0.419343 0.138152 0.009158
C7    C     C_R   0.552539 0.556320 0.967236 0.036348
C8    C     C_R   0.445844 0.441976 0.032860 0.041977
C9    C     C_2   0.419367 0.116418 0.489273 -0.094970
C10   C     C_2   0.586903 0.886339 0.472154 -0.108367
C11   C     C_2   0.526471 0.075563 0.431625 -0.015037
C12   C     C_R   0.558815 0.746120 0.487336 0.533674
C13   C     C_2   0.496386 0.934498 0.434305 -0.039911
C14   C     C_3   0.395696 0.282155 0.197060 -0.352441
C15   C     C_3   0.602295 0.716454 0.803191 -0.338975
C16   C     C_3   0.735884 0.754062 0.169047 -0.391790
C17   C     C_3   0.263858 0.244439 0.830086 -0.385029
C18   C     C_2   0.190396 0.263483 0.059652 0.215183
C19   C     C_2   0.809700 0.732152 0.939375 0.215355
C20   C     C_3   0.368404 0.851771 0.391495 -0.332818
C21   C     C_3   0.676224 0.166186 0.364103 -0.333902
C22   C     C_2   0.815012 0.399985 0.606905 0.288802
C23   C     C_2   0.070111 0.480293 0.477310 0.089921
C24   C     C_2   0.134815 0.488165 0.361730 0.303235
C25   C     C_2   0.915972 0.485713 0.510167 0.094970
C26   C     C_R   0.473069 0.490003 0.701831 0.549436
C27   C     C_R   0.526697 0.509261 0.298110 0.539793
C28   C     C_R   0.541376 0.523955 0.184042 0.042804
C29   C     C_R   0.457866 0.474658 0.815863 0.025131
C30   C     C_R   0.335231 0.352624 0.990245 0.035925
Cu1   Cu    Cu3+1 0.647370 0.522180 0.481340 0.952454
Cu2   Cu    Cu3+1 0.352630 0.477820 0.518660 0.948767
H1    H     H_    0.684115 0.952890 0.493562 0.119457
H2    H     H_    0.704594 0.730579 0.739083 0.189148
H3    H     H_    0.736559 0.847371 0.132759 0.106536
H4    H     H_    0.689926 0.751740 0.256059 0.154034
H5    H     H_    0.851845 0.755818 0.154387 0.148837
H6    H     H_    0.265534 0.151307 0.864782 0.112532
H7    H     H_    0.147179 0.241050 0.846484 0.144708
H8    H     H_    0.308199 0.248232 0.742721 0.165473
H9    H     H_    0.134524 0.167111 0.038067 0.097031
H10   H     H_    0.869417 0.827011 0.961617 0.101903
H11   H     H_    0.325468 0.914637 0.349754 0.124830
H12   H     H_    0.311292 0.044861 0.530049 0.100295
H13   H     H_    0.406866 0.790272 0.332548 0.181972
H14   H     H_    0.274950 0.789477 0.457779 0.174382
H15   H     H_    0.733828 0.110221 0.311259 0.126314
H16   H     H_    0.662370 0.240266 0.311792 0.145938
H17   H     H_    0.749309 0.215460 0.415667 0.199267
H18   H     H_    0.784904 0.442161 0.680063 0.137239
H19   H     H_    0.145747 0.401130 0.327431 0.160959
H20   H     H_    0.942589 0.615177 0.386948 0.249559
H21   H     H_    0.076555 0.436120 0.626204 0.220949
H22   H     H_    0.478607 0.267754 0.236038 0.105367
H23   H     H_    0.291841 0.266808 0.259744 0.171513
H24   H     H_    0.376807 0.204810 0.142035 0.122669
H25   H     H_    0.517742 0.731486 0.766019 0.124547
H26   H     H_    0.624338 0.793966 0.857831 0.126495
N1    N     N_2   0.131210 0.444490 0.546730 -0.367507
N2    N     N_2   0.868790 0.555510 0.453270 -0.370792
O1    O     O_R   0.578710 0.332530 0.490040 -0.464119
O2    O     O_2   0.868028 0.695290 0.858033 -0.516018
O3    O     O_2   0.775394 0.280994 0.608035 -0.536042
O4    O     O_2   0.175805 0.590473 0.304017 -0.545905
O5    O     O_R   0.421290 0.667470 0.509960 -0.483719
O6    O     O_R   0.329810 0.295070 0.521560 -0.502120
O7    O     O_R   0.670190 0.704930 0.478440 -0.499623
O8    O     O_R   0.604230 0.515670 0.637800 -0.511595
O9    O     O_R   0.395770 0.484330 0.362200 -0.502213
O10   O     O_R   0.355330 0.478200 0.669330 -0.494565
O11   O     O_R   0.644670 0.521800 0.330670 -0.502528
O12   O     O_2   0.128473 0.300067 0.139627 -0.523134

loop_
_geom_bond_atom_site_label_1
_geom_bond_atom_site_label_2
_ccdc_geom_bond_type
Cu1   N2    S    
C4    C16   S    
C3    C30   A    
C14   H24   S    
C23   C24   S    
C5    C7    A    
C3    C17   S    
Cu2   O9    S    
C18   C30   S    
C25   N2    D    
C6    C14   S    
C15   H25   S    
C12   O5    A    
Cu1   O1    S    
C15   H2    S    
C2    C4    A    
C20   H13   S    
C27   O9    A    
C19   H10   S    
C16   H5    S    
C22   H18   S    
C21   H16   S    
C8    C30   A    
C24   H19   S    
Cu1   O11   S    
C1    O6    A    
H21   N1    S    
C26   O8    A    
C7    C8    A    
C24   O4    D    
C10   C13   D    
C12   O7    A    
C16   H4    S    
C23   N1    D    
C9    C11   D    
C10   C12   S    
C21   H17   S    
C4    C28   A    
C13   C20   S    
C14   H23   S    
C10   H1    S    
C5    C29   A    
C17   H6    S    
C23   C25   S    
C16   H3    S    
C18   O12   D    
Cu1   O8    S    
C26   O10   A    
C15   H26   S    
C6    C28   A    
C5    C15   S    
Cu1   O7    S    
C19   O2    D    
C11   C13   S    
C20   H11   S    
C1    C9    S    
C26   C29   S    
Cu2   O6    S    
C17   H7    S    
C18   H9    S    
C27   C28   S    
C3    C29   A    
Cu2   O10   S    
C9    H12   S    
C6    C8    A    
H20   N2    S    
Cu2   N1    S    
C14   H22   S    
C22   O3    D    
C2    C19   S    
C17   H8    S    
C11   C21   S    
Cu1   Cu2   S    
C20   H14   S    
C2    C7    A    
C27   O11   A    
Cu2   O5    S    
C21   H15   S    
C22   C25   S    
C1    O1    A    
