data_mof_unit_42246.cif
_audit_creation_date              2012-12-11T14:51:41-0500
_audit_creation_method            fapswitch 2.2
_symmetry_space_group_name_H-M    P1
_symmetry_Int_Tables_number       1
_space_group_crystal_system       triclinic
_cell_length_a                    6.92835
_cell_length_b                    16.704582
_cell_length_c                    16.933449
_cell_angle_alpha                 101.376355
_cell_angle_beta                  92.015829
_cell_angle_gamma                 89.035373
_cell_volume                      1920.00421637

loop_
_atom_site_label
_atom_site_type_symbol
_atom_type_description
_atom_site_fract_x
_atom_site_fract_y
_atom_site_fract_z
_atom_type_partial_charge
O1    O     O_R   0.506340 0.439070 0.579550 -0.540927
O2    O     O_R   0.170010 0.404890 0.412100 -0.535877
O3    O     O_R   0.005010 0.560930 0.420450 -0.544827
C1    C     C_R   0.339058 0.381617 0.383170 0.733277
O4    O     O_R   0.176280 0.429360 0.578400 -0.541347
O5    O     O_R   0.011320 0.585570 0.587940 -0.548174
C2    C     C_R   0.349879 0.414099 0.605478 0.738268
O6    O     O_R   0.500030 0.414430 0.412060 -0.540155
O7    O     O_3   0.340950 0.551220 0.502940 -0.369001
V1    V     V_3+5 0.064020 0.490500 0.499460 1.446807
O8    O     O_R   0.681910 0.595110 0.587900 -0.537301
C3    C     C_R   0.852327 0.618376 0.616652 0.703984
O9    O     O_R   0.675640 0.570640 0.421600 -0.513128
C4    C     C_R   0.839687 0.586050 0.394020 0.733977
V2    V     V_3+5 0.564670 0.509500 0.500540 1.479625
O10   O     O_3   0.837610 0.448780 0.497060 -0.372633
C5    C     C_R   0.932714 0.858472 0.165344 -0.072152
C6    C     C_R   0.830798 0.638998 0.331915 -0.101228
C7    C     C_R   0.643303 0.699388 0.232192 -0.288859
C8    C     C_R   0.659196 0.642946 0.284129 0.358758
C9    C     C_R   0.985734 0.689940 0.323594 -0.323929
C10   C     C_R   0.968773 0.746022 0.271171 0.155330
C11   C     C_R   0.795346 0.751485 0.225881 0.124099
C12   C     C_R   0.777287 0.808130 0.173979 -0.217408
C13   C     C_R   0.104696 0.852323 0.211048 -0.170510
C14   C     C_R   0.122114 0.797301 0.263540 -0.181526
H1    H     H_    0.644777 0.811244 0.138650 0.122329
H2    H     H_    0.227441 0.890093 0.205955 0.125288
H3    H     H_    0.511403 0.702521 0.196485 0.119044
H4    H     H_    0.256507 0.794394 0.297634 0.121934
H5    H     H_    0.117615 0.687530 0.359494 0.154153
C15   C     C_3   0.704745 0.777872 0.771757 -0.171466
C16   C     C_3   0.791756 0.776148 0.688105 -0.196373
H6    H     H_    0.717111 0.797251 0.636718 0.115753
H7    H     H_    0.557551 0.799501 0.790159 0.119085
C17   C     C_3   0.868327 0.688716 0.686999 -0.023056
C18   C     C_3   0.784666 0.691145 0.769583 0.379956
C19   C     C_3   0.975097 0.724026 0.812240 -0.195270
C20   C     C_3   0.060806 0.722571 0.728392 -0.157019
C21   C     C_3   0.984284 0.810755 0.730063 -0.129481
C22   C     C_3   0.897965 0.811375 0.812887 -0.056846
H8    H     H_    0.048166 0.702299 0.863612 0.116314
H9    H     H_    0.207515 0.700067 0.710160 0.136439
H10   H     H_    0.068099 0.861085 0.714223 0.106956
C23   C     C_3   0.555075 0.281839 0.276488 -0.143376
C24   C     C_3   0.496754 0.191816 0.273166 -0.205388
H11   H     H_    0.588965 0.143982 0.292943 0.117955
H12   H     H_    0.698025 0.308075 0.298184 0.135913
C25   C     C_3   0.409252 0.188861 0.187549 -0.064604
C26   C     C_3   0.467827 0.277966 0.190133 -0.120034
C27   C     C_3   0.270095 0.308264 0.226282 -0.185711
C28   C     C_3   0.210371 0.218374 0.222709 -0.166484
C29   C     C_3   0.300647 0.222985 0.307629 0.376331
C30   C     C_3   0.356854 0.311630 0.312010 -0.032791
H13   H     H_    0.539022 0.300602 0.141184 0.119401
H14   H     H_    0.176521 0.356036 0.207132 0.124495
H15   H     H_    0.067084 0.191955 0.201877 0.124786
C31   C     C_R   0.386296 0.138624 0.833512 -0.104236
C32   C     C_R   0.381105 0.362374 0.667253 -0.104210
C33   C     C_R   0.606324 0.314551 0.764292 0.323822
C34   C     C_R   0.557725 0.368282 0.712063 -0.234891
C35   C     C_R   0.249082 0.302775 0.677181 -0.234087
C36   C     C_R   0.295603 0.248185 0.728964 0.092044
C37   C     C_R   0.475393 0.253535 0.772574 0.120618
C38   C     C_R   0.519775 0.198102 0.824182 -0.200274
C39   C     C_R   0.210038 0.133613 0.788566 -0.150517
C40   C     C_R   0.165438 0.187470 0.737075 -0.126443
H16   H     H_    0.654738 0.202647 0.859011 0.170527
H17   H     H_    0.103990 0.088233 0.793963 0.124757
H18   H     H_    0.027769 0.182032 0.704119 0.130721
H19   H     H_    0.660614 0.414525 0.705601 0.143263
H20   H     H_    0.113345 0.297103 0.642771 0.139683
O11   O     O_R   0.266070 0.085680 0.087850 -0.539605
O12   O     O_R   0.590090 0.070660 0.921580 -0.540575
O13   O     O_R   0.754780 0.914400 0.912080 -0.540571
C41   C     C_R   0.416599 0.086198 0.894675 0.706921
O14   O     O_R   0.596110 0.095130 0.087880 -0.539579
O15   O     O_R   0.760850 0.939050 0.079570 -0.538395
C42   C     C_R   0.427037 0.118544 0.116700 0.699127
O16   O     O_R   0.260010 0.061030 0.920360 -0.538195
O17   O     O_3   0.425070 0.948840 0.997010 -0.370293
V3    V     V_3+5 0.702100 0.009490 0.000550 1.404826
O18   O     O_R   0.090200 0.929250 0.078500 -0.544503
C43   C     C_R   0.925610 0.912920 0.105045 0.693073
O19   O     O_R   0.084180 0.904770 0.912200 -0.541377
C44   C     C_R   0.913772 0.881514 0.883426 0.696688
V4    V     V_3+5 0.201420 0.990350 0.999580 1.402648
O20   O     O_3   0.928580 0.051150 0.002990 -0.365053
O21   O     O_3   0.211442 0.195139 0.369753 -0.652694
H21   H     H_    0.190553 0.136014 0.349334 0.276947
O22   O     O_3   0.781265 0.320190 0.806784 -0.654119
H22   H     H_    0.857023 0.365187 0.793191 0.293363
O23   O     O_3   0.508902 0.590679 0.288374 -0.645140
H23   H     H_    0.400341 0.601709 0.252134 0.280746
O24   O     O_3   0.679485 0.627360 0.788920 -0.656997
H24   H     H_    0.642043 0.646682 0.845512 0.278599

loop_
_geom_bond_atom_site_label_1
_geom_bond_atom_site_label_2
_ccdc_geom_bond_type
O18   V4    S    
V4    O20   S    
O23   H23   S    
C6    C9    A    
C4    C6    S    
O2    C1    A    
C7    C8    A    
C12   H1    S    
C1    O6    A    
O17   V3    S    
C31   C41   S    
O19   C44   A    
C13   H2    S    
C22   C44   S    
C9    H5    S    
C24   C25   S    
C18   C19   S    
O12   C41   A    
O14   V3    S    
C17   C18   S    
C19   H8    S    
O16   V4    S    
O5    C3    A    
C19   C20   S    
C23   H12   S    
C39   H17   S    
V2    O10   S    
C16   C17   S    
C18   O24   S    
C27   H14   S    
O11   V4    S    
O13   C44   A    
O8    V2    S    
C31   C39   A    
O24   H24   S    
C15   C22   S    
O1    V2    S    
C3    C17   S    
O7    V1    S    
C25   C28   S    
O14   C42   A    
C39   C40   A    
O9    C4    A    
O12   V3    S    
C2    C32   S    
C26   C27   S    
O19   V4    S    
C36   C40   A    
C32   C34   A    
C5    C12   A    
C27   C28   S    
C16   C21   S    
C15   H7    S    
C19   C22   S    
O22   H22   S    
O4    C2    A    
C20   H9    S    
C8    O23   S    
C13   C14   A    
C23   C24   S    
C25   C42   S    
C33   C34   A    
C7    C11   A    
C35   C36   A    
O15   V3    S    
C31   C38   A    
O18   C43   A    
C11   C12   A    
C38   H16   S    
C16   H6    S    
O11   C42   A    
C35   H20   S    
C15   C18   S    
O17   V4    S    
O3    C4    A    
C21   C22   S    
C23   C30   S    
C14   H4    S    
O6    V2    S    
O9    V2    S    
C29   O21   S    
O2    V1    S    
C20   C21   S    
C28   C29   S    
C33   O22   S    
C24   H11   S    
C32   C35   A    
C1    C30   S    
O1    C2    A    
C17   C20   S    
C41   O16   A    
O5    V1    S    
O8    C3    A    
O13   V3    S    
C29   C30   S    
C26   H13   S    
C33   C37   A    
C5    C43   S    
C5    C13   A    
C15   C16   S    
C27   C30   S    
O7    V2    S    
O4    V1    S    
O3    V1    S    
V1    O10   S    
C37   C38   A    
C34   H19   S    
C23   C26   S    
V3    O20   S    
C24   C29   S    
C6    C8    A    
C28   H15   S    
C36   C37   A    
O15   C43   A    
C21   H10   S    
C25   C26   S    
C10   C14   A    
C10   C11   A    
C40   H18   S    
O21   H21   S    
C9    C10   A    
C7    H3    S    
