data_mof_unit_41922.cif
_audit_creation_date              2012-12-10T17:30:25-0500
_audit_creation_method            fapswitch 2.2
_symmetry_space_group_name_H-M    P1
_symmetry_Int_Tables_number       1
_space_group_crystal_system       triclinic
_cell_length_a                    12.210852
_cell_length_b                    12.85263
_cell_length_c                    14.920028
_cell_angle_alpha                 91.634881
_cell_angle_beta                  87.919606
_cell_angle_gamma                 94.879622
_cell_volume                      2330.78670542

loop_
_atom_site_label
_atom_site_type_symbol
_atom_type_description
_atom_site_fract_x
_atom_site_fract_y
_atom_site_fract_z
_atom_type_partial_charge
C1    C     C_R   0.521775 0.699609 0.491700 0.923351
C2    C     C_R   0.477735 0.300257 0.506724 0.923313
C3    C     C_R   0.570188 0.685712 0.961994 -0.152081
C4    C     C_R   0.427005 0.315087 0.038140 -0.151211
C5    C     C_R   0.463423 0.188145 0.515530 -0.069355
C6    C     C_R   0.533938 0.811571 0.479002 -0.058781
C7    C     C_R   0.643295 0.971538 0.508417 -0.199991
C8    C     C_R   0.353307 0.029625 0.481509 -0.199111
C9    C     C_R   0.634998 0.864929 0.496268 -0.224106
C10   C     C_R   0.362768 0.136520 0.493159 -0.192033
C11   C     C_R   0.443226 0.867255 0.456764 0.146889
C12   C     C_R   0.552198 0.131048 0.538659 0.136459
C13   C     C_R   0.447467 0.973885 0.481822 0.090362
C14   C     C_R   0.548216 0.025651 0.510835 0.094621
C15   C     C_R   0.943145 0.385487 0.425599 -0.156037
C16   C     C_R   0.050337 0.561531 0.608846 -0.180416
C17   C     C_R   0.831732 0.407222 0.425582 -0.028528
C18   C     C_R   0.164598 0.571587 0.588994 -0.027835
C19   C     C_R   0.862218 0.534665 0.542929 0.209660
C20   C     C_R   0.138452 0.454536 0.463274 0.199298
C21   C     C_R   0.976900 0.515993 0.543817 -0.002533
C22   C     C_R   0.020301 0.450694 0.476548 -0.016242
C23   C     C_R   0.501681 0.503664 0.672312 0.904150
C24   C     C_R   0.498311 0.496217 0.327694 0.906559
C25   C     C_R   0.468880 0.399190 0.183969 -0.071922
C26   C     C_R   0.531884 0.600556 0.815940 -0.092407
C27   C     C_R   0.496342 0.493080 0.232111 -0.096833
C28   C     C_R   0.503495 0.506806 0.767923 -0.100678
C29   C     C_R   0.533400 0.584634 0.189218 -0.256805
C30   C     C_R   0.464482 0.415865 0.810892 -0.237541
C31   C     C_R   0.534475 0.588174 0.097010 0.138029
C32   C     C_R   0.462739 0.412571 0.903124 0.136230
C33   C     C_R   0.498976 0.497985 0.046833 0.059452
C34   C     C_R   0.498500 0.502709 0.953281 0.059948
C35   C     C_R   0.465397 0.402893 0.090017 0.045399
C36   C     C_R   0.532997 0.597555 0.910030 0.049548
C37   C     C_R   0.570410 0.680994 0.054652 -0.203756
C38   C     C_R   0.426069 0.319980 0.945528 -0.194123
H1    H     H_    0.563525 0.653131 0.227932 0.138793
H2    H     H_    0.433812 0.347564 0.772199 0.140304
H3    H     H_    0.598879 0.750122 0.093300 0.155745
H4    H     H_    0.397003 0.251015 0.906927 0.157572
H5    H     H_    0.601161 0.758357 0.931796 0.182625
H6    H     H_    0.395707 0.242575 0.068399 0.180733
H7    H     H_    0.291544 0.178935 0.482465 0.192684
H8    H     H_    0.707208 0.823901 0.503229 0.186201
H9    H     H_    0.724539 0.009768 0.517635 0.170653
H10   H     H_    0.271811 0.993039 0.470883 0.160648
N1    N     N_R   0.207800 0.519350 0.516680 -0.168446
N2    N     N_R   0.792200 0.480650 0.483320 -0.174284
O1    O     O_R   0.421700 0.658830 0.504450 -0.596689
O2    O     O_R   0.578300 0.341170 0.495550 -0.612220
O3    O     O_R   0.609310 0.646410 0.493750 -0.644336
O4    O     O_R   0.390690 0.353590 0.506250 -0.646203
O5    O     O_R   0.406180 0.506230 0.637500 -0.605823
O6    O     O_R   0.593820 0.493770 0.362500 -0.594742
O7    O     O_R   0.593800 0.493820 0.626800 -0.632884
O8    O     O_R   0.406200 0.506180 0.373200 -0.641468
Zn1   Zn    Zn3+2 0.374730 0.508290 0.507150 0.961992
Zn2   Zn    Zn3+2 0.625270 0.491710 0.492850 0.964962
C39   C     C_2   0.455338 0.297481 0.230446 0.878460
O9    O     O_2   0.396027 0.286981 0.297736 -0.679269
O10   O     O_R   0.512747 0.214016 0.197576 -0.788239
H11   H     H_    0.497372 0.149281 0.234810 0.340315
C40   C     C_2   0.549778 0.701486 0.768736 0.870489
O11   O     O_2   0.614633 0.710767 0.704746 -0.661358
O12   O     O_R   0.490518 0.785578 0.797098 -0.798307
H12   H     H_    0.508698 0.849448 0.759257 0.356829
C41   C     C_2   0.968509 0.282654 0.386664 0.902227
O13   O     O_2   0.991263 0.214014 0.436238 -0.626857
O14   O     O_R   0.963240 0.263308 0.294156 -0.778289
H13   H     H_    0.981548 0.189982 0.276123 0.352905
C42   C     C_2   0.012195 0.581347 0.702965 0.939628
O15   O     O_2   0.961696 0.510771 0.744505 -0.602596
O16   O     O_R   0.034327 0.679638 0.744159 -0.788369
H14   H     H_    0.003831 0.682768 0.808193 0.357450
C43   C     C_3   0.644969 0.178599 0.598005 -0.363012
C44   C     C_3   0.600820 0.228325 0.684365 -0.849571
H15   H     H_    0.558827 0.297761 0.669023 0.248905
H16   H     H_    0.542530 0.171714 0.720587 0.256657
H17   H     H_    0.669842 0.253624 0.728629 0.272926
H18   H     H_    0.696634 0.118982 0.621594 0.206180
H19   H     H_    0.701782 0.235535 0.561196 0.263781
C45   C     C_3   0.348242 0.816387 0.401372 -0.385596
C46   C     C_3   0.389306 0.764528 0.314954 -0.867455
H20   H     H_    0.442701 0.821439 0.274807 0.259273
H21   H     H_    0.435975 0.698308 0.330583 0.252140
H22   H     H_    0.318442 0.734247 0.274386 0.258210
H23   H     H_    0.294052 0.760215 0.441255 0.254711
H24   H     H_    0.294038 0.873615 0.377701 0.201861
C47   C     C_3   0.188784 0.395351 0.385521 -0.335172
C48   C     C_3   0.177948 0.449015 0.296545 -0.770839
H25   H     H_    0.090207 0.450630 0.280254 0.271352
H26   H     H_    0.216039 0.530569 0.300106 0.257547
H27   H     H_    0.220123 0.405917 0.241753 0.261782
H28   H     H_    0.273379 0.386223 0.397345 0.294183
H29   H     H_    0.161490 0.312029 0.381060 0.201384
C49   C     C_3   0.819887 0.623143 0.599629 -0.329102
C50   C     C_3   0.874839 0.729736 0.572682 -0.849329
H30   H     H_    0.963378 0.738392 0.587243 0.279203
H31   H     H_    0.866854 0.740413 0.499688 0.248401
H32   H     H_    0.835146 0.792448 0.611069 0.274556
H33   H     H_    0.732997 0.625127 0.592225 0.299549
H34   H     H_    0.823737 0.611463 0.672281 0.221251
C51   C     C_2   0.237298 0.635304 0.650005 1.042102
O17   O     O_2   0.278531 0.720666 0.626861 -0.620218
O18   O     O_R   0.251030 0.601563 0.736892 -0.775490
H35   H     H_    0.298448 0.653879 0.773812 0.362839
C52   C     C_2   0.758156 0.348130 0.362173 1.037749
O19   O     O_2   0.745341 0.383579 0.288495 -0.579316
O20   O     O_R   0.715450 0.246703 0.381835 -0.818117
H36   H     H_    0.669983 0.212646 0.331829 0.354893

loop_
_geom_bond_atom_site_label_1
_geom_bond_atom_site_label_2
_ccdc_geom_bond_type
C8    C13   A    
O5    Zn1   S    
C27   C29   A    
C42   O15   D    
O20   H36   S    
C19   N2    A    
C24   C27   S    
C24   O6    A    
C6    C9    A    
C43   C44   S    
C51   O18   S    
C3    H5    S    
C16   C21   A    
C43   H18   S    
C19   C21   A    
C38   H4    S    
C52   O20   S    
C44   H16   S    
C43   H19   S    
C49   H33   S    
C23   O7    A    
C41   O14   S    
C1    O3    A    
O2    Zn2   S    
C47   H28   S    
C19   C49   S    
C15   C22   A    
C40   O12   S    
O18   H35   S    
C31   C33   A    
C32   C38   A    
C7    C14   A    
C4    C35   A    
C9    H8    S    
C21   C22   A    
C42   O16   S    
C41   O13   D    
C45   H24   S    
O12   H12   S    
O3    Zn2   S    
O4    Zn1   S    
C46   H21   S    
C15   C41   S    
C20   C47   S    
C1    C6    S    
C24   O8    A    
C45   C46   S    
C5    C12   A    
C2    O4    A    
C47   C48   S    
C44   H15   S    
O7    Zn2   S    
C4    H6    S    
O8    Zn1   S    
C46   H20   S    
C48   H27   S    
C31   C37   A    
C32   C34   A    
O16   H14   S    
C8    H10   S    
C20   N1    A    
C50   H30   S    
C12   C43   S    
C29   H1    S    
C10   H7    S    
C48   H26   S    
C33   C34   A    
C30   H2    S    
C25   C39   S    
C23   C28   S    
C47   H29   S    
C1    O1    A    
C2    O2    A    
C25   C35   A    
C8    C10   A    
C50   H31   S    
C20   C22   A    
C40   O11   D    
C2    C5    S    
O1    Zn1   S    
C45   H23   S    
C6    C11   A    
C46   H22   S    
C26   C36   A    
C15   C17   A    
C26   C40   S    
C39   O10   S    
C4    C38   A    
C16   C42   S    
C17   C52   S    
C17   N2    A    
C23   O5    A    
C11   C45   S    
C25   C27   A    
C51   O17   D    
C26   C28   A    
N1    Zn1   S    
N2    Zn2   S    
C28   C30   A    
C12   C14   A    
C18   C51   S    
C5    C10   A    
C29   C31   A    
C52   O19   D    
C30   C32   A    
C11   C13   A    
C44   H17   S    
C3    C36   A    
C49   H34   S    
C48   H25   S    
C33   C35   A    
C34   C36   A    
C37   H3    S    
C39   O9    D    
O10   H11   S    
C7    C9    A    
O14   H13   S    
C50   H32   S    
O6    Zn2   S    
C3    C37   A    
C16   C18   A    
C49   C50   S    
C13   C14   A    
C18   N1    A    
C7    H9    S    
