data_mof_unit_35568.cif
_audit_creation_date              2012-12-10T17:47:17-0500
_audit_creation_method            fapswitch 2.2
_symmetry_space_group_name_H-M    P1
_symmetry_Int_Tables_number       1
_space_group_crystal_system       triclinic
_cell_length_a                    11.664009
_cell_length_b                    14.8132
_cell_length_c                    14.71588
_cell_angle_alpha                 64.333814
_cell_angle_beta                  105.472693
_cell_angle_gamma                 101.888816
_cell_volume                      2196.68660497

loop_
_atom_site_label
_atom_site_type_symbol
_atom_type_description
_atom_site_fract_x
_atom_site_fract_y
_atom_site_fract_z
_atom_type_partial_charge
Br1   Br    Br    0.502979 0.502957 0.725255 -0.563576
Br2   Br    Br    0.484386 0.461435 0.276683 -0.590141
Br3   Br    Br    0.696314 0.977344 0.850505 -0.455770
Br4   Br    Br    0.303069 0.022801 0.149208 -0.462294
Br5   Br    Br    0.235555 0.598056 0.816937 -0.528886
Br6   Br    Br    0.765993 0.401812 0.181960 -0.518401
C1    C     C_R   0.476894 0.119557 0.311164 0.837425
C2    C     C_R   0.675992 0.590399 0.082340 -0.145384
C3    C     C_R   0.717283 0.288486 0.656188 -0.226458
C4    C     C_R   0.293748 0.717030 0.333221 -0.214144
C5    C     C_R   0.683463 0.209745 0.624111 0.045358
C6    C     C_R   0.321271 0.792657 0.369884 0.033577
C7    C     C_R   0.504132 0.282250 0.517159 0.684355
C8    C     C_R   0.493717 0.715625 0.487146 0.663590
C9    C     C_R   0.551068 0.374653 0.528662 -0.077467
C10   C     C_R   0.454130 0.627181 0.466155 -0.093079
C11   C     C_R   0.648033 0.369787 0.611808 -0.053935
C12   C     C_R   0.523056 0.880416 0.688804 0.832611
C13   C     C_R   0.364595 0.636765 0.377158 -0.050577
C14   C     C_R   0.494835 0.466380 0.473212 -0.051619
C15   C     C_R   0.510812 0.535546 0.520048 -0.054038
C16   C     C_R   0.284456 0.000193 0.500058 0.812571
C17   C     C_R   0.715562 0.999702 0.500071 0.806589
C18   C     C_R   0.576958 0.506475 0.621684 0.179349
C19   C     C_R   0.433437 0.496548 0.369790 0.144009
C20   C     C_R   0.663432 0.439119 0.657043 0.465301
C21   C     C_R   0.356644 0.573143 0.326803 0.461613
C22   C     C_1   0.162805 0.000231 0.500483 -0.146606
C23   C     C_R   0.384411 0.333462 0.002029 -0.064819
C24   C     C_1   0.837251 0.999217 0.500148 -0.134613
C25   C     C_1   0.060088 0.999890 0.500519 0.028043
C26   C     C_1   0.939996 0.999372 0.500339 0.032693
C27   C     C_R   0.454659 0.187121 0.200291 -0.209885
C28   C     C_R   0.545584 0.812631 0.799544 -0.208967
C29   C     C_R   0.341860 0.231534 0.024028 0.451607
C30   C     C_R   0.658072 0.768208 0.975880 0.453006
C31   C     C_R   0.376288 0.158129 0.123348 0.204512
C32   C     C_R   0.623555 0.841707 0.876574 0.205530
C33   C     C_R   0.506971 0.286761 0.172303 -0.196895
C34   C     C_R   0.616152 0.666153 0.997665 -0.065082
C35   C     C_R   0.494265 0.712671 0.827212 -0.218607
C36   C     C_R   0.479035 0.359863 0.071819 0.057040
C37   C     C_R   0.522137 0.639628 0.927596 0.057418
C38   C     C_3   0.314758 0.196823 0.883702 -0.188232
C39   C     C_3   0.683609 0.802037 0.116529 -0.194514
C40   C     C_3   0.852732 0.474637 0.733578 -0.227090
C41   C     C_3   0.192022 0.533046 0.220834 -0.221038
C42   C     C_3   0.650799 0.718248 0.623645 -0.180157
C43   C     C_3   0.317955 0.273330 0.410380 -0.213972
C44   C     C_R   0.531458 0.461380 0.043346 0.045910
C45   C     C_R   0.469978 0.538109 0.955776 0.039956
C46   C     C_R   0.358924 0.509861 0.900350 0.265753
C47   C     C_R   0.642362 0.489777 0.098844 0.273196
C48   C     C_R   0.324632 0.409229 0.917374 -0.138843
Cu1   Cu    Cu3+1 0.469550 0.918260 0.475690 1.004860
Cu2   Cu    Cu3+1 0.530450 0.081740 0.524310 1.007582
H1    H     H_    0.243043 0.390097 0.870230 0.208590
H2    H     H_    0.379606 0.139245 0.924970 0.185696
H3    H     H_    0.360698 0.270794 0.839367 0.180743
H4    H     H_    0.618194 0.859149 0.075340 0.186535
H5    H     H_    0.750980 0.826346 0.172934 0.199614
H6    H     H_    0.638124 0.727667 0.160562 0.172240
H7    H     H_    0.913254 0.464138 0.808941 0.223998
H8    H     H_    0.847967 0.556802 0.688524 0.154346
H9    H     H_    0.893537 0.444558 0.693543 0.150614
H10   H     H_    0.145757 0.509991 0.286064 0.139383
H11   H     H_    0.214845 0.466142 0.216404 0.187472
H12   H     H_    0.757290 0.609616 0.129706 0.208689
H13   H     H_    0.127545 0.570377 0.148903 0.215081
H14   H     H_    0.703970 0.785799 0.633075 0.166827
H15   H     H_    0.576191 0.696607 0.664220 0.182677
H16   H     H_    0.711554 0.658448 0.663271 0.171859
H17   H     H_    0.278479 0.345167 0.376865 0.155386
H18   H     H_    0.240130 0.215522 0.413814 0.176105
H19   H     H_    0.370420 0.269689 0.359734 0.187957
H20   H     H_    0.440330 0.690124 0.767158 0.225385
H21   H     H_    0.561838 0.308799 0.232350 0.238808
H22   H     H_    0.265454 0.853446 0.337329 0.187014
H23   H     H_    0.738762 0.148643 0.655873 0.183311
H24   H     H_    0.794971 0.283668 0.717249 0.199794
H25   H     H_    0.219276 0.722839 0.269210 0.206601
H26   H     H_    0.246769 0.172580 0.827569 0.201215
N1    N     N_R   0.576230 0.204580 0.560790 -0.214555
N2    N     N_R   0.423770 0.795420 0.439210 -0.215772
O1    O     O_R   0.459870 0.022090 0.338120 -0.534602
O2    O     O_3   0.742913 0.795570 0.047936 -0.556225
O3    O     O_3   0.739590 0.422856 0.751286 -0.544355
O4    O     O_3   0.294972 0.601398 0.225711 -0.548049
O5    O     O_3   0.616257 0.735842 0.518328 -0.587391
O6    O     O_3   0.381790 0.255619 0.511301 -0.577182
O7    O     O_R   0.540130 0.977910 0.661880 -0.529917
O8    O     O_R   0.511290 0.160150 0.379180 -0.596402
O9    O     O_R   0.488710 0.839850 0.620820 -0.604180
O10   O     O_R   0.311490 0.930960 0.479480 -0.574766
O11   O     O_R   0.688510 0.069040 0.520520 -0.580385
O12   O     O_R   0.362910 0.069020 0.520540 -0.539808
O13   O     O_R   0.637090 0.930980 0.479460 -0.533534
O14   O     O_3   0.256278 0.204295 0.952253 -0.557189

loop_
_geom_bond_atom_site_label_1
_geom_bond_atom_site_label_2
_ccdc_geom_bond_type
Cu2   O11   S    
Cu1   Cu2   S    
C39   H4    S    
C10   C15   A    
C23   C36   A    
C16   O10   A    
C8    N2    A    
C43   O6    S    
Cu1   O9    S    
C27   C33   A    
C11   C20   A    
C33   H21   S    
C29   C31   A    
C18   C20   A    
C38   H26   S    
C7    O6    S    
C23   C48   A    
C38   H3    S    
C39   H6    S    
C6    N2    A    
C9    C11   A    
C41   H13   S    
C38   O14   S    
Cu2   O7    S    
Br3   C32   S    
C38   H2    S    
C20   O3    S    
C6    H22   S    
C43   H19   S    
Br5   C46   S    
C29   O14   S    
C13   C21   A    
C41   H10   S    
C16   C22   S    
C35   C37   A    
C28   C35   A    
C42   H16   S    
Cu1   O10   S    
C4    C6    A    
C41   H11   S    
C46   C48   A    
C33   C36   A    
C34   C37   A    
C9    C14   A    
C44   C47   A    
C1    C27   S    
C45   C46   A    
C17   C24   S    
C30   C34   A    
C40   H9    S    
C30   O2    S    
C27   C31   A    
C40   H8    S    
C3    H24   S    
Cu1   O1    S    
C8    O5    S    
C12   C28   S    
C25   C26   S    
C4    C13   A    
Cu1   O13   S    
C44   C45   A    
Br4   C31   S    
C3    C5    A    
C5    H23   S    
C36   C44   A    
C3    C11   A    
C17   O13   A    
C2    H12   S    
C42   O5    S    
C7    C9    A    
C8    C10   A    
C12   O7    A    
C42   H15   S    
Cu2   N1    S    
C40   O3    S    
Cu2   O12   S    
C7    N1    A    
C28   C32   A    
C16   O12   A    
C22   C25   T    
C42   H14   S    
C2    C47   A    
C19   C21   A    
C2    C34   A    
C23   C29   A    
C4    H25   S    
C40   H7    S    
C5    N1    A    
C41   O4    S    
C30   C32   A    
C39   O2    S    
C35   H20   S    
C24   C26   T    
C37   C45   A    
C1    O1    A    
C10   C13   A    
C1    O8    A    
C39   H5    S    
C17   O11   A    
Br2   C19   S    
C43   H17   S    
C21   O4    S    
Cu2   O8    S    
C14   C15   A    
Br1   C18   S    
C14   C19   A    
C15   C18   A    
C12   O9    A    
C43   H18   S    
Br6   C47   S    
Cu1   N2    S    
C48   H1    S    
