data_mof_unit_30509.cif
_audit_creation_date              2012-12-11T14:01:27-0500
_audit_creation_method            fapswitch 2.2
_symmetry_space_group_name_H-M    P1
_symmetry_Int_Tables_number       1
_space_group_crystal_system       triclinic
_cell_length_a                    18.884751
_cell_length_b                    11.005981
_cell_length_c                    18.711577
_cell_angle_alpha                 90.259711
_cell_angle_beta                  90.575254
_cell_angle_gamma                 89.976972
_cell_volume                      3888.87544981

loop_
_atom_site_label
_atom_site_type_symbol
_atom_type_description
_atom_site_fract_x
_atom_site_fract_y
_atom_site_fract_z
_atom_type_partial_charge
C1    C     C_R   0.272350 0.042743 0.853461 0.559007
C2    C     C_R   0.727664 0.042443 0.146547 0.558654
C3    C     C_R   0.772350 0.542743 0.853461 0.559007
C4    C     C_R   0.227664 0.542443 0.146547 0.558654
C5    C     C_R   0.479339 0.050597 0.074570 -0.086972
C6    C     C_R   0.507929 0.058345 0.928867 -0.081512
C7    C     C_R   0.979339 0.550597 0.074570 -0.086972
C8    C     C_R   0.007929 0.558345 0.928867 -0.081512
C9    C     C_R   0.980680 0.661747 0.039165 -0.126542
C10   C     C_R   0.997157 0.665873 0.966945 -0.124886
C11   C     C_R   0.480679 0.161746 0.039165 -0.126542
C12   C     C_R   0.497157 0.165873 0.966945 -0.124886
C13   C     C_2   0.249245 0.579557 0.920389 -0.113282
C14   C     C_2   0.750709 0.578857 0.079499 -0.113093
C15   C     C_2   0.749245 0.079557 0.920389 -0.113282
C16   C     C_2   0.250709 0.078857 0.079499 -0.113093
C17   C     C_2   0.250279 0.586963 0.077352 -0.106559
C18   C     C_2   0.749801 0.587541 0.922810 -0.106625
C19   C     C_2   0.750279 0.086963 0.077352 -0.106559
C20   C     C_2   0.249801 0.087541 0.922810 -0.106625
C21   C     C_2   0.295740 0.522039 0.037777 -0.164127
C22   C     C_2   0.703930 0.523043 0.961776 -0.165516
C23   C     C_2   0.795740 0.022040 0.037777 -0.164127
C24   C     C_2   0.203930 0.023043 0.961776 -0.165516
C25   C     C_2   0.304554 0.546749 0.961654 -0.162920
C26   C     C_2   0.695285 0.546900 0.038070 -0.162626
C27   C     C_2   0.804554 0.046748 0.961654 -0.162920
C28   C     C_2   0.195285 0.046900 0.038070 -0.162626
C29   C     C_2   0.486363 0.828627 0.571611 -0.092086
C30   C     C_2   0.487553 0.839168 0.415232 -0.101845
C31   C     C_2   0.986363 0.328627 0.571611 -0.092086
C32   C     C_2   0.987553 0.339168 0.415232 -0.101845
C33   C     C_2   0.468749 0.741059 0.451695 -0.162777
C34   C     C_2   0.455377 0.746780 0.527606 -0.153154
C35   C     C_2   0.968749 0.241060 0.451695 -0.162777
C36   C     C_2   0.955377 0.246780 0.527606 -0.153154
C37   C     C_2   0.270646 0.660816 0.563490 -0.106615
C38   C     C_2   0.729247 0.660948 0.436507 -0.094257
C39   C     C_2   0.770646 0.160816 0.563490 -0.106615
C40   C     C_2   0.229247 0.160948 0.436507 -0.094257
C41   C     C_2   0.259924 0.613820 0.411022 -0.109501
C42   C     C_2   0.740383 0.612643 0.588787 -0.110000
C43   C     C_2   0.759924 0.113820 0.411022 -0.109501
C44   C     C_2   0.240382 0.112643 0.588787 -0.110000
C45   C     C_R   0.472516 0.822629 0.852591 0.541862
C46   C     C_R   0.528366 0.821712 0.146743 0.537809
C47   C     C_R   0.972516 0.322629 0.852591 0.541863
C48   C     C_R   0.028366 0.321712 0.146743 0.537809
C49   C     C_2   0.223757 0.702178 0.443992 -0.145063
C50   C     C_2   0.776661 0.700906 0.556253 -0.147497
C51   C     C_2   0.723757 0.202178 0.443992 -0.145063
C52   C     C_2   0.276661 0.200906 0.556253 -0.147497
C53   C     C_2   0.239471 0.737923 0.517866 -0.160738
C54   C     C_2   0.761224 0.737015 0.482535 -0.164528
C55   C     C_2   0.739471 0.237923 0.517866 -0.160738
C56   C     C_2   0.261224 0.237015 0.482535 -0.164528
C57   C     C_R   0.260927 0.635906 0.851349 0.563671
C58   C     C_R   0.739111 0.635521 0.148688 0.562492
C59   C     C_R   0.760927 0.135906 0.851349 0.563671
C60   C     C_R   0.239111 0.135521 0.148688 0.562492
C61   C     C_R   0.270582 0.049008 0.649671 0.546363
C62   C     C_R   0.729483 0.049434 0.350237 0.546327
C63   C     C_R   0.770582 0.549008 0.649671 0.546363
C64   C     C_R   0.229483 0.549434 0.350237 0.546327
C65   C     C_R   0.467913 0.823062 0.646228 0.544963
C66   C     C_R   0.527601 0.824636 0.350435 0.547162
C67   C     C_R   0.967912 0.323062 0.646228 0.544963
C68   C     C_R   0.027601 0.324636 0.350435 0.547162
C69   C     C_R   0.275363 0.690796 0.638448 0.568356
C70   C     C_R   0.724679 0.690917 0.361652 0.573009
C71   C     C_R   0.775362 0.190796 0.638448 0.568356
C72   C     C_R   0.224679 0.190917 0.361652 0.573009
C73   C     C_R   0.501757 0.828485 0.073427 0.002401
C74   C     C_R   0.503241 0.832615 0.924258 -0.001974
C75   C     C_R   0.001757 0.328485 0.073427 0.002401
C76   C     C_R   0.003241 0.332615 0.924258 -0.001974
C77   C     C_R   0.494180 0.941146 0.037764 0.024948
C78   C     C_R   0.502113 0.944190 0.962753 0.026000
C79   C     C_R   0.994180 0.441146 0.037764 0.024948
C80   C     C_R   0.002113 0.444190 0.962753 0.026000
C81   C     C_R   0.510116 0.723012 0.960943 -0.153778
C82   C     C_R   0.506945 0.720592 0.033797 -0.150421
C83   C     C_R   0.010115 0.223012 0.960943 -0.153778
C84   C     C_R   0.006944 0.220592 0.033797 -0.150422
Cr1   Cr    Cr6+3 0.230530 0.836340 0.748870 1.015434
Cr2   Cr    Cr6+3 0.769470 0.836340 0.251130 1.012668
Cr3   Cr    Cr6+3 0.730530 0.336340 0.748870 1.015434
Cr4   Cr    Cr6+3 0.269470 0.336340 0.251130 1.012668
Cr5   Cr    Cr6+3 0.387420 0.989430 0.750820 1.017241
Cr6   Cr    Cr6+3 0.612580 0.989430 0.249180 1.017770
Cr7   Cr    Cr6+3 0.887420 0.489430 0.750820 1.017241
Cr8   Cr    Cr6+3 0.112580 0.489430 0.249180 1.017770
Cr9   Cr    Cr6+3 0.385640 0.677860 0.749230 1.015298
Cr10  Cr    Cr6+3 0.614360 0.677860 0.250770 1.016304
Cr11  Cr    Cr6+3 0.885640 0.177860 0.749230 1.015298
Cr12  Cr    Cr6+3 0.114360 0.177860 0.250770 1.016304
H1    H     H_    0.513160 0.636503 0.933203 0.137079
H2    H     H_    0.512247 0.632584 0.059024 0.136641
H3    H     H_    0.013160 0.136503 0.933203 0.137079
H4    H     H_    0.012247 0.132584 0.059024 0.136641
H5    H     H_    0.309825 0.580324 0.432468 0.091149
H6    H     H_    0.690617 0.578854 0.567089 0.098728
H7    H     H_    0.809825 0.080324 0.432468 0.091149
H8    H     H_    0.190617 0.078854 0.567089 0.098729
H9    H     H_    0.465316 0.051049 0.130472 0.129149
H10   H     H_    0.522293 0.065733 0.873260 0.130993
H11   H     H_    0.965316 0.551049 0.130472 0.129149
H12   H     H_    0.022293 0.565733 0.873260 0.130993
H13   H     H_    0.970029 0.745040 0.068122 0.109512
H14   H     H_    0.000707 0.752553 0.940102 0.106909
H15   H     H_    0.470028 0.245040 0.068122 0.109512
H16   H     H_    0.500707 0.252553 0.940102 0.106909
H17   H     H_    0.325889 0.447404 0.060665 0.151950
H18   H     H_    0.673382 0.449125 0.938269 0.152617
H19   H     H_    0.825889 0.947404 0.060665 0.151950
H20   H     H_    0.173382 0.949125 0.938269 0.152617
H21   H     H_    0.357731 0.541221 0.940246 0.153792
H22   H     H_    0.642144 0.541556 0.059496 0.149965
H23   H     H_    0.857731 0.041221 0.940246 0.153792
H24   H     H_    0.142144 0.041556 0.059496 0.149965
H25   H     H_    0.221985 0.663790 0.054490 0.113397
H26   H     H_    0.778447 0.663800 0.946258 0.113472
H27   H     H_    0.721985 0.163790 0.054490 0.113397
H28   H     H_    0.278447 0.163800 0.946258 0.113472
H29   H     H_    0.195964 0.581667 0.941844 0.111283
H30   H     H_    0.803985 0.580631 0.058037 0.112388
H31   H     H_    0.695964 0.081667 0.941844 0.111283
H32   H     H_    0.303985 0.080631 0.058037 0.112388
H33   H     H_    0.469200 0.651224 0.427341 0.152848
H34   H     H_    0.422581 0.674312 0.548479 0.149047
H35   H     H_    0.969200 0.151224 0.427341 0.152848
H36   H     H_    0.922581 0.174312 0.548479 0.149048
O1    O     O_R   0.215090 0.709860 0.828130 -0.517604
O2    O     O_R   0.784910 0.709860 0.171870 -0.518677
O3    O     O_R   0.715090 0.209860 0.828130 -0.517604
O4    O     O_R   0.284910 0.209860 0.171870 -0.518677
O5    O     O_R   0.445660 0.919250 0.676780 -0.495918
O6    O     O_R   0.554340 0.919250 0.323220 -0.500677
O7    O     O_R   0.945660 0.419250 0.676780 -0.495918
O8    O     O_R   0.054340 0.419250 0.323220 -0.500677
O9    O     O_R   0.456260 0.718170 0.670000 -0.522119
O10   O     O_R   0.543740 0.718170 0.330000 -0.521178
O11   O     O_R   0.956260 0.218170 0.670000 -0.522119
O12   O     O_R   0.043740 0.218170 0.330000 -0.521178
O13   O     O_R   0.320940 0.626760 0.674370 -0.504320
O14   O     O_R   0.679060 0.626760 0.325630 -0.498324
O15   O     O_R   0.820940 0.126760 0.674370 -0.504320
O16   O     O_R   0.179060 0.126760 0.325630 -0.498324
O17   O     O_3   0.334530 0.834540 0.749640 -0.266085
O18   O     O_3   0.665470 0.834540 0.250360 -0.264371
O19   O     O_3   0.834530 0.334540 0.749640 -0.266085
O20   O     O_3   0.165470 0.334540 0.250360 -0.264371
O21   O     O_R   0.236990 0.958390 0.823710 -0.498675
O22   O     O_R   0.763010 0.958390 0.176290 -0.498950
O23   O     O_R   0.736990 0.458390 0.823710 -0.498675
O24   O     O_R   0.263010 0.458390 0.176290 -0.498950
O25   O     O_R   0.332380 0.074750 0.830850 -0.509726
O26   O     O_R   0.667620 0.074750 0.169150 -0.508565
O27   O     O_R   0.832380 0.574750 0.830850 -0.509726
O28   O     O_R   0.167620 0.574750 0.169150 -0.508565
O29   O     O_R   0.445800 0.917770 0.825070 -0.504507
O30   O     O_R   0.554200 0.917770 0.174930 -0.502980
O31   O     O_R   0.945800 0.417770 0.825070 -0.504507
O32   O     O_R   0.054200 0.417770 0.174930 -0.502980
O33   O     O_R   0.456410 0.716580 0.829970 -0.521182
O34   O     O_R   0.543590 0.716580 0.170030 -0.524860
O35   O     O_R   0.956410 0.216580 0.829970 -0.521182
O36   O     O_R   0.043590 0.216580 0.170030 -0.524860
O37   O     O_R   0.321080 0.625290 0.822650 -0.489307
O38   O     O_R   0.678920 0.625290 0.177350 -0.490231
O39   O     O_R   0.821080 0.125290 0.822650 -0.489307
O40   O     O_R   0.178920 0.125290 0.177350 -0.490231
O41   O     O_R   0.214930 0.711450 0.668160 -0.500358
O42   O     O_R   0.785070 0.711450 0.331840 -0.504340
O43   O     O_R   0.714930 0.211450 0.668160 -0.500358
O44   O     O_R   0.285070 0.211450 0.331840 -0.504340
O45   O     O_R   0.236850 0.959870 0.675420 -0.520999
O46   O     O_R   0.763150 0.959870 0.324580 -0.521874
O47   O     O_R   0.736850 0.459870 0.675420 -0.520999
O48   O     O_R   0.263150 0.459870 0.324580 -0.521874
O49   O     O_R   0.332230 0.076350 0.670880 -0.509912
O50   O     O_R   0.667770 0.076350 0.329120 -0.509906
O51   O     O_R   0.832230 0.576350 0.670880 -0.509912
O52   O     O_R   0.167770 0.576350 0.329120 -0.509906
H37   H     H_    0.176555 0.741039 0.419532 0.156247
H38   H     H_    0.823743 0.739851 0.581082 0.157198
H39   H     H_    0.676555 0.241039 0.419532 0.156246
H40   H     H_    0.323742 0.239851 0.581082 0.157199
H41   H     H_    0.217498 0.823088 0.537256 0.135979
H42   H     H_    0.783925 0.821594 0.463594 0.133755
H43   H     H_    0.717498 0.323089 0.537256 0.135979
H44   H     H_    0.283925 0.321594 0.463594 0.133755
H45   H     H_    0.291150 0.573224 0.546710 0.097473
H46   H     H_    0.707898 0.574010 0.452845 0.103861
H47   H     H_    0.791149 0.073224 0.546710 0.097473
H48   H     H_    0.207898 0.074009 0.452845 0.103861
H49   H     H_    0.482948 0.929687 0.438148 0.112662
H50   H     H_    0.519354 0.902130 0.552528 0.098703
H51   H     H_    0.982947 0.429687 0.438148 0.112662
H52   H     H_    0.019354 0.402130 0.552528 0.098703

loop_
_geom_bond_atom_site_label_1
_geom_bond_atom_site_label_2
_ccdc_geom_bond_type
C16   C28   D    
C71   O15   A    
C38   C70   S    
Cr10  O14   S    
C37   C69   S    
Cr3   O19   S    
C69   O13   A    
C10   H14   S    
Cr9   O17   S    
C35   C36   S    
C36   H36   S    
Cr6   O18   S    
C67   O11   A    
Cr10  O34   S    
C56   H44   S    
C81   C82   A    
C44   H8    S    
C5    H9    S    
C77   C78   A    
C58   O2    A    
C61   O45   A    
C19   H27   S    
C50   C54   S    
C75   C79   A    
Cr6   O30   S    
Cr4   O24   S    
C58   O38   A    
C47   C76   S    
C5    C11   A    
C32   H51   S    
Cr7   O51   S    
Cr2   O18   S    
C6    C12   A    
C64   O48   A    
C75   C84   A    
C6    C78   A    
C13   C57   S    
C37   H45   S    
C66   O6    A    
Cr12  O20   S    
C8    H12   S    
Cr2   O46   S    
C63   O47   A    
C3    C18   S    
C16   C60   S    
C41   C49   D    
C45   O29   A    
C60   O40   A    
Cr12  O40   S    
Cr2   O2    S    
C39   C55   D    
Cr6   O50   S    
C71   O43   A    
C40   C56   D    
C38   C54   D    
C66   O10   A    
Cr8   O20   S    
Cr1   O41   S    
C76   C80   A    
Cr12  O36   S    
C53   H41   S    
Cr9   O13   S    
C70   O14   A    
C23   C27   S    
C67   O7    A    
C9    C10   A    
C60   O4    A    
Cr7   O27   S    
C32   C68   S    
C47   O31   A    
C44   C52   D    
Cr5   O17   S    
Cr9   O33   S    
C2    O22   A    
C15   H31   S    
C3    O27   A    
Cr4   O20   S    
C48   C75   S    
C57   O1    A    
C69   O41   A    
C59   O39   A    
C42   H6    S    
C76   C83   A    
Cr5   O29   S    
C31   H52   S    
Cr6   O6    S    
Cr4   O48   S    
C57   O37   A    
C9    H13   S    
C14   C58   S    
C63   O51   A    
C82   H2    S    
C11   H15   S    
Cr10  O10   S    
C32   C35   D    
Cr3   O3    S    
Cr11  O15   S    
C79   C80   A    
Cr4   O4    S    
C21   H17   S    
C65   O9    A    
C28   H24   S    
C46   O30   A    
Cr7   O31   S    
C51   C55   S    
C72   O16   A    
C39   H47   S    
C29   C34   D    
C17   C21   D    
C38   H46   S    
Cr12  O16   S    
C25   H21   S    
C45   C74   S    
Cr2   O42   S    
C55   H43   S    
Cr6   O26   S    
C19   C23   D    
C37   C53   D    
C14   H30   S    
C62   O50   A    
C47   O35   A    
C15   C27   D    
C83   C84   A    
C48   O36   A    
C2    O26   A    
Cr9   O37   S    
C3    O23   A    
C33   C34   S    
C6    H10   S    
Cr1   O21   S    
C14   C26   D    
C1    O21   A    
C70   O42   A    
C30   C66   S    
C18   H26   S    
Cr7   O7    S    
C4    C17   S    
C17   H25   S    
C4    O24   A    
C42   C50   D    
C24   H20   S    
C40   C72   S    
Cr5   O5    S    
Cr8   O52   S    
C29   C65   S    
C68   O8    A    
Cr11  O19   S    
C74   C81   A    
C5    C77   A    
Cr8   O8    S    
C35   H35   S    
C73   C82   A    
C12   H16   S    
Cr9   O9    S    
C7    C79   A    
C40   H48   S    
C33   H33   S    
C7    C9    A    
C21   C25   S    
C1    C20   S    
C73   C77   A    
C46   O34   A    
C30   C33   D    
C2    C19   S    
C18   C22   D    
C15   C59   S    
C8    C10   A    
Cr11  O11   S    
C24   C28   S    
C13   C25   D    
Cr11  O35   S    
C62   O46   A    
C84   H4    S    
C11   C12   A    
Cr5   O25   S    
C48   O32   A    
Cr3   O23   S    
C27   H23   S    
C44   C61   S    
Cr10  O18   S    
Cr1   O17   S    
Cr3   O43   S    
C74   C78   A    
C61   O49   A    
Cr4   O44   S    
C26   H22   S    
Cr8   O28   S    
C1    O25   A    
Cr8   O32   S    
Cr2   O22   S    
C65   O5    A    
Cr10  O38   S    
Cr7   O19   S    
C43   C51   D    
C4    O28   A    
C81   H1    S    
C49   C53   S    
C42   C63   S    
C59   O3    A    
C23   H19   S    
C41   H5    S    
C54   H42   S    
C68   O12   A    
C7    H11   S    
C16   H32   S    
C72   O44   A    
C43   H7    S    
C20   H28   S    
C51   H39   S    
C31   C67   S    
Cr3   O47   S    
Cr12  O12   S    
C64   O52   A    
C22   H18   S    
C30   H49   S    
C49   H37   S    
C34   H34   S    
Cr1   O45   S    
C29   H50   S    
C22   C26   S    
Cr1   O1    S    
C8    C80   A    
C39   C71   S    
C31   C36   D    
C83   H3    S    
C52   H40   S    
C41   C64   S    
Cr11  O39   S    
C45   O33   A    
C13   H29   S    
C20   C24   D    
C46   C73   S    
C52   C56   S    
C43   C62   S    
Cr5   O49   S    
C50   H38   S    
