data_mof_unit_43585.cif
_audit_creation_date              2012-12-10T19:59:21-0500
_audit_creation_method            fapswitch 2.2
_symmetry_space_group_name_H-M    P1
_symmetry_Int_Tables_number       1
_space_group_crystal_system       triclinic
_cell_length_a                    15.040435
_cell_length_b                    14.339636
_cell_length_c                    10.734875
_cell_angle_alpha                 90.982905
_cell_angle_beta                  96.977894
_cell_angle_gamma                 90.260435
_cell_volume                      2297.6991828

loop_
_atom_site_label
_atom_site_type_symbol
_atom_type_description
_atom_site_fract_x
_atom_site_fract_y
_atom_site_fract_z
_atom_type_partial_charge
C1    C     C_R   0.327982 0.500207 0.503275 0.907376
C2    C     C_R   0.671266 0.500183 0.491997 0.910338
C3    C     C_R   0.186628 0.421299 0.534804 -0.175989
C4    C     C_R   0.805141 0.417356 0.437059 -0.176484
C5    C     C_R   0.093774 0.417695 0.518035 -0.123514
C6    C     C_R   0.896545 0.414692 0.430233 -0.136419
C7    C     C_R   0.045352 0.493170 0.464043 0.052323
C8    C     C_R   0.948201 0.495433 0.457889 0.052868
C9    C     C_R   0.418295 0.105089 0.491959 0.277419
C10   C     C_R   0.578901 0.104608 0.508508 0.271382
C11   C     C_R   0.421927 0.201490 0.463635 0.335089
C12   C     C_R   0.577090 0.201845 0.536674 0.336092
C13   C     C_R   0.498076 0.053314 0.500281 -0.222390
C14   C     C_R   0.549411 0.899363 0.592732 -0.177396
C15   C     C_R   0.445955 0.895664 0.408910 -0.175224
C16   C     C_R   0.555424 0.801206 0.588328 0.427378
C17   C     C_R   0.444024 0.797083 0.410504 0.407459
C18   C     C_R   0.497144 0.947991 0.501139 0.128904
C19   C     C_R   0.497539 0.499181 0.259925 0.897534
C20   C     C_R   0.497534 0.500489 0.739660 0.909400
C21   C     C_R   0.490278 0.582615 0.065950 0.224135
C22   C     C_R   0.488951 0.584078 0.938312 0.067689
C23   C     C_R   0.485279 0.498466 0.126499 -0.126710
C24   C     C_R   0.484440 0.500734 0.869417 -0.135477
C25   C     C_R   0.466434 0.415755 0.056710 -0.187621
C26   C     C_R   0.465702 0.416960 0.927510 -0.182400
C27   C     C_3   0.559215 0.658333 0.948089 -0.332781
C28   C     C_3   0.562254 0.654919 0.088373 -0.506074
C29   C     C_R   0.090429 0.572594 0.430543 -0.258282
C30   C     C_R   0.906760 0.579778 0.482974 -0.250830
C31   C     C_R   0.181786 0.580606 0.460821 0.506514
C32   C     C_R   0.815173 0.583918 0.480635 0.490102
C33   C     C_R   0.231290 0.501227 0.501427 -0.208520
C34   C     C_R   0.764940 0.500618 0.470767 -0.214932
H1    H     H_    0.457998 0.349831 0.101616 0.223628
H2    H     H_    0.456255 0.351749 0.875010 0.202034
H3    H     H_    0.590645 0.939311 0.664646 0.241685
H4    H     H_    0.405726 0.932555 0.335103 0.240843
H5    H     H_    0.623081 0.634165 0.917838 0.240769
H6    H     H_    0.541300 0.720774 0.131003 0.264194
H7    H     H_    0.531076 0.724488 0.908790 0.257737
H8    H     H_    0.625993 0.626112 0.134822 0.167983
H9    H     H_    0.054611 0.631360 0.387319 0.153761
H10   H     H_    0.944737 0.643424 0.505115 0.146664
H11   H     H_    0.223497 0.362839 0.576848 0.219658
H12   H     H_    0.765863 0.354698 0.414629 0.229443
H13   H     H_    0.060164 0.357059 0.549394 0.173203
H14   H     H_    0.926790 0.349706 0.405170 0.176097
N1    N     N_R   0.500000 0.252470 0.500000 -0.235850
N2    N     N_R   0.500000 0.747550 0.500000 -0.230330
O1    O     O_R   0.369060 0.579480 0.500010 -0.559065
O2    O     O_R   0.630940 0.579480 0.499990 -0.546800
O3    O     O_R   0.369050 0.420520 0.500010 -0.566914
O4    O     O_R   0.630950 0.420520 0.499990 -0.567549
O5    O     O_R   0.499990 0.579490 0.316780 -0.585847
O6    O     O_R   0.500010 0.579490 0.683220 -0.588774
O7    O     O_R   0.499980 0.420540 0.316780 -0.578686
O8    O     O_R   0.500020 0.420540 0.683220 -0.573600
Zn1   Zn    Zn3+2 0.500000 0.606140 0.500000 1.065824
Zn2   Zn    Zn3+2 0.500000 0.393860 0.500000 1.086031
S1    S     S_3+6 0.649397 0.762591 0.690940 0.048940
O9    O     O_2   0.731345 0.800151 0.641412 -0.248206
O10   O     O_2   0.646336 0.808584 0.817124 -0.333806
O11   O     O_3   0.661497 0.647849 0.711427 -0.540176
H15   H     H_    0.724873 0.639606 0.746849 0.368647
S2    S     S_3+6 0.364807 0.750967 0.286678 0.064334
O12   O     O_2   0.277741 0.800108 0.296313 -0.250262
O13   O     O_2   0.395435 0.778843 0.164544 -0.338004
O14   O     O_3   0.343098 0.636327 0.278968 -0.499544
H16   H     H_    0.300046 0.626838 0.202287 0.366830
O15   O     O_3   0.221237 0.666742 0.450093 -0.564504
C35   C     C_3   0.231277 0.713602 0.568526 0.174307
H17   H     H_    0.294908 0.754165 0.576683 0.190040
H18   H     H_    0.237431 0.665571 0.650037 0.089615
C36   C     C_3   0.154180 0.781914 0.577264 -0.394737
H19   H     H_    0.154931 0.835102 0.503322 0.261958
H20   H     H_    0.089122 0.744127 0.561855 0.206078
C37   C     C_3   0.161801 0.830488 0.705740 -0.793058
H21   H     H_    0.155896 0.778641 0.780057 0.255558
H22   H     H_    0.107058 0.882018 0.707400 0.277727
H23   H     H_    0.226995 0.867547 0.726019 0.304136
O16   O     O_3   0.776125 0.670169 0.489203 -0.572486
C38   C     C_3   0.748172 0.703446 0.367110 0.153308
H24   H     H_    0.678987 0.730622 0.366097 0.186043
H25   H     H_    0.745443 0.648749 0.291322 0.074073
C39   C     C_3   0.809342 0.783261 0.336892 -0.369478
H26   H     H_    0.808757 0.839739 0.408991 0.279221
H27   H     H_    0.879064 0.757579 0.338736 0.205642
C40   C     C_3   0.778798 0.822535 0.207525 -0.777241
H28   H     H_    0.782226 0.767906 0.133634 0.254338
H29   H     H_    0.823149 0.881553 0.189150 0.284657
H30   H     H_    0.708926 0.848214 0.202790 0.290455
S3    S     S_3+6 0.315834 0.052851 0.524110 0.073483
O17   O     O_2   0.333959 0.969453 0.605983 -0.340291
O18   O     O_2   0.263442 0.122115 0.591888 -0.249162
O19   O     O_3   0.254798 0.019082 0.389114 -0.464771
H31   H     H_    0.198153 0.994463 0.414381 0.383308
S4    S     S_3+6 0.680260 0.051008 0.474676 0.077069
O20   O     O_2   0.660338 0.966018 0.391937 -0.334277
O21   O     O_2   0.733285 0.118585 0.407137 -0.249846
O22   O     O_3   0.741642 0.019714 0.608661 -0.458218
H32   H     H_    0.795891 0.990390 0.581892 0.389536
S5    S     S_3+6 0.333432 0.240036 0.350120 0.097577
O23   O     O_2   0.319152 0.166025 0.248673 -0.241290
O24   O     O_2   0.248404 0.248896 0.409093 -0.259308
O25   O     O_3   0.351835 0.340270 0.280028 -0.548119
H33   H     H_    0.295504 0.353003 0.225218 0.366948
S6    S     S_3+6 0.666290 0.243105 0.649891 0.102000
O26   O     O_2   0.681331 0.170754 0.749832 -0.237335
O27   O     O_2   0.750868 0.252249 0.590036 -0.264941
O28   O     O_3   0.647969 0.344136 0.722358 -0.530667
H34   H     H_    0.704225 0.358013 0.777752 0.366804

loop_
_geom_bond_atom_site_label_1
_geom_bond_atom_site_label_2
_ccdc_geom_bond_type
C15   C18   A    
S2    O13   D    
S3    O17   D    
C7    C29   A    
O5    Zn1   S    
C14   C18   A    
O28   H34   S    
C20   O6    A    
C12   N1    A    
C1    C33   S    
C7    C8    S    
C4    H12   S    
C19   O7    A    
C5    H13   S    
C17   S2    S    
O22   H32   S    
N1    Zn2   S    
C6    H14   S    
C13   C18   S    
N2    Zn1   S    
C24   C26   A    
C37   H22   S    
S2    O14   S    
O25   H33   S    
C3    C33   A    
O8    Zn2   S    
S6    O26   D    
S1    O10   D    
C10   S4    S    
C1    O3    A    
C9    C13   A    
C20   C24   S    
C27   H5    S    
C31   C33   A    
C14   C16   A    
C40   H29   S    
C2    C34   S    
C31   O15   S    
S2    O12   D    
S3    O18   D    
C21   C22   A    
C29   H9    S    
C30   H10   S    
O14   H16   S    
C35   C36   S    
C10   C12   A    
O3    Zn2   S    
C4    C34   A    
C4    C6    A    
C2    O4    A    
C12   S6    S    
C39   H26   S    
O7    Zn2   S    
O4    Zn2   S    
C25   C26   A    
C3    H11   S    
C39   C40   S    
C32   C34   A    
S1    O11   S    
C19   C23   S    
C36   H19   S    
C15   H4    S    
C11   N1    A    
O2    Zn1   S    
C9    C11   A    
C27   H7    S    
C38   H24   S    
O19   H31   S    
S5    O24   D    
C40   H30   S    
C1    O1    A    
C2    O2    A    
C25   H1    S    
C35   H18   S    
C38   H25   S    
C21   C28   S    
O16   C38   S    
S3    O19   S    
S4    O21   D    
C22   C27   S    
C21   C23   A    
C22   C24   A    
O1    Zn1   S    
C16   S1    S    
C20   O8    A    
C9    S3    S    
S5    O23   D    
C5    C7    A    
C26   H2    S    
C15   C17   A    
C37   H21   S    
C16   N2    A    
C35   H17   S    
C3    C5    A    
C10   C13   A    
C17   N2    A    
C6    C8    A    
O6    Zn1   S    
C19   O5    A    
S4    O22   S    
C32   O16   S    
S6    O28   S    
C8    C30   A    
O11   H15   S    
O15   C35   S    
C29   C31   A    
C14   H3    S    
C30   C32   A    
C37   H23   S    
C28   H8    S    
S6    O27   D    
S5    O25   S    
C39   H27   S    
C23   C25   A    
S1    O9    D    
C36   C37   S    
C38   C39   S    
S4    O20   D    
C36   H20   S    
C27   C28   S    
C28   H6    S    
C11   S5    S    
C40   H28   S    
