data_mof_unit_60115.cif
_audit_creation_date              2013-03-05T16:41:44-0500
_audit_creation_method            fapswitch 2.2
_symmetry_space_group_name_H-M    P1
_symmetry_Int_Tables_number       1
_space_group_crystal_system       triclinic
_cell_length_a                    17.741554
_cell_length_b                    16.58954
_cell_length_c                    10.915524
_cell_angle_alpha                 88.401562
_cell_angle_beta                  94.565005
_cell_angle_gamma                 89.309554
_cell_volume                      3200.93686659

loop_
_atom_site_label
_atom_site_type_symbol
_atom_site_description
_atom_site_fract_x
_atom_site_fract_y
_atom_site_fract_z
_atom_type_partial_charge
O1    O     O_R   0.391240 0.567930 0.499990 -0.574795
O2    O     O_R   0.391240 0.432070 0.499990 -0.578401
C1    C     C_R   0.355488 0.500342 0.501727 0.852021
O3    O     O_R   0.499970 0.567910 0.317690 -0.518355
O4    O     O_R   0.499970 0.432090 0.317690 -0.544408
C2    C     C_R   0.500286 0.501190 0.259944 0.952537
Cu1   Cu    Cu3+1 0.499980 0.580420 0.499990 1.099511
Cu2   Cu    Cu3+1 0.499980 0.419580 0.499990 1.112093
O5    O     O_R   0.608730 0.567880 0.500000 -0.559027
O6    O     O_R   0.608730 0.432120 0.500000 -0.552312
O7    O     O_R   0.500000 0.567910 0.682300 -0.576711
O8    O     O_R   0.500000 0.432090 0.682300 -0.535341
C3    C     C_R   0.644630 0.499679 0.499579 0.959471
C4    C     C_R   0.502389 0.498736 0.740941 0.881405
C5    C     C_3   0.513258 0.589424 0.063812 0.150152
C6    C     C_3   0.426704 0.466466 0.063297 0.150689
H1    H     H_    0.572366 0.607664 0.084839 0.215718
H2    H     H_    0.418848 0.405443 0.102245 0.203048
C7    C     C_3   0.502201 0.585535 0.923066 -0.432627
C8    C     C_3   0.431163 0.458233 0.922102 -0.456829
H3    H     H_    0.447266 0.613589 0.887303 0.240585
H4    H     H_    0.382364 0.487328 0.867438 0.211078
H5    H     H_    0.545191 0.623648 0.882856 0.254146
H6    H     H_    0.425624 0.394129 0.898962 0.238745
C9    C     C_3   0.574711 0.448248 0.090368 0.286389
C10   C     C_3   0.503029 0.502421 0.122842 -0.325029
C11   C     C_3   0.504723 0.496389 0.879786 -0.195047
C12   C     C_3   0.578737 0.451012 0.943023 0.383265
C13   C     C_R   0.845026 0.574341 0.496010 0.314597
C14   C     C_R   0.848147 0.426500 0.513367 0.314993
C15   C     C_R   0.766023 0.572501 0.489469 -0.114218
C16   C     C_R   0.769036 0.427109 0.506630 -0.118666
H7    H     H_    0.734389 0.628559 0.478068 0.235514
H8    H     H_    0.739799 0.370670 0.509423 0.245235
C17   C     C_R   0.727673 0.499575 0.498235 -0.128884
C18   C     C_R   0.886355 0.500753 0.508361 -0.126334
C19   C     C_1   0.967096 0.501201 0.506895 0.172802
C20   C     C_1   0.034642 0.501520 0.506317 0.066396
C21   C     C_R   0.154017 0.574054 0.513636 -0.087940
C22   C     C_R   0.154413 0.428485 0.499859 -0.096992
H9    H     H_    0.123708 0.630718 0.519750 0.185722
H10   H     H_    0.124446 0.371975 0.495168 0.183128
C23   C     C_R   0.232581 0.573820 0.513252 -0.124810
C24   C     C_R   0.232894 0.428094 0.499448 -0.130634
H11   H     H_    0.261715 0.630612 0.520198 0.183572
H12   H     H_    0.262182 0.370809 0.495074 0.189281
C25   C     C_R   0.272700 0.500868 0.504665 -0.028557
C26   C     C_R   0.115063 0.501436 0.506289 0.088994
C27   C     C_R   0.554552 0.830595 0.560251 -0.244115
C28   C     C_R   0.552430 0.164985 0.561068 -0.228363
H13   H     H_    0.600011 0.863219 0.608031 0.206852
H14   H     H_    0.597626 0.128786 0.608358 0.206902
C29   C     C_R   0.557624 0.745001 0.559688 0.458014
C30   C     C_R   0.557590 0.250227 0.557643 0.501403
N1    N     N_R   0.499970 0.701220 0.499970 -0.263027
N2    N     N_R   0.499970 0.298780 0.499970 -0.253732
C31   C     C_R   0.441224 0.745237 0.437164 0.430111
C32   C     C_R   0.442234 0.259335 0.433419 0.413473
C33   C     C_R   0.437688 0.830328 0.437830 -0.235397
C34   C     C_R   0.437128 0.174188 0.435193 -0.235494
H15   H     H_    0.390792 0.862339 0.387685 0.191507
H16   H     H_    0.391277 0.145781 0.381678 0.193052
C35   C     C_R   0.494218 0.874136 0.500164 0.011959
C36   C     C_R   0.492068 0.125946 0.500773 0.009815
C37   C     C_1   0.491559 0.963079 0.499632 0.063827
C38   C     C_1   0.490539 0.037063 0.499561 0.064871
N3    N     N_R   0.624578 0.706865 0.618010 0.126690
O9    O     O_R   0.619697 0.653723 0.706260 -0.308184
O10   O     O_R   0.689756 0.740230 0.606423 -0.315633
N4    N     N_R   0.628381 0.282231 0.604222 0.128002
O11   O     O_R   0.690603 0.241982 0.591475 -0.306627
O12   O     O_R   0.630443 0.339732 0.681768 -0.255532
Br1   Br    Br    0.361018 0.698594 0.336325 -0.317569
Br2   Br    Br    0.370266 0.313134 0.318050 -0.422411
N5    N     N_R   0.467012 0.654685 0.109284 0.182002
O13   O     O_R   0.501156 0.711812 0.170435 -0.307672
O14   O     O_R   0.397575 0.667786 0.064975 -0.245090
N6    N     N_R   0.358827 0.511601 0.094394 0.189719
O15   O     O_R   0.307993 0.538458 0.009996 -0.280721
O16   O     O_R   0.341899 0.512084 0.208143 -0.315488
N7    N     N_R   0.647335 0.477882 0.149818 0.138808
O17   O     O_R   0.650177 0.534510 0.230045 -0.405462
O18   O     O_R   0.710232 0.440210 0.131993 -0.203776
N8    N     N_R   0.566925 0.363641 0.138866 0.155633
O19   O     O_R   0.613121 0.335361 0.229139 -0.249022
O20   O     O_R   0.514964 0.315487 0.094318 -0.313862
N9    N     N_R   0.645573 0.495830 0.903648 0.145397
O21   O     O_R   0.679681 0.472126 0.809445 -0.261605
O22   O     O_R   0.666314 0.564134 0.950553 -0.291042
N10   N     N_R   0.587735 0.366716 0.903851 0.189826
O23   O     O_R   0.532027 0.325294 0.854416 -0.317041
O24   O     O_R   0.651077 0.328367 0.936132 -0.177119
N11   N     N_R   0.881879 0.651173 0.489380 0.156800
O25   O     O_R   0.847616 0.712132 0.430310 -0.257396
O26   O     O_R   0.945665 0.663347 0.553115 -0.315155
N12   N     N_R   0.888286 0.350213 0.524796 0.155382
O27   O     O_R   0.856643 0.285616 0.480809 -0.242926
O28   O     O_R   0.952660 0.342858 0.590386 -0.315758

loop_
_geom_bond_atom_site_label_1
_geom_bond_atom_site_label_2
_geom_bond_distance
_ccdc_geom_bond_type
C5    N5    1.471410 S    
N9    O21   1.301551 A    
C35   C37   1.475532 S    
N11   O25   1.301689 A    
C27   C35   1.393168 A    
C28   C36   1.388429 A    
Cu1   N1    2.004007 S    
Cu2   N2    2.004023 S    
N7    O17   1.300757 A    
Cu1   Cu2   2.668263 S    
C21   H9    1.083655 S    
C9    C12   1.615008 S    
C5    C7    1.536475 S    
C13   C18   1.414086 A    
C28   C30   1.417830 A    
C34   H16   1.083518 S    
C18   C19   1.433945 S    
C7    H3    1.112324 S    
N8    O20   1.300974 A    
C3    C17   1.474524 S    
O4    C2    1.292993 A    
O7    C4    1.296899 A    
N6    O16   1.300674 A    
C31   C33   1.412507 A    
C32   C34   1.416229 A    
Cu1   O5    1.938074 S    
C31   Br1   1.913085 S    
O5    C3    1.291976 A    
C14   N12   1.442121 S    
C8    H6    1.103608 S    
C27   H13   1.083826 S    
N12   O28   1.301322 A    
C9    N8    1.498085 S    
C28   H14   1.084093 S    
C15   H7    1.079432 S    
N4    O11   1.302175 A    
C4    C11   1.512229 S    
C14   C16   1.399525 A    
C7    C11   1.566232 S    
C20   C26   1.426795 S    
C24   C25   1.406241 A    
Cu2   O8    2.006524 S    
C22   H10   1.083758 S    
N11   O26   1.301325 A    
C9    N7    1.490945 S    
O3    Cu1   2.006428 S    
N7    O18   1.303137 A    
C24   H12   1.081660 S    
Cu1   O7    1.995007 S    
C29   N1    1.391719 A    
C6    C10   1.585204 S    
C30   N2    1.392687 A    
C33   H15   1.083754 S    
N3    O9    1.296307 A    
C16   C17   1.397865 A    
N8    O19   1.303534 A    
O3    C2    1.289114 A    
N6    O15   1.302198 A    
C5    C10   1.582522 S    
C21   C23   1.394140 A    
C9    C10   1.616374 S    
O1    C1    1.295283 A    
C16   H8    1.076699 S    
C7    H5    1.106153 S    
N5    O13   1.302091 A    
C19   C20   1.198959 T    
N5    O14   1.300619 A    
N10   O24   1.303464 A    
C30   N4    1.430833 S    
C6    C8    1.559220 S    
N12   O27   1.301684 A    
C12   N9    1.492692 S    
C23   H11   1.081695 S    
Cu2   O6    1.943060 S    
O8    C4    1.292378 A    
N9    O22   1.301519 A    
C15   C17   1.399826 A    
C32   Br2   1.914832 S    
C5    H1    1.103252 S    
C22   C26   1.396107 A    
O1    Cu1   1.942793 S    
O2    Cu2   1.937828 S    
C8    H4    1.109143 S    
O6    C3    1.295842 A    
O4    Cu2   1.994912 S    
N4    O12   1.291801 A    
C8    C11   1.554612 S    
C33   C35   1.390507 A    
C14   C18   1.414964 A    
C34   C36   1.393261 A    
N1    C31   1.389063 A    
O2    C1    1.292781 A    
C13   C15   1.398515 A    
C13   N11   1.442160 S    
N10   O23   1.300906 A    
C2    C10   1.500775 S    
C27   C29   1.420563 A    
C1    C25   1.471606 S    
N2    C32   1.389026 A    
C6    N6    1.477711 S    
C29   N3    1.433737 S    
C22   C24   1.392671 A    
C6    H2    1.101739 S    
C37   C38   1.227259 T    
C11   C12   1.603220 S    
C12   N10   1.484174 S    
N3    O10   1.301662 A    
C23   C25   1.405803 A    
C36   C38   1.475516 S    
C21   C26   1.397149 A    
