data_mof_unit_37769.cif
_audit_creation_date              2012-10-26T19:44:25-0400
_audit_creation_method            fapswitch 2.2
_symmetry_space_group_name_H-M    P1
_symmetry_Int_Tables_number       1
_space_group_crystal_system       triclinic
_cell_length_a                    10.830504
_cell_length_b                    11.715638
_cell_length_c                    10.458076
_cell_angle_alpha                 90.007786
_cell_angle_beta                  90.669671
_cell_angle_gamma                 90.147795
_cell_volume                      1326.89112404

loop_
_atom_site_label
_atom_site_type_symbol
_atom_type_description
_atom_site_fract_x
_atom_site_fract_y
_atom_site_fract_z
_atom_type_partial_charge
C1    C     C_R   0.500545 0.283325 0.499986 0.553105
C2    C     C_R   0.499362 0.716696 0.499990 0.530990
C3    C     C_1   0.500186 0.161977 0.499955 -0.030672
C4    C     C_3   0.069827 0.455323 0.628184 0.161419
C5    C     C_3   0.067854 0.432500 0.379745 0.149501
C6    C     C_3   0.928865 0.436721 0.621387 0.155019
C7    C     C_3   0.925704 0.446974 0.376026 0.190753
C8    C     C_1   0.499850 0.059735 0.499950 -0.057980
C9    C     C_3   0.074107 0.631710 0.479236 0.458710
C10   C     C_3   0.928657 0.633389 0.509324 0.445075
C11   C     C_3   0.167818 0.270257 0.637697 -0.019302
C12   C     C_3   0.121479 0.502290 0.495944 -0.027467
C13   C     C_3   0.167092 0.277115 0.282918 -0.134801
C14   C     C_3   0.852413 0.275151 0.725178 -0.116650
C15   C     C_3   0.833511 0.323404 0.226644 -0.087709
C16   C     C_3   0.130395 0.817935 0.565171 -0.074480
C17   C     C_3   0.205721 0.705424 0.311572 -0.095495
C18   C     C_3   0.796084 0.713952 0.671225 -0.104869
C19   C     C_3   0.872888 0.814166 0.410675 -0.067983
C20   C     C_3   0.878975 0.504588 0.503151 -0.001821
C21   C     C_1   0.499408 0.838055 0.499973 -0.048575
C22   C     C_1   0.499558 0.940285 0.499956 -0.066496
C23   C     C_R   0.259149 0.499126 0.498843 0.597772
C24   C     C_R   0.740894 0.501238 0.501001 0.637633
C25   C     C_1   0.500007 0.499974 0.072037 0.073161
C26   C     C_1   0.500018 0.499974 0.927967 0.090525
Cu1   Cu    Cu3+1 0.500000 0.500000 0.625300 0.994643
Cu2   Cu    Cu3+1 0.500000 0.500000 0.374700 0.964044
H1    H     H_    0.079763 0.530111 0.692994 0.180221
H2    H     H_    0.182759 0.184017 0.293011 0.127499
H3    H     H_    0.762463 0.314684 0.749508 0.135592
H4    H     H_    0.920367 0.287457 0.804627 0.124053
H5    H     H_    0.836933 0.182094 0.713478 0.128880
H6    H     H_    0.911929 0.340532 0.161796 0.081888
H7    H     H_    0.754193 0.378712 0.199894 0.136478
H8    H     H_    0.804515 0.233357 0.212688 0.135181
H9    H     H_    0.110557 0.852321 0.468948 0.111118
H10   H     H_    0.218981 0.857330 0.596329 0.115637
H11   H     H_    0.060500 0.846124 0.634839 0.155485
H12   H     H_    0.103334 0.471207 0.289588 0.115783
H13   H     H_    0.240659 0.645515 0.238386 0.151862
H14   H     H_    0.273606 0.713762 0.390345 0.173205
H15   H     H_    0.197969 0.790176 0.264950 0.106749
H16   H     H_    0.728719 0.717877 0.591579 0.166076
H17   H     H_    0.801969 0.800654 0.713507 0.111468
H18   H     H_    0.761844 0.656315 0.747119 0.146760
H19   H     H_    0.942989 0.839307 0.339626 0.155047
H20   H     H_    0.892256 0.853551 0.504669 0.116196
H21   H     H_    0.784183 0.851129 0.376792 0.122262
H22   H     H_    0.888949 0.475591 0.709537 0.108492
H23   H     H_    0.903111 0.508025 0.296811 0.117972
H24   H     H_    0.087347 0.224746 0.596366 0.211339
H25   H     H_    0.240955 0.284735 0.566618 0.152839
H26   H     H_    0.208397 0.211289 0.709585 0.095996
H27   H     H_    0.258869 0.319137 0.280094 0.152691
H28   H     H_    0.116509 0.291264 0.191378 0.111934
N1    N     N_1   0.500000 0.499990 0.186410 -0.215608
N2    N     N_1   0.500000 0.499990 0.813590 -0.197555
O1    O     O_R   0.500000 0.337200 0.605810 -0.497268
O2    O     O_3   0.098452 0.315001 0.388707 -0.544613
O3    O     O_3   0.897281 0.319477 0.609107 -0.497926
O4    O     O_3   0.866688 0.339334 0.356477 -0.466516
O5    O     O_3   0.144658 0.698131 0.570330 -0.563273
O6    O     O_3   0.086759 0.670338 0.349565 -0.606484
O7    O     O_3   0.915876 0.679952 0.635560 -0.613365
O8    O     O_3   0.859365 0.694181 0.412858 -0.567133
O9    O     O_R   0.500000 0.337200 0.394190 -0.498632
O10   O     O_R   0.317690 0.499990 0.605810 -0.435931
O11   O     O_R   0.317690 0.499990 0.394190 -0.545196
O12   O     O_R   0.682310 0.499990 0.605810 -0.536206
O13   O     O_R   0.682310 0.499990 0.394190 -0.464653
O14   O     O_R   0.500000 0.662810 0.605810 -0.499924
O15   O     O_R   0.500000 0.662810 0.394190 -0.500562
O16   O     O_3   0.136084 0.371810 0.701391 -0.565906

loop_
_geom_bond_atom_site_label_1
_geom_bond_atom_site_label_2
_ccdc_geom_bond_type
C23   O10   A    
C8    C22   S    
C17   H15   S    
C7    O4    S    
C11   H24   S    
C16   O5    S    
C18   H16   S    
C4    C12   S    
C9    O6    S    
C6    C20   S    
C9    C10   S    
C19   H21   S    
C15   H6    S    
C4    O16   S    
C4    H1    S    
C11   H25   S    
C16   H9    S    
C13   H28   S    
C13   H27   S    
C19   O8    S    
C14   H5    S    
C10   O8    S    
C24   O12   A    
C15   H8    S    
C13   O2    S    
Cu1   O1    S    
Cu2   N1    S    
C6    H22   S    
C18   O7    S    
Cu1   O12   S    
C12   C23   S    
C2    O15   A    
C25   N1    T    
C2    C21   S    
C2    O14   A    
Cu2   O15   S    
C18   H18   S    
C6    O3    S    
C21   C22   T    
C1    O9    A    
C15   O4    S    
C7    C20   S    
C19   H19   S    
C1    O1    A    
C17   O6    S    
C9    C12   S    
C17   H13   S    
C10   O7    S    
Cu2   O13   S    
C16   H11   S    
C7    H23   S    
C11   O16   S    
C18   H17   S    
C20   C24   S    
C13   H2    S    
Cu2   O9    S    
C14   H4    S    
C5    C12   S    
C4    C6    S    
C3    C8    T    
C5    H12   S    
C15   H7    S    
Cu1   Cu2   S    
C5    C7    S    
C14   H3    S    
C23   O11   A    
C17   H14   S    
Cu1   O10   S    
C19   H20   S    
C5    O2    S    
C10   C20   S    
C25   C26   S    
C9    O5    S    
C14   O3    S    
C26   N2    T    
Cu1   O14   S    
Cu2   O11   S    
C24   O13   A    
C16   H10   S    
C1    C3    S    
Cu1   N2    S    
C11   H26   S    
