data_mof_unit_6333.cif
_audit_creation_date              2012-10-26T20:17:38-0400
_audit_creation_method            fapswitch 2.2
_symmetry_space_group_name_H-M    P1
_symmetry_Int_Tables_number       1
_space_group_crystal_system       triclinic
_cell_length_a                    27.814551
_cell_length_b                    8.693239
_cell_length_c                    7.413986
_cell_angle_alpha                 102.193689
_cell_angle_beta                  93.264009
_cell_angle_gamma                 91.838325
_cell_volume                      1747.61614707

loop_
_atom_site_label
_atom_site_type_symbol
_atom_type_description
_atom_site_fract_x
_atom_site_fract_y
_atom_site_fract_z
_atom_type_partial_charge
C1    C     C_R   0.497203 0.200763 0.455963 0.591457
C2    C     C_R   0.869883 0.361744 0.403940 0.011680
C3    C     C_R   0.354917 0.502814 0.512906 0.040158
C4    C     C_R   0.645136 0.498733 0.487561 0.039130
C5    C     C_R   0.972338 0.359171 0.427613 -0.026179
C6    C     C_R   0.027817 0.642867 0.577685 -0.024348
C7    C     C_R   0.976741 0.645265 0.555466 0.032878
C8    C     C_R   0.023450 0.356879 0.449068 0.032143
C9    C     C_R   0.949192 0.502372 0.485034 0.032442
C10   C     C_R   0.050974 0.499780 0.519822 0.032607
C11   C     C_R   0.943664 0.223821 0.341422 -0.124346
C12   C     C_R   0.502818 0.799218 0.544013 0.585424
C13   C     C_R   0.056433 0.777963 0.665264 -0.128268
C14   C     C_R   0.893447 0.223597 0.324653 0.258234
C15   C     C_R   0.106674 0.778181 0.682200 0.265219
C16   C     C_R   0.407615 0.501588 0.504103 0.601556
C17   C     C_R   0.592399 0.498701 0.495944 0.594549
C18   C     C_R   0.048199 0.215405 0.405495 -0.113389
C19   C     C_R   0.952077 0.786937 0.597809 -0.119031
C20   C     C_2   0.487543 0.037179 0.442328 0.174664
C21   C     C_2   0.512561 0.962791 0.557543 0.133551
C22   C     C_R   0.175817 0.357939 0.481957 0.429274
C23   C     C_R   0.102182 0.499373 0.532442 -0.069463
C24   C     C_R   0.824412 0.644986 0.522250 0.421733
C25   C     C_R   0.180595 0.637236 0.584683 0.439669
C26   C     C_R   0.819453 0.365697 0.419472 0.429680
C27   C     C_R   0.283533 0.571669 0.680971 -0.048402
C28   C     C_R   0.716828 0.432540 0.320459 -0.046107
C29   C     C_R   0.333736 0.582124 0.672772 0.239556
C30   C     C_R   0.666605 0.420767 0.327674 0.237663
C31   C     C_R   0.325257 0.427420 0.357746 -0.167198
C32   C     C_R   0.674570 0.574287 0.643367 -0.144495
C33   C     C_R   0.275287 0.426721 0.363048 -0.071756
C34   C     C_R   0.897978 0.502968 0.472270 -0.068926
C35   C     C_R   0.724572 0.575800 0.639065 -0.058205
C36   C     C_R   0.254054 0.496770 0.525609 0.182767
C37   C     C_R   0.746067 0.506754 0.476769 0.181281
C38   C     C_3   0.649339 0.169753 0.167264 -0.019875
C39   C     C_3   0.351759 0.833560 0.830876 -0.044262
C40   C     C_R   0.125425 0.357010 0.476012 0.044760
C41   C     C_R   0.874800 0.645594 0.528003 0.028108
C42   C     C_R   0.098082 0.216078 0.416776 -0.034388
C43   C     C_R   0.902207 0.786506 0.586245 -0.065535
C44   C     C_R   0.130219 0.640576 0.601358 0.020123
Cu1   Cu    Cu3+1 0.505380 0.517380 0.684380 1.135460
Cu2   Cu    Cu3+1 0.494620 0.482620 0.315620 1.132231
H1    H     H_    0.340717 0.369185 0.231784 0.162481
H2    H     H_    0.267356 0.626513 0.806748 0.164159
H3    H     H_    0.959654 0.116539 0.278304 0.171035
H4    H     H_    0.040353 0.884776 0.729696 0.158716
H5    H     H_    0.030257 0.100689 0.364420 0.117075
H6    H     H_    0.970122 0.901579 0.637909 0.121834
H7    H     H_    0.653210 0.136398 0.304452 0.145913
H8    H     H_    0.682418 0.142811 0.091433 0.161350
H9    H     H_    0.619311 0.094244 0.087874 0.217623
H10   H     H_    0.319893 0.863165 0.913225 0.134445
H11   H     H_    0.346002 0.865163 0.693249 0.147988
H12   H     H_    0.658901 0.631890 0.769163 0.171985
H13   H     H_    0.382900 0.908353 0.902781 0.209154
H14   H     H_    0.883406 0.842482 0.995517 0.370046
H15   H     H_    0.196277 0.989467 0.035937 0.382298
H16   H     H_    0.368389 0.056658 0.233587 0.353102
H17   H     H_    0.525030 0.084662 0.952621 0.349156
H18   H     H_    0.462634 0.379662 0.949284 0.247702
H19   H     H_    0.537347 0.620391 0.050734 0.248120
H20   H     H_    0.253051 0.371223 0.240482 0.164328
H21   H     H_    0.746625 0.630965 0.762251 0.171619
H22   H     H_    0.115156 0.104645 0.377705 0.206732
H23   H     H_    0.885197 0.898119 0.624563 0.210686
H24   H     H_    0.733255 0.378897 0.194784 0.162253
N1    N     N_R   0.202364 0.497073 0.531348 -0.405351
N2    N     N_R   0.797783 0.506090 0.472344 -0.407636
N3    N     N_2   0.486510 0.456430 0.038510 -0.209625
N4    N     N_2   0.513490 0.543570 0.961490 -0.205008
O1    O     O_R   0.503500 0.286120 0.619780 -0.484308
O2    O     O_2   0.802147 0.782285 0.567426 -0.421893
O3    O     O_2   0.792306 0.230677 0.391524 -0.392615
O4    O     O_2   0.207531 0.772660 0.611747 -0.401018
O5    O     O_3   0.638449 0.329483 0.181610 -0.523443
O6    O     O_3   0.362193 0.673586 0.817760 -0.524650
O7    O     O_2   0.839146 0.958334 0.302317 -0.215387
O8    O     O_2   0.825811 0.101715 0.053349 -0.224684
O9    O     O_3   0.902370 0.939920 0.056176 -0.560132
O10   O     O_2   0.159938 0.046129 0.708313 -0.218965
O11   O     O_2   0.102569 0.044648 0.945832 -0.313400
O12   O     O_R   0.496500 0.713880 0.380220 -0.482954
O13   O     O_3   0.180179 0.890186 0.964405 -0.484749
O14   O     O_2   0.451768 0.855765 0.120986 -0.258364
O15   O     O_2   0.405661 0.852909 0.392944 -0.320210
O16   O     O_3   0.402168 0.099156 0.246436 -0.562838
O17   O     O_2   0.594447 0.919108 0.752261 -0.320719
O18   O     O_2   0.594400 0.148145 0.610153 -0.273086
O19   O     O_3   0.545440 0.157480 0.900038 -0.476996
O20   O     O_R   0.494410 0.256780 0.308360 -0.471413
O21   O     O_R   0.505590 0.743220 0.691640 -0.477098
O22   O     O_R   0.434810 0.514700 0.655690 -0.478990
O23   O     O_R   0.565190 0.485300 0.344310 -0.477933
O24   O     O_R   0.425720 0.485350 0.344280 -0.475684
O25   O     O_R   0.574280 0.514650 0.655720 -0.480332
O26   O     O_2   0.198160 0.220717 0.437465 -0.452819
S1    S     S_3+6 0.863166 0.053195 0.182580 0.043480
S2    S     S_3+6 0.137198 0.947101 0.826521 0.040708
S3    S     S_3+6 0.435709 0.954216 0.297225 -0.010459
S4    S     S_3+6 0.564066 0.046675 0.704455 0.004946

loop_
_geom_bond_atom_site_label_1
_geom_bond_atom_site_label_2
_ccdc_geom_bond_type
C27   H2    S    
C27   C29   A    
O10   S2    D    
N3    N4    D    
C32   H12   S    
O17   S4    D    
C20   S3    S    
O7    S1    D    
Cu1   Cu2   S    
C38   H7    S    
C35   C37   A    
C15   C44   A    
C5    C11   A    
C18   C42   A    
H14   O9    S    
C38   O5    S    
C23   C40   A    
C39   H11   S    
C33   C36   A    
C26   N2    A    
C25   C44   A    
C3    C29   A    
H15   O13   S    
C21   S4    S    
C19   H6    S    
C3    C16   S    
C38   H9    S    
C1    O20   A    
Cu2   O20   S    
C18   H5    S    
H18   N3    S    
C31   C33   A    
C12   O21   A    
C25   N1    A    
C36   N1    S    
C2    C34   A    
C40   C42   A    
Cu2   O24   S    
C39   H13   S    
C43   H23   S    
C31   H1    S    
O15   S3    D    
C42   H22   S    
C24   C41   A    
C41   C43   A    
C34   C41   A    
O19   S4    S    
C19   C43   A    
C33   H20   S    
C16   O22   A    
C26   O3    S    
C22   O26   S    
C25   O4    S    
C1    O1    A    
C32   C35   A    
Cu1   O25   S    
O18   S4    D    
C24   O2    S    
C14   S1    S    
C12   C21   S    
C8    C18   A    
C23   C44   A    
Cu1   N4    S    
C5    C9    A    
C11   H3    S    
O13   S2    S    
C39   H10   S    
C38   H8    S    
C35   H21   S    
C22   C40   A    
C2    C26   A    
C3    C31   A    
C17   O25   A    
C4    C32   A    
C30   O5    S    
Cu2   O23   S    
C7    C19   A    
C13   C15   A    
C9    C34   A    
C10   C23   A    
C4    C17   S    
Cu1   O21   S    
C22   N1    A    
O14   S3    D    
C24   N2    A    
C7    C9    A    
C1    C20   S    
O9    S1    S    
C28   H24   S    
C6    C10   A    
C5    C8    A    
C6    C7    A    
C27   C36   A    
H17   O19   S    
C12   O12   A    
Cu1   O1    S    
C39   O6    S    
C28   C30   A    
C6    C13   A    
C16   O24   A    
C29   O6    S    
C28   C37   A    
H16   O16   S    
C11   C14   A    
O8    S1    D    
C15   S2    S    
C2    C14   A    
O16   S3    S    
H19   N4    S    
C13   H4    S    
C20   C21   D    
C8    C10   A    
C37   N2    S    
Cu1   O22   S    
C17   O23   A    
Cu2   N3    S    
C4    C30   A    
O11   S2    D    
Cu2   O12   S    
