data_mof_unit_40093.cif
_audit_creation_date              2013-03-05T15:48:52-0500
_audit_creation_method            fapswitch 2.2
_symmetry_space_group_name_H-M    P1
_symmetry_Int_Tables_number       1
_space_group_crystal_system       triclinic
_cell_length_a                    17.549862
_cell_length_b                    24.279368
_cell_length_c                    15.039526
_cell_angle_alpha                 89.958812
_cell_angle_beta                  125.750908
_cell_angle_gamma                 89.991966
_cell_volume                      5200.77634313

loop_
_atom_site_label
_atom_site_type_symbol
_atom_site_description
_atom_site_fract_x
_atom_site_fract_y
_atom_site_fract_z
_atom_type_partial_charge
C1    C     C_R   0.902090 0.875230 0.091460 -0.123587
C2    C     C_R   0.902441 0.125103 0.091594 -0.129336
C3    C     C_R   0.405816 0.368914 0.090159 -0.121492
C4    C     C_R   0.406622 0.631734 0.090394 -0.127443
H1    H     H_    0.931141 0.866690 0.176036 0.093148
H2    H     H_    0.931702 0.133607 0.176198 0.093570
H3    H     H_    0.437287 0.354318 0.172215 0.089526
H4    H     H_    0.438613 0.646404 0.172461 0.088134
N1    N     N_R   0.950530 0.896220 0.057200 -0.037296
N2    N     N_R   0.950530 0.103780 0.057200 -0.037397
N3    N     N_R   0.450530 0.396220 0.057200 -0.035504
N4    N     N_R   0.450530 0.603780 0.057200 -0.035251
C5    C     C_R   0.810525 0.124931 0.907488 -0.136721
C6    C     C_R   0.810261 0.875586 0.907355 -0.139340
C7    C     C_R   0.312781 0.628266 0.906528 -0.140170
C8    C     C_R   0.312163 0.372600 0.906229 -0.141174
H5    H     H_    0.754957 0.132822 0.822696 0.095648
H6    H     H_    0.754572 0.868218 0.822429 0.150182
H7    H     H_    0.257550 0.635929 0.821516 0.098915
H8    H     H_    0.256636 0.365718 0.820940 0.147036
N5    N     N_R   0.893330 0.103780 0.942800 -0.037216
N6    N     N_R   0.893330 0.896220 0.942800 -0.040826
N7    N     N_R   0.393330 0.603780 0.942800 -0.036455
N8    N     N_R   0.393330 0.396220 0.942800 -0.039681
C9    C     C_R   0.745628 0.953755 0.697075 -0.105768
C10   C     C_R   0.741931 0.045388 0.697565 -0.091941
C11   C     C_R   0.245854 0.453928 0.696716 -0.099528
C12   C     C_R   0.241543 0.545506 0.698105 -0.092562
H9    H     H_    0.738222 0.911841 0.669435 0.126028
H10   H     H_    0.726180 0.087796 0.671268 0.148933
H11   H     H_    0.239666 0.412295 0.668528 0.130145
H12   H     H_    0.225479 0.587999 0.672905 0.153989
N9    N     N_R   0.818150 0.971400 0.792440 -0.046230
N10   N     N_R   0.818150 0.028600 0.792440 -0.048707
N11   N     N_R   0.318150 0.471400 0.792440 -0.044889
N12   N     N_R   0.318150 0.528600 0.792440 -0.047514
C13   C     C_R   0.047372 0.045815 0.303481 -0.143678
C14   C     C_R   0.047542 0.954056 0.303481 -0.142386
C15   C     C_R   0.503237 0.546042 0.272425 -0.137533
C16   C     C_R   0.503885 0.453744 0.272859 -0.136561
H13   H     H_    0.059889 0.088348 0.329219 0.095244
H14   H     H_    0.060504 0.911494 0.329186 0.098203
H15   H     H_    0.510999 0.587647 0.301119 0.089829
H16   H     H_    0.512758 0.412142 0.302120 0.090951
N13   N     N_R   0.025710 0.028600 0.207560 -0.034740
N14   N     N_R   0.025710 0.971400 0.207560 -0.035125
N15   N     N_R   0.525710 0.528600 0.207560 -0.035089
N16   N     N_R   0.525710 0.471400 0.207560 -0.034708
C17   C     C_R   0.813109 0.862099 0.998854 -0.005180
C18   C     C_R   0.813525 0.138420 0.999093 -0.009430
C19   C     C_R   0.317211 0.356119 0.997452 -0.007806
C20   C     C_R   0.318153 0.644827 0.997896 -0.009689
C21   C     C_R   0.694087 0.998954 0.637421 0.019848
C22   C     C_R   0.194055 0.499169 0.637173 0.009176
C23   C     C_R   0.062470 0.999889 0.365858 -0.006644
C24   C     C_R   0.481035 0.499790 0.306048 -0.005474
C25   C     C_R   0.265801 0.953392 0.242402 -0.136468
C26   C     C_R   0.267618 0.045592 0.244450 -0.152684
C27   C     C_R   0.765814 0.453364 0.242349 -0.135109
C28   C     C_R   0.767730 0.545518 0.244503 -0.153782
H17   H     H_    0.284392 0.910513 0.249733 0.109091
H18   H     H_    0.290373 0.087980 0.258379 0.112151
H19   H     H_    0.784266 0.410524 0.249339 0.109764
H20   H     H_    0.790860 0.587831 0.259371 0.114703
N17   N     N_R   0.181850 0.971400 0.207560 -0.039203
N18   N     N_R   0.181850 0.028600 0.207560 -0.038717
N19   N     N_R   0.681850 0.471400 0.207560 -0.041778
N20   N     N_R   0.681850 0.528600 0.207560 -0.041246
C29   C     C_R   0.019172 0.046185 0.751176 -0.106422
C30   C     C_R   0.019137 0.953697 0.751343 -0.136960
C31   C     C_R   0.450094 0.545953 0.696119 -0.111982
C32   C     C_R   0.449846 0.454031 0.696159 -0.160777
H21   H     H_    0.024576 0.088886 0.735673 0.095196
H22   H     H_    0.024721 0.910936 0.736554 0.092797
H23   H     H_    0.440492 0.588794 0.672517 0.107563
H24   H     H_    0.439125 0.411225 0.672261 0.093497
N21   N     N_R   0.974290 0.028600 0.792440 -0.033128
N22   N     N_R   0.974290 0.971400 0.792440 -0.038590
N23   N     N_R   0.474290 0.528600 0.792440 -0.041219
N24   N     N_R   0.474290 0.471400 0.792440 -0.037436
C33   C     C_R   0.051939 0.846240 0.909331 -0.175144
C34   C     C_R   0.052443 0.153660 0.909222 -0.179729
C35   C     C_R   0.555215 0.346935 0.909045 -0.164273
C36   C     C_R   0.555700 0.652980 0.909040 -0.169245
H25   H     H_    0.008715 0.833966 0.824389 0.100681
H26   H     H_    0.009099 0.166000 0.824275 0.113114
H27   H     H_    0.514816 0.335180 0.823832 0.100630
H28   H     H_    0.515083 0.664844 0.823837 0.109518
N25   N     N_R   0.049470 0.896220 0.942800 -0.043387
N26   N     N_R   0.049470 0.103780 0.942800 -0.045441
N27   N     N_R   0.549470 0.396220 0.942800 -0.044763
N28   N     N_R   0.549470 0.603780 0.942800 -0.046717
C37   C     C_R   0.141249 0.154018 0.091123 0.064826
C38   C     C_R   0.140206 0.845708 0.091066 0.047600
C39   C     C_R   0.643152 0.653640 0.091342 0.066454
C40   C     C_R   0.641970 0.346014 0.091164 0.048390
N29   N     N_R   0.106670 0.103780 0.057200 -0.056413
N30   N     N_R   0.106670 0.896220 0.057200 -0.056072
N31   N     N_R   0.606670 0.603780 0.057200 -0.056852
N32   N     N_R   0.606670 0.396220 0.057200 -0.057059
Ni1   Ni    Ni4+2 0.065600 0.934400 0.131190 0.227228
Ni2   Ni    Ni4+2 0.065600 0.065600 0.131190 0.224552
Ni3   Ni    Ni4+2 0.565600 0.434400 0.131190 0.228653
Ni4   Ni    Ni4+2 0.565600 0.565600 0.131190 0.225307
Ni5   Ni    Ni4+2 0.934400 0.065600 0.868810 0.229772
Ni6   Ni    Ni4+2 0.934400 0.934400 0.868810 0.210506
Ni7   Ni    Ni4+2 0.434400 0.565600 0.868810 0.222893
Ni8   Ni    Ni4+2 0.434400 0.434400 0.868810 0.209335
C41   C     C_R   0.323222 0.998919 0.273329 0.046540
C42   C     C_R   0.823193 0.498820 0.272544 0.045384
C43   C     C_R   0.048273 0.999883 0.723985 -0.021670
C44   C     C_R   0.432721 0.499964 0.633253 0.016466
C45   C     C_R   0.106914 0.812815 0.000022 -0.051051
C46   C     C_R   0.108001 0.186939 0.999938 -0.054291
C47   C     C_R   0.610869 0.313534 0.000066 -0.055989
C48   C     C_R   0.612057 0.686183 0.000166 -0.057978
C49   C     C_3   0.963364 0.001556 0.427986 -0.397780
C50   C     C_3   0.114866 0.947181 0.536326 -0.390750
C51   C     C_3   0.405254 0.551569 0.376686 -0.431553
C52   C     C_3   0.404599 0.448026 0.376357 -0.400936
H29   H     H_    0.927649 0.039242 0.378091 0.164997
H30   H     H_    0.188975 0.945089 0.563580 0.165720
H31   H     H_    0.444516 0.589963 0.388256 0.156680
H32   H     H_    0.439549 0.409146 0.379880 0.148224
H33   H     H_    0.923970 0.965306 0.375223 0.157493
H34   H     H_    0.078436 0.909417 0.488035 0.151816
H35   H     H_    0.337438 0.553314 0.293733 0.162650
H36   H     H_    0.334184 0.448870 0.296247 0.158334
C53   C     C_3   0.959562 0.001408 0.526506 -0.365650
C54   C     C_3   0.111744 0.947334 0.636415 -0.398087
C55   C     C_3   0.386899 0.550195 0.464398 -0.355058
C56   C     C_3   0.393826 0.446907 0.470244 -0.409578
H37   H     H_    0.918391 0.965022 0.521178 0.158029
H38   H     H_    0.075127 0.909262 0.633099 0.148901
H39   H     H_    0.310165 0.547190 0.424594 0.203674
H40   H     H_    0.318283 0.443854 0.437051 0.155571
H41   H     H_    0.921486 0.038901 0.523489 0.186328
H42   H     H_    0.184321 0.945877 0.713252 0.158816
H43   H     H_    0.411866 0.589703 0.509920 0.161850
H44   H     H_    0.429845 0.409353 0.519766 0.155567
H45   H     H_    0.087625 0.089705 0.493996 0.153645
H46   H     H_    0.194185 0.050093 0.567504 0.158579
H47   H     H_    0.601461 0.535449 0.508010 0.158631
H48   H     H_    0.598287 0.461482 0.510041 0.162964
H49   H     H_    0.083017 0.089743 0.638843 0.154374
H50   H     H_    0.188824 0.049804 0.716712 0.157198
H51   H     H_    0.575894 0.540681 0.637975 0.158472
H52   H     H_    0.582208 0.466889 0.647766 0.161867
C57   C     C_3   0.119890 0.050706 0.539806 -0.392363
C58   C     C_3   0.558490 0.499506 0.500259 -0.402890
C59   C     C_3   0.066442 0.999831 0.466239 0.379130
C60   C     C_3   0.462249 0.499680 0.387707 0.402258
C61   C     C_3   0.060128 0.999812 0.634762 0.375451
C62   C     C_3   0.437896 0.499798 0.540554 0.367765
C63   C     C_3   0.116311 0.050651 0.639710 -0.400606
C64   C     C_3   0.544185 0.501968 0.590359 -0.392173
C65   C     C_3   0.652764 0.181614 0.891228 -0.404857
C66   C     C_3   0.653148 0.817984 0.890011 -0.352359
C67   C     C_3   0.156645 0.685934 0.888032 -0.406040
C68   C     C_3   0.156506 0.313944 0.886558 -0.357139
H53   H     H_    0.653433 0.189076 0.818785 0.157603
H54   H     H_    0.655075 0.810118 0.818589 0.196988
H55   H     H_    0.159009 0.695740 0.817449 0.160489
H56   H     H_    0.160086 0.304072 0.816889 0.190727
H57   H     H_    0.618495 0.141096 0.879718 0.156363
H58   H     H_    0.617934 0.858361 0.876738 0.180344
H59   H     H_    0.123840 0.644619 0.873408 0.156443
H60   H     H_    0.122574 0.355011 0.870511 0.180484
C69   C     C_3   0.096013 0.729793 0.892905 -0.392212
C70   C     C_3   0.096408 0.269662 0.891362 -0.396179
C71   C     C_3   0.594991 0.227893 0.895625 -0.388823
C72   C     C_3   0.595679 0.771577 0.894539 -0.396508
H61   H     H_    0.537283 0.209892 0.896804 0.158441
H62   H     H_    0.537264 0.789420 0.894514 0.163882
H63   H     H_    0.038493 0.709725 0.891855 0.159188
H64   H     H_    0.037755 0.289303 0.888573 0.164765
H65   H     H_    0.063195 0.755178 0.817651 0.150033
H66   H     H_    0.065188 0.243895 0.816900 0.162266
H67   H     H_    0.562269 0.252463 0.819352 0.149105
H68   H     H_    0.563964 0.746745 0.818821 0.162420
H69   H     H_    0.315408 0.748652 0.945581 0.159334
H70   H     H_    0.317167 0.252193 0.947735 0.159076
H71   H     H_    0.812524 0.241139 0.941937 0.159230
H72   H     H_    0.814930 0.759281 0.944609 0.159065
H73   H     H_    0.216129 0.814014 0.928539 0.162332
H74   H     H_    0.218888 0.186191 0.930908 0.162342
H75   H     H_    0.717177 0.309165 0.924929 0.163321
H76   H     H_    0.719748 0.690941 0.926908 0.163542
C73   C     C_3   0.303818 0.742671 0.010315 -0.400402
C74   C     C_3   0.304590 0.258256 0.011620 -0.394384
C75   C     C_3   0.802391 0.237084 0.008193 -0.391018
C76   C     C_3   0.803575 0.763430 0.009850 -0.387525
C77   C     C_3   0.746516 0.175157 0.095434 -0.405867
C78   C     C_3   0.744823 0.825453 0.093824 -0.410041
C79   C     C_3   0.247238 0.676742 0.091700 -0.408751
C80   C     C_3   0.244990 0.324134 0.089715 -0.409533
C81   C     C_3   0.754327 0.181566 0.998411 0.387748
C82   C     C_3   0.754161 0.818762 0.998052 0.353729
C83   C     C_3   0.257137 0.686241 0.996765 0.394660
C84   C     C_3   0.256437 0.314445 0.996089 0.360575
H77   H     H_    0.816328 0.170752 0.175037 0.152285
H78   H     H_    0.814092 0.830630 0.173797 0.150960
H79   H     H_    0.316423 0.671986 0.172049 0.150015
H80   H     H_    0.313644 0.329589 0.170393 0.149818
H81   H     H_    0.705519 0.137515 0.084033 0.166886
H82   H     H_    0.702551 0.862780 0.080623 0.163100
H83   H     H_    0.207049 0.638243 0.077096 0.163371
H84   H     H_    0.203628 0.362329 0.073475 0.161337
C85   C     C_3   0.158038 0.764892 0.998884 0.385457
C86   C     C_3   0.158395 0.235183 0.998455 0.379835
C87   C     C_3   0.659594 0.263790 0.999689 0.380786
C88   C     C_3   0.660240 0.736134 0.999534 0.377130
C89   C     C_3   0.242050 0.788896 0.003178 -0.393357
C90   C     C_3   0.243545 0.211658 0.004704 -0.392780
C91   C     C_3   0.743266 0.285135 0.000816 -0.397055
C92   C     C_3   0.744837 0.715120 0.002272 -0.396133
C93   C     C_3   0.196202 0.726011 0.098794 -0.384648
C94   C     C_3   0.194679 0.274554 0.097152 -0.391100
C95   C     C_3   0.698036 0.226225 0.101554 -0.379163
C96   C     C_3   0.697189 0.774085 0.100458 -0.386685
H85   H     H_    0.640441 0.213531 0.107867 0.165306
H86   H     H_    0.638965 0.786391 0.105903 0.157208
H87   H     H_    0.138138 0.711426 0.102733 0.163799
H88   H     H_    0.135740 0.288749 0.099774 0.156951
H89   H     H_    0.248625 0.747809 0.176154 0.173119
H90   H     H_    0.247227 0.253349 0.175293 0.173954
H91   H     H_    0.752214 0.248456 0.177450 0.173218
H92   H     H_    0.751662 0.752367 0.176993 0.174367
H93   H     H_    0.373694 0.744807 0.091029 0.159679
H94   H     H_    0.374115 0.256638 0.092834 0.167729
H95   H     H_    0.873131 0.239145 0.087831 0.160833
H96   H     H_    0.873843 0.761792 0.090175 0.168524
H97   H     H_    0.285285 0.816490 0.075336 0.153198
H98   H     H_    0.286924 0.184504 0.077683 0.159193
H99   H     H_    0.788342 0.313171 0.071705 0.153911
H100  H     H_    0.789896 0.687310 0.073703 0.159687
C97   C     C_3   0.459552 0.937644 0.399568 -0.513911
C98   C     C_3   0.484545 0.027802 0.337065 -0.515536
C99   C     C_3   0.962093 0.437849 0.392684 -0.511481
C100  C     C_3   0.983301 0.531249 0.338350 -0.512780
H101  H     H_    0.414369 0.913883 0.415281 0.209626
H102  H     H_    0.461242 0.071368 0.315323 0.208790
H103  H     H_    0.918382 0.411410 0.406705 0.209698
H104  H     H_    0.956987 0.574327 0.317423 0.207972
H105  H     H_    0.456808 0.916507 0.332032 0.139272
H106  H     H_    0.474431 0.008546 0.263730 0.147294
H107  H     H_    0.959720 0.419605 0.323174 0.139912
H108  H     H_    0.975403 0.513844 0.264935 0.144657
C101  C     C_3   0.559752 0.936856 0.503752 0.244087
C102  C     C_3   0.589683 0.023807 0.435978 0.241312
C103  C     C_3   0.062577 0.436975 0.496702 0.240505
C104  C     C_3   0.088257 0.529015 0.438111 0.246507
H109  H     H_    0.603637 0.914788 0.483649 0.040036
H110  H     H_    0.624569 0.994886 0.412619 0.052330
H111  H     H_    0.107619 0.418409 0.474679 0.039686
H112  H     H_    0.126659 0.504097 0.413754 0.042139
H113  H     H_    0.393720 0.003835 0.488619 0.191287
H114  H     H_    0.404696 0.069562 0.443123 0.156856
H115  H     H_    0.892745 0.497364 0.486816 0.190042
H116  H     H_    0.902377 0.565248 0.447646 0.160769
H117  H     H_    0.545253 0.016739 0.636908 0.201805
H118  H     H_    0.556871 0.074984 0.576399 0.186399
H119  H     H_    0.043718 0.508554 0.636802 0.202146
H120  H     H_    0.054029 0.570507 0.584845 0.187326
C105  C     C_3   0.433544 0.027011 0.464186 -0.359295
C106  C     C_3   0.932397 0.522985 0.465240 -0.355405
C107  C     C_3   0.423547 0.997872 0.365558 0.281824
C108  C     C_3   0.923618 0.497745 0.364327 0.280017
C109  C     C_3   0.597633 0.997810 0.537114 0.024375
C110  C     C_3   0.097625 0.498027 0.536359 0.024928
C111  C     C_3   0.535976 0.030969 0.560966 -0.340768
C112  C     C_3   0.034477 0.526581 0.563237 -0.336887
N33   N     N_R   0.562898 0.904971 0.589512 0.239646
O1    O     O_R   0.514997 0.920256 0.626251 -0.434607
O2    O     O_R   0.597301 0.855305 0.611744 -0.461247
N34   N     N_R   0.636494 0.077441 0.458971 0.239756
O3    O     O_R   0.600274 0.121905 0.468378 -0.439674
O4    O     O_R   0.711810 0.081547 0.461794 -0.424791
N35   N     N_R   0.067079 0.400806 0.578733 0.237476
O5    O     O_R   0.018979 0.411845 0.617290 -0.433568
O6    O     O_R   0.102482 0.351634 0.594586 -0.454941
N36   N     N_R   0.129175 0.584587 0.465695 0.237799
O7    O     O_R   0.087619 0.625540 0.477046 -0.439869
O8    O     O_R   0.204139 0.594350 0.470031 -0.450013
C113  C     C_1   0.170825 0.173035 0.197525 -0.031531
N37   N     N_1   0.194315 0.188032 0.283093 -0.098370
C114  C     C_1   0.167425 0.826435 0.196505 -0.019185
N38   N     N_1   0.189036 0.811220 0.281257 -0.074887
C115  C     C_1   0.673338 0.672913 0.197831 -0.031450
N39   N     N_1   0.697286 0.688098 0.283467 -0.096453
C116  C     C_1   0.669645 0.326385 0.196589 -0.018689
N40   N     N_1   0.691591 0.310904 0.281326 -0.071559

loop_
_geom_bond_atom_site_label_1
_geom_bond_atom_site_label_2
_geom_bond_distance
_ccdc_geom_bond_type
C102  H110  1.114853 S    
C35   H27   1.079525 S    
C32   C44   1.376675 A    
C26   H18   1.079449 S    
N21   N22   1.388780 A    
C48   C88   1.481769 S    
C65   H53   1.111161 S    
C14   N14   1.326063 A    
C30   N22   1.324746 A    
C26   C41   1.388797 A    
N18   Ni2   1.883705 S    
C29   N21   1.326186 A    
C116  N40   1.157349 T    
C40   C116  1.440817 S    
N17   Ni1   1.884765 S    
C32   H24   1.079939 S    
C97   C101  1.525787 S    
C42   C108  1.472892 S    
H76   C92   1.114011 S    
C11   C22   1.371814 A    
C74   C84   1.548676 S    
C87   C95   1.556954 S    
C68   C84   1.553594 S    
C73   C89   1.519794 S    
C54   H38   1.110253 S    
N13   N14   1.388780 A    
C101  H109  1.115277 S    
C71   H61   1.112713 S    
N4    N7    1.396315 A    
N36   O7    1.301993 A    
C50   C59   1.555117 S    
C4    C20   1.386449 A    
C1    H1    1.078261 S    
C68   H56   1.112003 S    
H46   C57   1.113152 S    
C15   N15   1.317844 A    
C98   C107  1.547093 S    
C9    C21   1.370193 A    
N4    Ni4   1.883579 S    
C3    H3    1.075385 S    
C57   C59   1.555434 S    
C6    H6    1.077149 S    
C39   N31   1.325157 A    
N1    N6    1.396315 A    
C6    C17   1.386502 A    
C79   H79   1.110446 S    
C87   C91   1.547997 S    
C38   N30   1.326080 A    
C41   C107  1.473363 S    
C78   H78   1.109927 S    
H74   C90   1.114112 S    
N3    N8    1.396315 A    
C100  H104  1.111650 S    
C27   C42   1.380195 A    
C77   H77   1.109769 S    
C94   H90   1.108693 S    
C96   H92   1.109071 S    
C99   H107  1.113825 S    
C50   H30   1.113167 S    
C78   C82   1.550504 S    
C25   H17   1.077104 S    
C49   H29   1.114627 S    
C49   H33   1.114631 S    
H48   C58   1.114131 S    
N11   Ni8   1.883706 S    
C2    C18   1.391916 A    
C3    N3    1.324848 A    
C27   N19   1.317368 A    
H118  C111  1.109681 S    
C57   C63   1.540055 S    
H69   C73   1.114220 S    
C10   N10   1.326688 A    
H47   C58   1.114223 S    
C25   C41   1.380958 A    
H50   C63   1.113055 S    
C88   C92   1.547436 S    
H49   C63   1.110551 S    
C72   H62   1.112693 S    
C100  H108  1.112984 S    
C16   C24   1.376380 A    
C1    C17   1.392597 A    
N25   Ni6   1.883580 S    
C30   H22   1.078296 S    
C56   C62   1.553033 S    
N35   O5    1.301077 A    
H72   C76   1.114100 S    
C40   C47   1.387347 A    
C29   H21   1.078759 S    
C22   C110  1.471517 S    
C76   C82   1.551722 S    
N27   N32   1.396315 A    
C4    N4    1.324205 A    
C100  C108  1.545795 S    
C49   C53   1.521652 S    
N26   N29   1.396315 A    
C62   C64   1.552676 S    
N29   Ni2   1.884943 S    
C46   C86   1.475807 S    
C4    H4    1.075365 S    
C104  H112  1.114947 S    
C75   C91   1.521510 S    
C72   H68   1.109279 S    
C97   C107  1.555699 S    
C7    N7    1.321943 A    
N31   Ni4   1.884943 S    
C69   C85   1.557694 S    
H120  C112  1.109534 S    
C58   C64   1.516705 S    
C98   C102  1.555406 S    
N12   Ni7   1.884766 S    
C97   H101  1.111904 S    
C71   H67   1.109343 S    
C66   C82   1.554783 S    
C2    H2    1.078067 S    
N5    Ni5   1.885631 S    
C89   H97   1.114127 S    
C103  C110  1.582427 S    
C69   H65   1.108924 S    
C38   C45   1.385972 A    
C26   N18   1.329802 A    
C33   H25   1.079090 S    
N9    N10   1.388780 A    
C79   C83   1.552836 S    
C17   C82   1.470811 S    
H73   C89   1.114073 S    
N2    N5    1.396315 A    
C9    H9    1.078331 S    
N8    Ni8   1.884945 S    
C78   H82   1.112905 S    
N14   Ni1   1.886052 S    
H75   C91   1.113985 S    
C67   C83   1.553876 S    
C52   C60   1.557055 S    
C77   H81   1.112906 S    
C14   C23   1.378912 A    
N19   Ni3   1.884765 S    
N19   N20   1.388780 A    
C101  C109  1.579699 S    
C12   H12   1.077971 S    
C1    N1    1.326454 A    
C34   C46   1.382851 A    
C19   C84   1.461705 S    
C65   H57   1.112741 S    
C80   C84   1.552229 S    
C105  C107  1.558517 S    
C3    C19   1.387740 A    
C97   H105  1.113983 S    
C15   H15   1.075718 S    
C88   C96   1.557380 S    
C11   N11   1.314888 A    
N6    Ni6   1.884945 S    
N16   Ni3   1.886052 S    
C99   C103  1.527705 S    
C51   C55   1.530200 S    
N32   Ni3   1.885631 S    
C85   C89   1.551370 S    
C31   N23   1.317800 A    
C5    C18   1.387060 A    
C74   H94   1.113832 S    
N11   N12   1.388780 A    
C36   H28   1.079434 S    
C80   H84   1.113047 S    
C65   C81   1.555010 S    
C7    H7    1.077157 S    
C113  N37   1.157339 T    
C50   C54   1.537972 S    
C58   C60   1.541837 S    
C35   C47   1.386133 A    
C95   H85   1.112604 S    
C71   C87   1.556689 S    
N28   Ni7   1.884645 S    
C103  H111  1.115265 S    
N15   N16   1.388780 A    
C70   C86   1.558442 S    
C18   C81   1.471077 S    
N2    Ni2   1.883579 S    
C39   C48   1.387917 A    
C8    H8    1.078242 S    
C21   C109  1.469038 S    
N7    Ni7   1.885631 S    
C31   C44   1.377831 A    
C98   H106  1.112886 S    
C110  C112  1.547863 S    
N33   O1    1.301041 A    
C69   H63   1.112740 S    
H113  C105  1.113573 S    
C49   C59   1.545653 S    
C20   C83   1.461641 S    
C7    C20   1.381387 A    
C23   C59   1.470035 S    
H51   C64   1.114188 S    
C43   C61   1.473151 S    
N22   Ni6   1.885358 S    
C61   C63   1.554368 S    
C106  C112  1.517942 S    
C106  C108  1.559093 S    
C104  C110  1.578264 S    
C53   H37   1.114252 S    
C10   H10   1.079155 S    
C39   C115  1.440232 S    
N1    Ni1   1.884646 S    
H119  C112  1.109762 S    
C70   H66   1.108976 S    
C98   H102  1.111816 S    
C100  C104  1.554784 S    
C102  N34   1.469433 S    
C74   C90   1.519509 S    
C11   H11   1.077107 S    
C92   H100  1.114213 S    
C101  N33   1.476910 S    
C80   C94   1.535169 S    
C99   H103  1.110844 S    
C80   H80   1.110610 S    
C13   N13   1.326804 A    
C2    N2    1.325989 A    
C10   C21   1.381448 A    
C37   N29   1.325006 A    
C79   C93   1.534955 S    
C35   N27   1.326800 A    
C66   H58   1.112752 S    
C115  N39   1.157372 T    
N20   Ni4   1.883705 S    
C27   H19   1.075985 S    
C76   H96   1.113921 S    
C91   H99   1.114215 S    
C56   H40   1.113146 S    
C16   N16   1.316784 A    
H70   C74   1.114240 S    
C8    C19   1.381069 A    
C12   C22   1.381795 A    
N15   Ni4   1.885359 S    
C67   C69   1.537041 S    
C54   H42   1.113095 S    
C52   C56   1.530415 S    
N10   Ni5   1.884766 S    
N36   O8    1.300436 A    
N27   Ni8   1.883580 S    
C55   C62   1.552385 S    
C77   C95   1.536583 S    
N9    Ni6   1.883706 S    
C75   C81   1.551053 S    
N26   Ni5   1.884645 S    
N34   O4    1.301264 A    
N23   Ni7   1.886051 S    
C72   C88   1.557194 S    
H71   C75   1.114075 S    
C73   C83   1.547719 S    
C78   C96   1.536826 S    
C52   H36   1.113242 S    
C14   H14   1.079666 S    
C38   C114  1.440649 S    
C51   H31   1.110990 S    
C44   C62   1.449100 S    
C56   H44   1.111024 S    
N30   Ni1   1.885631 S    
C36   N28   1.326912 A    
N24   Ni8   1.885358 S    
C55   H39   1.111418 S    
C30   C43   1.390536 A    
C34   N26   1.324515 A    
C34   H26   1.079061 S    
C47   C87   1.481653 S    
C96   H86   1.112567 S    
C28   H20   1.079140 S    
C28   N20   1.330793 A    
C85   C93   1.555420 S    
C8    N8    1.321243 A    
C6    N6    1.323993 A    
C109  C111  1.549670 S    
C105  C111  1.517274 S    
C33   N25   1.324448 A    
C94   H88   1.112575 S    
C32   N24   1.316698 A    
H115  C106  1.113651 S    
C86   C90   1.550403 S    
C5    N5    1.324831 A    
N35   O6    1.301721 A    
C53   C61   1.552207 S    
C29   C43   1.391547 A    
C66   C72   1.540087 S    
H45   C57   1.111262 S    
C93   H89   1.109233 S    
N25   N30   1.396315 A    
C28   C42   1.389300 A    
C77   C81   1.551021 S    
C104  N36   1.470118 S    
C40   N32   1.326537 A    
N21   Ni5   1.886051 S    
N33   O2    1.301444 A    
C67   H59   1.112915 S    
C99   C108  1.553999 S    
C75   H95   1.113942 S    
C54   C61   1.554965 S    
C67   H55   1.111925 S    
C37   C46   1.386831 A    
C68   H60   1.112923 S    
C13   H13   1.079707 S    
C73   H93   1.113868 S    
C50   H34   1.111496 S    
C103  N35   1.477823 S    
H117  C111  1.110156 S    
C5    H5    1.077200 S    
C55   H43   1.109659 S    
N13   Ni2   1.885359 S    
C66   H54   1.110925 S    
C45   C85   1.475390 S    
N23   N24   1.388780 A    
C13   C23   1.378985 A    
C114  N38   1.157320 T    
C16   H16   1.075819 S    
C70   H64   1.112714 S    
C53   H41   1.114264 S    
N34   O3    1.301792 A    
C12   N12   1.326271 A    
C79   H83   1.113059 S    
C36   C48   1.387183 A    
N17   N18   1.388780 A    
C33   C45   1.382120 A    
C51   C60   1.555883 S    
C15   C24   1.377715 A    
C68   C70   1.537129 S    
C37   C113  1.440115 S    
C90   H98   1.114141 S    
N3    Ni3   1.884646 S    
H52   C64   1.114277 S    
C102  C109  1.575443 S    
C95   H91   1.109542 S    
C24   C60   1.445722 S    
H114  C105  1.111746 S    
H116  C106  1.112231 S    
C93   H87   1.112613 S    
C76   C92   1.521406 S    
C65   C71   1.540468 S    
C86   C94   1.555720 S    
C52   H32   1.109933 S    
N28   N31   1.396315 A    
C9    N9    1.314706 A    
C25   N17   1.316741 A    
C31   H23   1.079751 S    
C51   H35   1.113372 S    
