data_mof_unit_28410.cif
_audit_creation_date              2012-12-10T16:38:27-0500
_audit_creation_method            fapswitch 2.2
_symmetry_space_group_name_H-M    P1
_symmetry_Int_Tables_number       1
_space_group_crystal_system       triclinic
_cell_length_a                    10.861435
_cell_length_b                    10.841996
_cell_length_c                    17.914562
_cell_angle_alpha                 98.324317
_cell_angle_beta                  72.794542
_cell_angle_gamma                 98.577541
_cell_volume                      1981.32033156

loop_
_atom_site_label
_atom_site_type_symbol
_atom_type_description
_atom_site_fract_x
_atom_site_fract_y
_atom_site_fract_z
_atom_type_partial_charge
C1    C     C_R   0.158016 0.480905 0.516866 0.531811
C2    C     C_R   0.615102 0.415227 0.917740 -0.145089
C3    C     C_R   0.682939 0.362752 0.957256 -0.141460
C4    C     C_R   0.843023 0.520278 0.482351 0.525518
C5    C     C_R   0.648201 0.374406 0.039436 0.023972
C6    C     C_R   0.542757 0.443102 0.082613 0.004937
C7    C     C_R   0.719229 0.322277 0.079428 -0.015407
C8    C     C_R   0.684349 0.337912 0.161236 -0.144323
C9    C     C_R   0.524611 0.475695 0.164699 -0.035507
C10   C     C_2   0.980856 0.525170 0.474512 -0.086287
C11   C     C_2   0.021851 0.473757 0.525292 0.386537
C12   C     C_R   0.279504 0.623334 0.841542 -0.122957
C13   C     C_2   0.541156 0.966384 0.476793 -0.088711
C14   C     C_2   0.453048 0.037270 0.524614 0.383698
C15   C     C_R   0.468165 0.168689 0.517451 0.532180
C16   C     C_R   0.530074 0.832965 0.482742 0.533364
C17   C     C_R   0.564878 0.435892 0.288275 0.499972
C18   C     C_R   0.435338 0.562646 0.712262 0.508303
C19   C     C_R   0.396366 0.577110 0.798581 0.008603
C20   C     C_R   0.588774 0.413934 0.203524 0.025695
C21   C     C_R   0.236561 0.623618 0.923273 -0.017823
C22   C     C_R   0.832060 0.253215 0.037823 0.021389
C23   C     C_R   0.472775 0.534625 0.837580 -0.128503
C24   C     C_R   0.957768 0.308032 0.037592 -0.100496
C25   C     C_R   0.064815 0.243476 0.998053 -0.114023
C26   C     C_R   0.046894 0.123898 0.958815 -0.092432
C27   C     C_R   0.921930 0.068740 0.959034 -0.105120
C28   C     C_R   0.814581 0.132859 0.998654 -0.108696
C29   C     C_R   0.467821 0.593230 0.205538 0.028236
C30   C     C_R   0.521684 0.708113 0.175399 -0.076446
C31   C     C_R   0.474586 0.820162 0.214317 -0.111699
C32   C     C_R   0.373242 0.818677 0.283765 -0.094949
C33   C     C_R   0.317830 0.704971 0.313826 -0.112549
C34   C     C_R   0.430489 0.527461 0.919109 0.015629
C35   C     C_R   0.363944 0.592465 0.274733 -0.104561
C36   C     C_R   0.115675 0.679912 0.966132 0.017894
C37   C     C_R   0.120650 0.790697 0.017150 -0.101183
C38   C     C_R   0.007270 0.845526 0.056722 -0.108641
C39   C     C_R   0.888462 0.790471 0.045473 -0.105037
C40   C     C_R   0.882619 0.680088 0.994864 -0.112256
C41   C     C_R   0.995929 0.624914 0.955042 -0.097022
C42   C     C_R   0.310279 0.572616 0.962352 0.036818
C43   C     C_R   0.504164 0.475911 0.958589 0.025282
C44   C     C_R   0.462504 0.480834 0.041747 0.028297
C45   C     C_R   0.337464 0.514366 0.081435 -0.136859
C46   C     C_R   0.263789 0.560874 0.042952 -0.147857
F1    F     F_    0.939220 0.418939 0.587839 -0.602671
F2    F     F_    0.347913 0.990076 0.580007 -0.600998
H1    H     H_    0.168813 0.585646 0.077004 0.125364
H2    H     H_    0.972713 0.400876 0.067523 0.115253
H3    H     H_    0.161617 0.286145 0.997753 0.126212
H4    H     H_    0.129769 0.073883 0.928332 0.128985
H5    H     H_    0.908262 0.976158 0.928624 0.130264
H6    H     H_    0.718151 0.089216 0.998646 0.111039
H7    H     H_    0.600665 0.710601 0.121915 0.101601
H8    H     H_    0.517175 0.908209 0.190829 0.106033
H9    H     H_    0.337402 0.905586 0.314183 0.127805
H10   H     H_    0.239240 0.704260 0.367526 0.111620
H11   H     H_    0.318297 0.505111 0.298133 0.121734
H12   H     H_    0.050097 0.570734 0.426489 0.021110
H13   H     H_    0.212377 0.834708 0.025878 0.114136
H14   H     H_    0.011621 0.931294 0.095639 0.119226
H15   H     H_    0.801352 0.834311 0.075482 0.104265
H16   H     H_    0.790436 0.637771 0.986214 0.123285
H17   H     H_    0.990408 0.539442 0.915931 0.122509
H18   H     H_    0.622961 0.007975 0.432766 0.040537
H19   H     H_    0.736462 0.295385 0.192174 0.108714
H20   H     H_    0.765081 0.314907 0.922266 0.139014
H21   H     H_    0.220803 0.658288 0.811446 0.151230
H22   H     H_    0.565460 0.507659 0.802245 0.140294
H23   H     H_    0.292494 0.500397 0.142372 0.125869
H24   H     H_    0.649312 0.400669 0.854651 0.131578
O1    O     O_3   0.500000 0.500000 0.500000 -0.466338
O2    O     O_R   0.470800 0.371790 0.332500 -0.557181
O3    O     O_R   0.380610 0.619380 0.674980 -0.534935
O4    O     O_R   0.632640 0.524780 0.317540 -0.533693
O5    O     O_R   0.515950 0.484050 0.674980 -0.529546
O6    O     O_R   0.535460 0.243030 0.556410 -0.534031
O7    O     O_R   0.437420 0.784080 0.535340 -0.461462
O8    O     O_R   0.223560 0.397520 0.472140 -0.550545
O9    O     O_R   0.803560 0.575360 0.436110 -0.555836
O10   O     O_R   0.209690 0.568800 0.556400 -0.530294
O11   O     O_R   0.763190 0.458310 0.535350 -0.459032
O12   O     O_R   0.414000 0.207090 0.472140 -0.547529
O13   O     O_R   0.613120 0.765800 0.436110 -0.547168
Zn1   Zn    Zn3+2 0.577310 0.422690 0.565550 0.999558
Zn2   Zn    Zn3+2 0.403760 0.371330 0.445150 0.940219
Zn3   Zn    Zn3+2 0.634990 0.589920 0.423760 0.938138
Zn4   Zn    Zn3+2 0.383940 0.616050 0.565540 1.003421

loop_
_geom_bond_atom_site_label_1
_geom_bond_atom_site_label_2
_ccdc_geom_bond_type
C12   H21   S    
C18   O3    A    
C45   H23   S    
C11   F1    S    
C3    H20   S    
C34   C42   A    
O12   Zn2   S    
C6    C9    A    
C7    C8    A    
C21   C36   S    
C45   C46   A    
C46   H1    S    
C26   C27   A    
C29   C30   A    
O10   Zn4   S    
C36   C37   A    
O8    Zn2   S    
C5    C6    A    
C15   O6    A    
C17   C20   S    
C35   H11   S    
C18   C19   S    
C42   C46   A    
O1    Zn2   S    
C4    O9    A    
C1    C11   S    
C17   O4    A    
C31   H8    S    
O4    Zn3   S    
C9    C29   S    
O6    Zn1   S    
C22   C28   A    
C13   C14   D    
C23   H22   S    
C36   C41   A    
C32   H9    S    
C2    H24   S    
C13   H18   S    
C24   H2    S    
C38   C39   A    
C24   C25   A    
C39   C40   A    
C5    C7    A    
C28   H6    S    
C19   C23   A    
C41   H17   S    
C25   C26   A    
C12   C21   A    
C10   H12   S    
C43   C44   A    
C25   H3    S    
O1    Zn3   S    
C37   C38   A    
C26   H4    S    
C9    C20   A    
C37   H13   S    
C31   C32   A    
C2    C43   A    
C23   C34   A    
C8    C20   A    
C40   C41   A    
O5    Zn1   S    
C16   O13   A    
O2    Zn2   S    
C22   C24   A    
C4    C10   S    
C44   C45   A    
O13   Zn3   S    
C17   O2    A    
C34   C43   A    
C3    C5    A    
C14   F2    S    
C27   H5    S    
C15   O12   A    
C7    C22   S    
C39   H15   S    
C30   H7    S    
C29   C35   A    
C40   H16   S    
C33   H10   S    
C16   O7    A    
C32   C33   A    
C2    C3    A    
C1    O10   A    
O1    Zn4   S    
C30   C31   A    
C4    O11   A    
C18   O5    A    
C12   C19   A    
C33   C35   A    
O1    Zn1   S    
O7    Zn4   S    
O9    Zn3   S    
C10   C11   D    
O3    Zn4   S    
C21   C42   A    
O11   Zn1   S    
C8    H19   S    
C13   C16   S    
C27   C28   A    
C1    O8    A    
C14   C15   S    
C6    C44   A    
C38   H14   S    
