data_mof_unit_28548.cif
_audit_creation_date              2012-12-10T16:59:18-0500
_audit_creation_method            fapswitch 2.2
_symmetry_space_group_name_H-M    P1
_symmetry_Int_Tables_number       1
_space_group_crystal_system       triclinic
_cell_length_a                    7.751225
_cell_length_b                    8.598711
_cell_length_c                    27.709564
_cell_angle_alpha                 90.747474
_cell_angle_beta                  85.864694
_cell_angle_gamma                 93.725799
_cell_volume                      1838.09119599

loop_
_atom_site_label
_atom_site_type_symbol
_atom_type_description
_atom_site_fract_x
_atom_site_fract_y
_atom_site_fract_z
_atom_type_partial_charge
C1    C     C_R   0.545431 0.794607 0.498361 0.921918
C2    C     C_R   0.454569 0.205393 0.501640 0.921916
C3    C     C_R   0.509011 0.490843 0.897867 -0.057569
C4    C     C_R   0.490932 0.509306 0.102139 -0.057560
C5    C     C_R   0.592608 0.614411 0.870048 -0.071936
C6    C     C_R   0.407334 0.385736 0.129957 -0.071942
C7    C     C_R   0.648947 0.753957 0.893572 0.028075
C8    C     C_R   0.350986 0.246196 0.106433 0.028071
C9    C     C_R   0.430212 0.361586 0.874282 0.010066
C10   C     C_R   0.569745 0.638556 0.125725 0.010050
C11   C     C_R   0.506814 0.491048 0.646371 -0.038495
C12   C     C_R   0.493186 0.508980 0.353629 -0.038521
C13   C     C_R   0.570965 0.634405 0.023836 0.061077
C14   C     C_R   0.428968 0.365750 0.976170 0.061080
C15   C     C_R   0.427647 0.369449 0.027399 0.025368
C16   C     C_R   0.572284 0.630707 0.972607 0.025367
C17   C     C_R   0.495946 0.504453 0.050934 0.066640
C18   C     C_R   0.503989 0.495702 0.949072 0.066639
C19   C     C_R   0.645376 0.763088 0.049132 -0.223393
C20   C     C_R   0.354561 0.237065 0.950875 -0.223401
C21   C     C_R   0.643699 0.764943 0.099018 -0.181456
C22   C     C_R   0.356253 0.235202 0.900989 -0.181455
C23   C     C_R   0.502186 0.498472 0.593897 0.902834
C24   C     C_R   0.497814 0.501531 0.406103 0.902829
C25   C     C_R   0.635258 0.760104 0.944092 -0.264889
C26   C     C_R   0.364672 0.240052 0.055913 -0.264889
C27   C     C_2   0.562030 0.955842 0.489283 -0.356220
C28   C     C_2   0.437972 0.044159 0.510723 -0.356225
C29   C     C_R   0.614618 0.592151 0.819561 0.482859
C30   C     C_R   0.385337 0.407990 0.180445 0.482841
C31   C     C_R   0.425463 0.362633 0.824096 0.474125
C32   C     C_R   0.574511 0.637496 0.175910 0.474135
C33   C     C_R   0.664134 0.447999 0.716764 -0.107339
C34   C     C_R   0.335908 0.552231 0.283243 -0.107327
C35   C     C_R   0.660173 0.456372 0.666864 -0.192553
C36   C     C_R   0.339872 0.543825 0.333143 -0.192536
C37   C     C_R   0.357383 0.516265 0.676393 -0.169394
C38   C     C_R   0.642571 0.483627 0.323603 -0.169371
C39   C     C_R   0.361998 0.508487 0.726277 -0.105951
C40   C     C_R   0.637954 0.491447 0.273720 -0.106026
C41   C     C_R   0.515319 0.474729 0.746507 0.294017
C42   C     C_R   0.484676 0.525375 0.253497 0.294105
H1    H     H_    0.237580 0.543109 0.661439 0.175328
H2    H     H_    0.762336 0.456643 0.338553 0.175369
H3    H     H_    0.014180 0.382872 0.463694 0.207991
H4    H     H_    0.985819 0.617128 0.536306 0.207974
H5    H     H_    0.247147 0.530468 0.749341 0.151630
H6    H     H_    0.752765 0.469363 0.250652 0.151618
H7    H     H_    0.223185 0.564574 0.355572 0.170780
H8    H     H_    0.776898 0.435734 0.644438 0.170761
H9    H     H_    0.216892 0.577620 0.267709 0.140840
H10   H     H_    0.783182 0.422734 0.732302 0.140895
H11   H     H_    0.699173 0.867598 0.116673 0.174220
H12   H     H_    0.300787 0.132542 0.883334 0.174226
H13   H     H_    0.710200 0.864012 0.031769 0.137790
H14   H     H_    0.289733 0.136143 0.968237 0.137791
H15   H     H_    0.669635 0.871322 0.960130 0.140469
H16   H     H_    0.330295 0.128834 0.039875 0.140469
N1    N     N_R   0.520771 0.474845 0.797816 -0.350788
N2    N     N_R   0.479204 0.525283 0.202189 -0.350802
N3    N     N_2   0.950320 0.457960 0.486880 -0.172173
N4    N     N_2   0.049680 0.542040 0.513120 -0.172181
O1    O     O_R   0.389250 0.738570 0.503220 -0.599048
O2    O     O_R   0.610750 0.261430 0.496780 -0.599049
O3    O     O_R   0.678390 0.711630 0.494810 -0.633380
O4    O     O_R   0.321610 0.288370 0.505190 -0.633361
O5    O     O_R   0.355440 0.513440 0.575450 -0.605617
O6    O     O_R   0.644560 0.486560 0.424550 -0.605615
O7    O     O_R   0.644590 0.486500 0.567040 -0.633606
O8    O     O_R   0.355410 0.513500 0.432960 -0.633601
O9    O     O_2   0.729521 0.684429 0.792354 -0.555253
O10   O     O_2   0.270429 0.315719 0.207653 -0.555230
O11   O     O_2   0.670894 0.748899 0.198426 -0.591288
O12   O     O_2   0.329098 0.251215 0.801581 -0.591332
Zn1   Zn    Zn3+2 0.306940 0.517990 0.505620 0.996278
Zn2   Zn    Zn3+2 0.693060 0.482010 0.494380 0.996279
C43   C     C_R   0.709340 0.900689 0.867426 0.161690
C44   C     C_R   0.615608 0.956965 0.830341 -0.049581
C45   C     C_R   0.679325 0.088895 0.804208 -0.090912
C46   C     C_R   0.826629 0.175301 0.817924 -0.105532
C47   C     C_R   0.913894 0.126836 0.856738 -0.089793
C48   C     C_R   0.858481 0.988564 0.880749 -0.178374
H17   H     H_    0.496773 0.895428 0.820444 0.139669
H18   H     H_    0.613256 0.125308 0.773626 0.178933
H19   H     H_    0.872894 0.280272 0.798737 0.141232
H20   H     H_    0.025069 0.196375 0.867897 0.158455
H21   H     H_    0.931840 0.950339 0.909726 0.124628
C49   C     C_R   0.290595 0.099461 0.132577 0.161707
C50   C     C_R   0.141458 0.011585 0.119252 -0.178388
C51   C     C_R   0.086059 0.873300 0.143257 -0.089779
C52   C     C_R   0.173331 0.824823 0.182069 -0.105515
C53   C     C_R   0.320629 0.911232 0.195787 -0.090980
C54   C     C_R   0.384332 0.043177 0.169660 -0.049588
H22   H     H_    0.068095 0.049816 0.090277 0.124627
H23   H     H_    0.974891 0.803757 0.132095 0.158448
H24   H     H_    0.127077 0.719839 0.201250 0.141254
H25   H     H_    0.386705 0.874808 0.226367 0.178920
H26   H     H_    0.503165 0.104714 0.179558 0.139657
C55   C     C_2   0.680341 0.005406 0.446241 0.986587
O13   O     O_2   0.621804 0.068538 0.412295 -0.577208
O14   O     O_R   0.856854 0.979062 0.443662 -0.765458
H27   H     H_    0.895086 0.935233 0.474599 0.313711
C56   C     C_2   0.319674 0.994596 0.553768 0.986568
O15   O     O_2   0.378213 0.931433 0.587707 -0.577193
O16   O     O_R   0.143169 0.020970 0.556354 -0.765452
H28   H     H_    0.104916 0.064766 0.525415 0.313720

loop_
_geom_bond_atom_site_label_1
_geom_bond_atom_site_label_2
_ccdc_geom_bond_type
C21   H11   S    
O14   H27   S    
C8    C26   A    
C14   C18   A    
C34   C42   A    
C20   H14   S    
C47   C48   A    
C24   O8    A    
C51   H23   S    
C39   C41   A    
C43   C44   A    
C33   H10   S    
C27   C55   S    
C34   H9    S    
O3    Zn2   S    
H4    N4    S    
C19   C21   A    
C45   H18   S    
C9    C22   A    
C31   N1    A    
C48   H21   S    
C3    C18   A    
C15   C17   A    
C23   O5    A    
C50   H22   S    
C11   C37   A    
C23   O7    A    
C52   H24   S    
C44   H17   S    
C29   N1    A    
C30   N2    A    
C1    O3    A    
C12   C36   A    
C47   H20   S    
C52   C53   A    
C7    C43   S    
H3    N3    S    
C40   C42   A    
N3    Zn2   S    
C25   H15   S    
C1    O1    A    
C2    O2    A    
C53   H25   S    
C5    C29   A    
C10   C21   A    
C13   C19   A    
C14   C20   A    
C41   N1    S    
C22   H12   S    
C42   N2    S    
C32   O11   S    
C5    C7    A    
C9    C31   A    
C44   C45   A    
C15   C26   A    
C6    C8    A    
C3    C5    A    
C8    C49   S    
C37   H1    S    
C38   H2    S    
C46   H19   S    
C3    C9    A    
C55   O13   D    
C35   H8    S    
O2    Zn2   S    
C56   O16   S    
C49   C50   A    
C26   H16   S    
C4    C17   A    
C4    C6    A    
C55   O14   S    
C20   C22   A    
N4    Zn1   S    
O5    Zn1   S    
C32   N2    A    
C4    C10   A    
C56   O15   D    
C39   H5    S    
C19   H13   S    
C16   C25   A    
C40   H6    S    
C49   C54   A    
C6    C30   A    
C46   C47   A    
C31   O12   S    
C30   O10   S    
C2    O4    A    
O6    Zn2   S    
O16   H28   S    
C12   C24   S    
C7    C25   A    
C13   C17   A    
C33   C41   A    
C11   C35   A    
C37   C39   A    
C38   C40   A    
C28   C56   S    
C51   C52   A    
O1    Zn1   S    
C43   C48   A    
O4    Zn1   S    
C11   C23   S    
C53   C54   A    
C33   C35   A    
C34   C36   A    
C12   C38   A    
N3    N4    D    
C24   O6    A    
C45   C46   A    
C10   C32   A    
O7    Zn2   S    
O8    Zn1   S    
C16   C18   A    
C13   C16   A    
C27   C28   D    
C1    C27   S    
C14   C15   A    
C2    C28   S    
C50   C51   A    
C54   H26   S    
C36   H7    S    
C29   O9    S    
