data_mof_unit_14639.cif
_audit_creation_date              2012-12-10T17:57:25-0500
_audit_creation_method            fapswitch 2.2
_symmetry_space_group_name_H-M    P1
_symmetry_Int_Tables_number       1
_space_group_crystal_system       triclinic
_cell_length_a                    9.522741
_cell_length_b                    10.832889
_cell_length_c                    13.585671
_cell_angle_alpha                 90.39494
_cell_angle_beta                  73.335096
_cell_angle_gamma                 89.634979
_cell_volume                      1342.53404442

loop_
_atom_site_label
_atom_site_type_symbol
_atom_type_description
_atom_site_fract_x
_atom_site_fract_y
_atom_site_fract_z
_atom_type_partial_charge
C1    C     C_R   0.499729 0.737966 0.499516 0.823327
C2    C     C_R   0.443706 0.533114 0.977374 0.120825
C3    C     C_R   0.490460 0.535619 0.868297 0.006793
C4    C     C_R   0.550028 0.510496 0.031161 0.051072
C5    C     C_R   0.697883 0.484739 0.975280 -0.040154
C6    C     C_R   0.743509 0.504860 0.870374 -0.151566
C7    C     C_R   0.643047 0.539022 0.819968 -0.172641
C8    C     C_R   0.515111 0.513617 0.138419 -0.338256
C9    C     C_R   0.762800 0.451821 0.132660 0.519006
C10   C     C_R   0.383644 0.536895 0.812185 -0.262079
C11   C     C_R   0.614887 0.935557 0.520340 -0.261636
C12   C     C_R   0.423553 0.511752 0.699433 0.838543
C13   C     C_R   0.615485 0.063285 0.520698 -0.181942
C14   C     C_R   0.500503 0.128516 0.499379 -0.103461
C15   C     C_R   0.384808 0.065366 0.477781 -0.260829
C16   C     C_R   0.383672 0.937699 0.477410 0.641501
C17   C     C_R   0.499011 0.871986 0.498986 -0.141949
C18   C     C_R   0.902586 0.585861 0.555318 -0.248891
C19   C     C_R   0.050246 0.584364 0.557063 0.785433
C20   C     C_R   0.099625 0.416903 0.441420 -0.266857
C21   C     C_R   0.948774 0.414473 0.442311 0.624217
C22   C     C_R   0.500318 0.262188 0.499862 0.820638
C23   C     C_R   0.577593 0.496316 0.300891 0.871957
C24   C     C_R   0.800299 0.446395 0.025877 0.373380
C25   C     C_R   0.620898 0.488313 0.188934 -0.242802
C26   C     C_R   0.236096 0.560517 0.866075 0.639935
C27   C     C_R   0.193452 0.572790 0.972373 -0.134007
C28   C     C_R   0.293356 0.553812 0.027858 -0.278534
Cu1   Cu    Cu3+1 0.359340 0.499980 0.500000 1.049238
Cu2   Cu    Cu3+1 0.640660 0.500020 0.500000 1.008699
H1    H     H_    0.704920 0.110765 0.538664 0.170768
H2    H     H_    0.295522 0.114593 0.460380 0.166957
H3    H     H_    0.829190 0.656811 0.597676 0.164133
H4    H     H_    0.178770 0.353788 0.393375 0.165673
H5    H     H_    0.858448 0.500112 0.827370 0.237045
H6    H     H_    0.407138 0.539655 0.184694 0.198893
H7    H     H_    0.248506 0.556877 0.110117 0.180410
H8    H     H_    0.080278 0.593698 0.012952 0.205852
H9    H     H_    0.690474 0.573836 0.744577 0.181084
H10   H     H_    0.704446 0.886777 0.537716 0.188359
N1    N     N_R   0.147940 0.499970 0.499970 -0.236341
N2    N     N_R   0.852060 0.500060 0.499990 -0.232597
O1    O     O_R   0.381250 0.680340 0.500010 -0.472668
O2    O     O_R   0.618820 0.680370 0.500010 -0.614525
O3    O     O_R   0.323240 0.499950 0.650980 -0.488203
O4    O     O_R   0.560810 0.499980 0.650980 -0.620256
O5    O     O_R   0.381180 0.319630 0.499990 -0.606541
O6    O     O_R   0.618750 0.319660 0.499990 -0.548750
O7    O     O_R   0.439190 0.500020 0.349020 -0.606351
O8    O     O_R   0.676760 0.500050 0.349020 -0.488713
F1    F     F_    0.865022 0.420539 0.180408 -0.621316
F2    F     F_    0.270965 0.879436 0.454514 -0.642973
F3    F     F_    0.095017 0.668873 0.615337 -0.593845
O9    O     O_3   0.897994 0.335000 0.379582 -0.497678
C29   C     C_3   0.962296 0.216273 0.372635 -0.273180
H11   H     H_    0.890578 0.150182 0.347616 0.200555
H12   H     H_    0.972531 0.183702 0.447920 0.126894
H13   H     H_    0.070228 0.214241 0.313132 0.167967
O10   O     O_3   0.939968 0.409104 0.971030 -0.552783
C30   C     C_3   0.939167 0.280557 0.954674 -0.236424
H14   H     H_    0.863545 0.255376 0.908766 0.143785
H15   H     H_    0.909817 0.229892 0.028718 0.178903
H16   H     H_    0.051179 0.250592 0.910300 0.190554
F4    F     F_    0.132267 0.573626 0.816174 -0.623652

loop_
_geom_bond_atom_site_label_1
_geom_bond_atom_site_label_2
_ccdc_geom_bond_type
C22   O6    A    
C29   H11   S    
C9    C24   A    
C6    C7    A    
C26   F4    S    
C2    C28   A    
C1    O2    A    
C1    C17   S    
C9    F1    S    
Cu2   O4    S    
C4    C8    A    
C20   H4    S    
C19   F3    S    
C11   H10   S    
C18   N2    A    
C22   O5    A    
Cu2   O8    S    
C9    C25   A    
C15   H2    S    
C3    C10   A    
Cu1   O7    S    
C13   C14   A    
Cu1   O1    S    
C8    C25   A    
C11   C13   A    
C14   C22   S    
C26   C27   A    
Cu1   Cu2   S    
C5    C24   A    
C10   C12   S    
C28   H7    S    
Cu1   O5    S    
C24   O10   S    
C5    C6    A    
C2    C4    A    
C12   O4    A    
C13   H1    S    
C20   N1    A    
C3    C7    A    
Cu2   O2    S    
C29   H12   S    
C21   O9    S    
C18   H3    S    
C30   H16   S    
C23   O7    A    
C27   H8    S    
C15   C16   A    
C19   N1    A    
O10   C30   S    
C23   C25   S    
C6    H5    S    
C30   H15   S    
C18   C19   A    
C8    H6    S    
C29   H13   S    
Cu2   O6    S    
C27   C28   A    
C7    H9    S    
O9    C29   S    
C16   C17   A    
C23   O8    A    
C2    C3    A    
C21   N2    A    
C30   H14   S    
Cu1   N1    S    
C20   C21   A    
C14   C15   A    
C4    C5    A    
Cu2   N2    S    
C1    O1    A    
C10   C26   A    
C11   C17   A    
C16   F2    S    
Cu1   O3    S    
C12   O3    A    
