data_mof_unit_19614.cif
_audit_creation_date              2012-12-10T16:58:27-0500
_audit_creation_method            fapswitch 2.2
_symmetry_space_group_name_H-M    P1
_symmetry_Int_Tables_number       1
_space_group_crystal_system       triclinic
_cell_length_a                    15.863324
_cell_length_b                    10.981168
_cell_length_c                    9.765588
_cell_angle_alpha                 88.985058
_cell_angle_beta                  90.916686
_cell_angle_gamma                 90.98096
_cell_volume                      1700.41841658

loop_
_atom_site_label
_atom_site_type_symbol
_atom_type_description
_atom_site_fract_x
_atom_site_fract_y
_atom_site_fract_z
_atom_type_partial_charge
C1    C     C_R   0.503862 0.266372 0.501403 0.775048
C2    C     C_3   0.083080 0.500363 0.497880 -0.085298
C3    C     C_3   0.973888 0.598987 0.566618 -0.198002
C4    C     C_3   0.916725 0.500200 0.501300 -0.076967
C5    C     C_3   0.027707 0.601241 0.435838 0.332123
C6    C     C_3   0.969713 0.503599 0.371309 0.325195
C7    C     C_1   0.174781 0.500431 0.497013 0.129139
C8    C     C_1   0.825114 0.500105 0.503028 0.120039
C9    C     C_2   0.500101 0.941063 0.389447 0.468056
C10   C     C_2   0.486605 0.865253 0.497082 -0.342038
C11   C     C_2   0.484377 0.069805 0.405537 -0.333970
C12   C     C_R   0.340033 0.499967 0.499066 0.780794
C13   C     C_2   0.520158 0.137351 0.504565 0.244425
C14   C     C_2   0.433068 0.488190 0.923894 0.012154
C15   C     C_2   0.432833 0.511986 0.075624 0.037186
C16   C     C_R   0.498123 0.734356 0.498497 0.871681
C17   C     C_R   0.659943 0.500107 0.500942 0.854041
C18   C     C_3   0.971502 0.398062 0.564030 -0.206562
C19   C     C_3   0.025272 0.403046 0.433463 0.348909
C20   C     C_1   0.250324 0.500239 0.497241 -0.093330
C21   C     C_1   0.749597 0.500086 0.502863 -0.049484
C22   C     C_3   0.030185 0.496901 0.629084 -0.226132
Cu1   Cu    Cu3+1 0.500020 0.500020 0.638630 1.118262
Cu2   Cu    Cu3+1 0.499980 0.499980 0.361370 1.087776
H1    H     H_    0.373268 0.462307 0.876768 0.119823
H2    H     H_    0.374423 0.539902 0.120755 0.160650
H3    H     H_    0.545059 0.445060 0.114238 0.263691
H4    H     H_    0.947457 0.314099 0.616164 0.211667
H5    H     H_    0.951734 0.679991 0.621187 0.207717
H6    H     H_    0.056128 0.494186 0.735326 0.201826
H7    H     H_    0.463921 0.902380 0.591738 0.180540
H8    H     H_    0.443816 0.112185 0.328178 0.185565
N1    N     N_2   0.499090 0.498660 0.846910 -0.016452
N2    N     N_2   0.499070 0.498630 0.153040 -0.221575
O1    O     O_R   0.500010 0.321960 0.617040 -0.542694
O2    O     O_R   0.499990 0.321920 0.382900 -0.598873
O3    O     O_R   0.379090 0.500010 0.617050 -0.610710
O4    O     O_R   0.379060 0.499970 0.382910 -0.585775
O5    O     O_R   0.500010 0.678080 0.617100 -0.522454
O6    O     O_R   0.499990 0.678040 0.382960 -0.510995
O7    O     O_R   0.620940 0.500030 0.617090 -0.503122
O8    O     O_R   0.620910 0.499990 0.382950 -0.546018
S1    S     S_3+6 0.060657 0.271873 0.347729 0.079925
O9    O     O_2   0.111658 0.311091 0.225833 -0.237115
O10   O     O_2   0.114330 0.197505 0.444632 -0.264125
O11   O     O_3   0.976762 0.188110 0.296057 -0.450528
H9    H     H_    0.000849 0.117897 0.248876 0.401293
S2    S     S_3+6 0.597857 0.084373 0.624104 0.038427
O12   O     O_2   0.555170 0.032012 0.748730 -0.282232
O13   O     O_2   0.651329 0.988874 0.561677 -0.245648
O14   O     O_3   0.660334 0.202045 0.671691 -0.512037
H10   H     H_    0.699132 0.167655 0.742242 0.392913
S3    S     S_3+6 0.585717 0.588740 0.903111 0.165919
O15   O     O_2   0.560763 0.678231 0.008665 -0.201571
O16   O     O_2   0.653106 0.507207 0.961206 -0.261445
O17   O     O_3   0.629312 0.673588 0.777222 -0.456830
H11   H     H_    0.679993 0.712417 0.819379 0.378571
S4    S     S_3+6 0.927827 0.509902 0.200688 0.109162
O18   O     O_2   0.873139 0.399149 0.175940 -0.215708
O19   O     O_2   0.876054 0.622520 0.182375 -0.221006
O20   O     O_3   0.007529 0.514233 0.089235 -0.464048
H12   H     H_    0.979868 0.515425 0.997550 0.371136
Cl1   Cl    Cl    0.065887 0.736005 0.351721 -0.462415
S5    S     S_3+6 0.532624 0.897611 0.225526 0.101035
O21   O     O_2   0.609907 0.820615 0.238638 -0.201349
O22   O     O_2   0.461940 0.827163 0.157726 -0.248148
O23   O     O_3   0.555172 0.022400 0.129725 -0.492035
H13   H     H_    0.573879 0.990730 0.041065 0.412001

loop_
_geom_bond_atom_site_label_1
_geom_bond_atom_site_label_2
_ccdc_geom_bond_type
C2    C22   S    
C13   S2    S    
Cu2   O4    S    
Cu1   Cu2   S    
Cu1   O3    S    
C9    S5    S    
S1    O10   D    
C9    C10   D    
C6    S4    S    
C15   N2    D    
C2    C7    S    
Cu1   O7    S    
C4    C8    S    
C4    C18   S    
S5    O21   D    
C12   C20   S    
S4    O20   S    
S2    O13   D    
C8    C21   T    
S4    O18   D    
H3    N2    S    
S5    O22   D    
C10   C16   S    
S3    O15   D    
C12   O4    A    
C6    C19   S    
C11   C13   D    
C5    Cl1   S    
Cu2   O8    S    
Cu2   O2    S    
C14   N1    D    
O23   H13   S    
Cu1   O5    S    
C5    C6    S    
S2    O12   D    
Cu2   O6    S    
C16   O6    A    
C11   H8    S    
C7    C20   T    
Cu1   O1    S    
C9    C11   S    
C14   H1    S    
N1    S3    S    
S1    O9    D    
S1    O11   S    
C17   O7    A    
C2    C5    S    
C1    C13   S    
O20   H12   S    
C16   O5    A    
S4    O19   D    
O14   H10   S    
S5    O23   S    
C3    C5    S    
C18   H4    S    
O17   H11   S    
C1    O1    A    
C4    C6    S    
C18   C19   S    
O11   H9    S    
S3    O17   S    
C12   O3    A    
C3    H5    S    
C17   O8    A    
C3    C22   S    
C22   H6    S    
Cu1   N1    S    
C2    C19   S    
C18   C22   S    
S3    O16   D    
C10   H7    S    
S2    O14   S    
C17   C21   S    
C3    C4    S    
C14   C15   S    
C1    O2    A    
C19   S1    S    
C15   H2    S    
Cu2   N2    S    
