data_mof_unit_11547.cif
_audit_creation_date              2012-12-10T17:02:20-0500
_audit_creation_method            fapswitch 2.2
_symmetry_space_group_name_H-M    P1
_symmetry_Int_Tables_number       1
_space_group_crystal_system       triclinic
_cell_length_a                    10.649771
_cell_length_b                    10.701245
_cell_length_c                    10.029609
_cell_angle_alpha                 86.93715
_cell_angle_beta                  91.413205
_cell_angle_gamma                 91.587671
_cell_volume                      1140.65378367

loop_
_atom_site_label
_atom_site_type_symbol
_atom_type_description
_atom_site_fract_x
_atom_site_fract_y
_atom_site_fract_z
_atom_type_partial_charge
C1    C     C_R   0.493108 0.261588 0.503780 0.866487
C2    C     C_2   0.465111 0.128839 0.515366 -0.230778
C3    C     C_2   0.489012 0.598873 0.920253 -0.100757
C4    C     C_R   0.259233 0.491055 0.498960 0.873646
C5    C     C_2   0.518829 0.599388 0.067564 -0.070706
C6    C     C_R   0.505420 0.737182 0.496346 0.957897
C7    C     C_R   0.739722 0.516040 0.500989 0.903372
C8    C     C_R   0.101861 0.386495 0.727293 -0.089263
C9    C     C_R   0.053537 0.405302 0.854931 -0.038201
C10   C     C_R   0.965285 0.498782 0.866524 -0.281611
C11   C     C_R   0.906978 0.555687 0.752138 -0.113215
C12   C     C_R   0.057988 0.461642 0.616035 0.032295
C13   C     C_R   0.944192 0.520447 0.624831 0.051529
C14   C     C_2   0.451025 0.070168 0.653698 0.469156
C15   C     C_2   0.574175 0.716164 0.117719 1.031101
C16   C     C_2   0.181883 0.279336 0.703136 0.959477
C17   C     C_2   0.091182 0.330310 0.977448 0.946183
C18   C     C_2   0.825669 0.665652 0.765639 1.009241
C19   C     C_R   0.124031 0.484772 0.496214 -0.080327
C20   C     C_R   0.061834 0.529956 0.379748 -0.177511
C21   C     C_R   0.934982 0.548934 0.382014 -0.143782
C22   C     C_R   0.874051 0.538580 0.504146 -0.086094
C23   C     C_2   0.441739 0.933094 0.401743 -0.127023
C24   C     C_2   0.518193 0.868903 0.485198 -0.201772
C25   C     C_2   0.443645 0.068095 0.402537 -0.154734
H1    H     H_    0.110547 0.549818 0.287249 0.213912
H2    H     H_    0.503640 0.108554 0.736786 0.113515
H3    H     H_    0.574326 0.904852 0.110886 0.347349
H4    H     H_    0.209994 0.134935 0.586226 0.373070
H5    H     H_    0.131630 0.327975 0.175094 0.353093
H6    H     H_    0.757435 0.606855 0.945802 0.285806
H7    H     H_    0.469995 0.687342 0.866839 0.232385
H8    H     H_    0.531759 0.421571 0.903584 0.172437
H9    H     H_    0.458032 0.424778 0.106738 0.181623
H10   H     H_    0.940152 0.523669 0.965312 0.179895
H11   H     H_    0.884775 0.570609 0.288723 0.202107
H12   H     H_    0.378563 0.886725 0.332072 0.180575
H13   H     H_    0.586720 0.913247 0.550605 0.162034
H14   H     H_    0.436336 0.118089 0.305607 0.184308
N1    N     N_2   0.501340 0.501330 0.852150 -0.199905
N2    N     N_2   0.501380 0.501360 0.147810 -0.231127
O1    O     O_R   0.499980 0.319060 0.613040 -0.612163
O2    O     O_2   0.664822 0.712147 0.194842 -0.608438
O3    O     O_R   0.527612 0.831558 0.070626 -0.797023
O4    O     O_2   0.270304 0.252740 0.778361 -0.594482
O5    O     O_R   0.154859 0.209659 0.591427 -0.804957
O6    O     O_2   0.103676 0.217274 0.974420 -0.569901
O7    O     O_R   0.107128 0.388600 0.098293 -0.829104
O8    O     O_2   0.818407 0.745534 0.674337 -0.590648
O9    O     O_R   0.759736 0.682865 0.881587 -0.768803
O10   O     O_R   0.500020 0.319100 0.386900 -0.607901
O11   O     O_R   0.316750 0.499980 0.613090 -0.605493
O12   O     O_R   0.316790 0.500020 0.386950 -0.615743
O13   O     O_R   0.499980 0.680900 0.613100 -0.588772
O14   O     O_R   0.500020 0.680940 0.386960 -0.612848
O15   O     O_R   0.683210 0.499980 0.613050 -0.634832
O16   O     O_R   0.683250 0.500020 0.386910 -0.583672
O17   O     O_2   0.377172 0.982760 0.676915 -0.530710
Zn1   Zn    Zn3+2 0.499970 0.499970 0.650990 1.004045
Zn2   Zn    Zn3+2 0.500030 0.500030 0.349010 0.995760

loop_
_geom_bond_atom_site_label_1
_geom_bond_atom_site_label_2
_ccdc_geom_bond_type
O1    Zn1   S    
C13   C22   A    
C24   H13   S    
C23   C24   D    
C17   O7    S    
C11   C18   S    
C10   H10   S    
O11   Zn1   S    
C14   H2    S    
C7    C22   S    
C11   C13   A    
C9    C10   A    
H4    O5    S    
C19   C20   A    
O15   Zn1   S    
C6    O14   A    
C8    C12   A    
C6    C24   S    
C18   O8    D    
C2    C14   S    
C15   O2    D    
C8    C16   S    
C21   H11   S    
C23   H12   S    
C21   C22   A    
C20   C21   A    
C1    O10   A    
H9    N2    S    
C20   H1    S    
C7    O15   A    
C6    O13   A    
C14   O17   D    
C12   C19   A    
C9    C17   S    
O12   Zn2   S    
C4    O11   A    
C3    N1    D    
C2    C25   D    
O13   Zn1   S    
C23   C25   S    
C3    H7    S    
C4    O12   A    
C7    O16   A    
C5    C15   S    
H8    N1    S    
C10   C11   A    
C16   O4    D    
C16   O5    S    
C1    O1    A    
C12   C13   A    
C18   O9    S    
C1    C2    S    
H5    O7    S    
N1    Zn1   S    
C15   O3    S    
O16   Zn2   S    
C5    N2    D    
O10   Zn2   S    
H6    O9    S    
O14   Zn2   S    
C4    C19   S    
H3    O3    S    
C25   H14   S    
C17   O6    D    
N2    Zn2   S    
C8    C9    A    
C3    C5    S    
