data_mof_unit_15432.cif
_audit_creation_date              2012-12-11T17:05:31-0500
_audit_creation_method            fapswitch 2.2
_symmetry_space_group_name_H-M    P1
_symmetry_Int_Tables_number       1
_space_group_crystal_system       triclinic
_cell_length_a                    6.966059
_cell_length_b                    14.514257
_cell_length_c                    16.020657
_cell_angle_alpha                 90.187963
_cell_angle_beta                  89.978022
_cell_angle_gamma                 90.028781
_cell_volume                      1619.79426168

loop_
_atom_site_label
_atom_site_type_symbol
_atom_type_description
_atom_site_fract_x
_atom_site_fract_y
_atom_site_fract_z
_atom_type_partial_charge
O1    O     O_R   0.494380 0.415640 0.412830 -0.542133
O2    O     O_R   0.823960 0.405540 0.586560 -0.512382
O3    O     O_R   0.994270 0.584360 0.587170 -0.541253
C1    C     C_R   0.655223 0.383821 0.615424 0.757312
O4    O     O_R   0.824090 0.404620 0.413450 -0.535641
O5    O     O_R   0.994400 0.583430 0.412820 -0.548781
C2    C     C_R   0.655287 0.382421 0.384582 0.700058
O6    O     O_R   0.494250 0.416570 0.587180 -0.521252
O7    O     O_3   0.660800 0.558670 0.500000 -0.380639
V1    V     V_3+5 0.935650 0.489120 0.500000 1.567087
O8    O     O_R   0.324110 0.594460 0.413440 -0.522563
C3    C     C_R   0.155185 0.616619 0.384789 0.742071
O9    O     O_R   0.323980 0.595380 0.586550 -0.545082
C4    C     C_R   0.155226 0.617859 0.615189 0.794909
V2    V     V_3+5 0.435660 0.510880 0.500000 1.554388
O10   O     O_3   0.160640 0.441330 0.500000 -0.358867
C5    C     C_3   0.056892 0.643855 0.765054 -0.342457
H1    H     H_    0.909590 0.618334 0.751141 0.225282
H2    H     H_    0.143885 0.583072 0.783853 0.173347
C6    C     C_3   0.049427 0.714179 0.838434 0.366280
H3    H     H_    0.142407 0.688959 0.890006 0.066562
H4    H     H_    0.871896 0.746795 0.642144 0.171281
C7    C     C_3   0.017401 0.771379 0.660356 -0.398983
C8    C     C_3   0.346900 0.725853 0.708524 -0.373268
C9    C     C_3   0.144717 0.688163 0.685601 -0.223627
H5    H     H_    0.414630 0.757616 0.652623 0.226425
C10   C     C_3   0.122160 0.810636 0.809811 -0.311336
C11   C     C_3   0.999699 0.842097 0.733260 1.193572
C12   C     C_3   0.334189 0.797766 0.779716 0.443290
H6    H     H_    0.424259 0.773621 0.832712 0.127328
H7    H     H_    0.080096 0.805397 0.604466 0.170511
C13   C     C_R   0.277507 0.752643 0.189072 0.014517
C14   C     C_R   0.118519 0.810744 0.179564 -0.064830
C15   C     C_R   0.965757 0.799979 0.236257 -0.142838
C16   C     C_R   0.977776 0.736641 0.302545 -0.161011
H8    H     H_    0.862771 0.733344 0.347520 0.196910
C17   C     C_R   0.142911 0.682583 0.314483 -0.056277
C18   C     C_R   0.289782 0.690491 0.255324 0.060096
C19   C     C_3   0.495744 0.712851 0.269470 0.466491
C20   C     C_3   0.483539 0.778628 0.196311 -0.441643
H9    H     H_    0.593032 0.653150 0.259538 0.056670
H10   H     H_    0.568290 0.755507 0.141300 0.144241
C21   C     C_R   0.515252 0.241102 0.679906 -0.110182
C22   C     C_R   0.647742 0.313791 0.682287 -0.181383
C23   C     C_R   0.781037 0.314768 0.748715 0.682887
C24   C     C_R   0.771626 0.248192 0.812611 -0.257586
H11   H     H_    0.872907 0.252191 0.863786 0.164781
C25   C     C_R   0.624250 0.181516 0.813677 -0.146508
C26   C     C_R   0.502448 0.177437 0.744333 0.062838
C27   C     C_3   0.289022 0.171987 0.738419 -0.389522
C28   C     C_3   0.303080 0.241067 0.667326 0.534919
H12   H     H_    0.215929 0.199496 0.794965 0.197639
H13   H     H_    0.258644 0.213454 0.605498 0.042091
C29   C     C_R   0.492011 0.315651 0.257854 -0.060974
C30   C     C_R   0.646976 0.316377 0.313704 -0.131986
C31   C     C_R   0.796751 0.253277 0.298781 -0.072590
H14   H     H_    0.918414 0.250631 0.340532 0.132027
C32   C     C_R   0.784545 0.188362 0.233367 -0.070496
H15   H     H_    0.895832 0.137220 0.226868 0.195786
C33   C     C_R   0.623677 0.184884 0.180347 -0.107519
C34   C     C_R   0.480461 0.251106 0.192892 -0.037986
C35   C     C_3   0.272204 0.235979 0.208340 1.001729
C36   C     C_3   0.283522 0.307548 0.277339 0.396096
H16   H     H_    0.254584 0.280897 0.341091 0.020291
O11   O     O_R   0.771490 0.080820 0.910070 -0.540089
O12   O     O_R   0.441590 0.092730 0.083780 -0.515128
O13   O     O_R   0.271350 0.913900 0.084390 -0.545756
C37   C     C_R   0.610506 0.114647 0.112933 0.716883
O14   O     O_R   0.441780 0.091820 0.910670 -0.540165
O15   O     O_R   0.271540 0.912980 0.910040 -0.536384
C38   C     C_R   0.610862 0.113986 0.882256 0.788015
O16   O     O_R   0.771300 0.081740 0.084420 -0.544571
O17   O     O_3   0.604960 0.938700 0.997240 -0.372550
V3    V     V_3+5 0.330090 0.008230 0.997220 1.590836
O18   O     O_R   0.941820 0.901930 0.910640 -0.483888
C39   C     C_R   0.110818 0.880200 0.881266 0.803521
O19   O     O_R   0.941630 0.902840 0.083750 -0.556005
C40   C     C_R   0.110326 0.880953 0.112626 0.692390
V4    V     V_3+5 0.830090 0.986410 0.997190 1.598631
O20   O     O_3   0.105080 0.055990 0.997200 -0.366443
F1    F     F_    0.410041 0.880878 0.752627 -0.577643
F2    F     F_    0.060413 0.927942 0.706192 -0.665762
H17   H     H_    0.842068 0.844540 0.232306 0.143798
F3    F     F_    0.521476 0.758804 0.344586 -0.679886
H18   H     H_    0.503073 0.852238 0.213906 0.200744
F4    F     F_    0.909176 0.384730 0.755951 -0.635497
H19   H     H_    0.239584 0.102835 0.717615 0.206481
F5    F     F_    0.222872 0.325321 0.687345 -0.613672
F6    F     F_    0.235233 0.148019 0.237391 -0.755221
F7    F     F_    0.159166 0.261415 0.141212 -0.637499
F8    F     F_    0.186179 0.387942 0.258339 -0.647289
F9    F     F_    0.863644 0.719369 0.869234 -0.632009
F10   F     F_    0.808299 0.849963 0.755742 -0.606424
H20   H     H_    0.441491 0.668188 0.728535 0.152467

loop_
_geom_bond_atom_site_label_1
_geom_bond_atom_site_label_2
_ccdc_geom_bond_type
O12   C37   A    
C30   C31   A    
O11   V4    S    
C10   C12   S    
O17   V3    S    
C16   H8    S    
C2    C30   S    
C1    O6    A    
C19   H9    S    
O19   C40   A    
C6    F9    S    
C17   C18   A    
C16   C17   A    
C8    H5    S    
C19   F3    S    
O16   V4    S    
O5    C3    A    
C18   C19   S    
C14   C40   S    
C29   C36   S    
C32   C33   A    
V2    O10   S    
O12   V3    S    
C35   F6    S    
C5    C6    S    
C31   H14   S    
C15   C16   A    
C3    C17   S    
O14   C38   A    
C8    C12   S    
C29   C30   A    
O8    V2    S    
C31   C32   A    
O15   V3    S    
C27   H12   S    
O1    V2    S    
C13   C18   A    
O7    V1    S    
C20   H10   S    
V3    O20   S    
O9    C4    A    
O13   C40   A    
C27   C28   S    
O19   V4    S    
C24   C25   A    
C11   F2    S    
C8    C9    S    
C19   C20   S    
O4    C2    A    
C21   C26   A    
C1    C22   S    
C32   H15   S    
O11   C38   A    
V4    O20   S    
C11   F10   S    
C28   H13   S    
C7    H7    S    
C20   H18   S    
O2    C1    A    
O18   C39   A    
C12   F1    S    
C12   H6    S    
C8    H20   S    
C37   O16   A    
C35   C36   S    
C5    H1    S    
O17   V4    S    
O14   V3    S    
O13   V3    S    
C7    C11   S    
O3    C4    A    
C27   H19   S    
C25   C26   A    
C29   C34   A    
O6    V2    S    
O9    V2    S    
C21   C22   A    
O15   C39   A    
C15   H17   S    
C25   C38   S    
C10   C39   S    
O2    V1    S    
C22   C23   A    
C24   H11   S    
O1    C2    A    
C28   F5    S    
O5    V1    S    
O8    C3    A    
C6    C10   S    
C5    C9    S    
C13   C14   A    
C23   F4    S    
O7    V2    S    
O4    V1    S    
O3    V1    S    
V1    O10   S    
C21   C28   S    
C35   F7    S    
C5    H2    S    
C14   C15   A    
C13   C20   S    
C4    C9    S    
C34   C35   S    
C36   H16   S    
C23   C24   A    
C7    C9    S    
C6    H3    S    
C33   C37   S    
C26   C27   S    
C36   F8    S    
C10   C11   S    
H4    C7    S    
C33   C34   A    
O18   V4    S    
