data_mof_unit_64895.cif
_audit_creation_date              2012-10-26T18:18:27-0400
_audit_creation_method            fapswitch 2.2
_symmetry_space_group_name_H-M    P1
_symmetry_Int_Tables_number       1
_space_group_crystal_system       triclinic
_cell_length_a                    18.928523
_cell_length_b                    18.751272
_cell_length_c                    18.854788
_cell_angle_alpha                 109.292034
_cell_angle_beta                  109.195854
_cell_angle_gamma                 109.443538
_cell_volume                      5182.0748815

loop_
_atom_site_label
_atom_site_type_symbol
_atom_type_description
_atom_site_fract_x
_atom_site_fract_y
_atom_site_fract_z
_atom_type_partial_charge
C1    C     C_R   0.880673 0.381064 0.999372 0.549386
C2    C     C_R   0.187828 0.502687 0.182265 0.006391
C3    C     C_R   0.254590 0.492980 0.169333 0.120715
C4    C     C_R   0.882639 0.500242 0.881520 0.542813
C5    C     C_R   0.318322 0.489686 0.232105 0.225677
C6    C     C_R   0.314974 0.497026 0.308623 -0.010666
C7    C     C_R   0.248224 0.506169 0.317241 0.006165
C8    C     C_3   0.211412 0.519961 0.376372 0.203275
C9    C     C_3   0.141695 0.522389 0.307027 -0.193161
C10   C     C_R   0.205363 0.770346 0.034562 -0.037018
C11   C     C_R   0.187963 0.684700 0.002083 -0.050408
C12   C     C_R   0.814735 0.313086 0.998897 -0.028713
C13   C     C_R   0.239358 0.663271 0.968722 -0.077757
C14   C     C_R   0.305072 0.726315 0.967913 0.212132
C15   C     C_R   0.317439 0.812277 0.998456 -0.006184
C16   C     C_R   0.119401 0.618796 0.000678 0.556873
C17   C     C_R   0.265920 0.830422 0.030672 -0.052825
C18   C     C_3   0.250041 0.902589 0.071621 0.375244
C19   C     C_3   0.180392 0.833743 0.076914 0.232357
C20   C     C_R   0.497355 0.381292 0.379003 0.543625
C21   C     C_R   0.613947 0.504973 0.620231 0.530958
C22   C     C_R   0.496660 0.618474 0.615371 0.530843
C23   C     C_R   0.755693 0.232451 0.922730 -0.096662
C24   C     C_R   0.379433 0.499000 0.377692 0.519430
C25   C     C_R   0.499488 0.880299 0.881924 0.528453
C26   C     C_R   0.618339 0.118133 0.999218 0.540774
C27   C     C_R   0.497489 0.117299 0.118037 0.575115
C28   C     C_R   0.119184 0.501216 0.117658 0.573764
C29   C     C_R   0.382039 0.880605 0.999433 0.551609
C30   C     C_R   0.557869 0.291312 0.331557 -0.021593
C31   C     C_R   0.493713 0.313517 0.310724 0.002978
C32   C     C_R   0.419986 0.259636 0.227123 0.220444
C33   C     C_R   0.419314 0.192730 0.163701 0.148008
C34   C     C_R   0.689976 0.167505 0.921006 0.068141
C35   C     C_R   0.491257 0.179154 0.183928 0.014085
C36   C     C_R   0.556556 0.225373 0.269791 -0.057142
C37   C     C_3   0.652310 0.271539 0.308508 -0.235315
C38   C     C_3   0.654042 0.345116 0.376718 0.115162
C39   C     C_R   0.570950 0.759051 0.749484 0.023435
C40   C     C_2   0.761564 0.565175 0.732426 -0.040181
C41   C     C_R   0.495886 0.683942 0.681708 -0.029472
C42   C     C_R   0.418114 0.672018 0.681248 -0.089788
C43   C     C_R   0.417214 0.736135 0.745773 0.072729
C44   C     C_R   0.496266 0.811503 0.814932 0.014698
C45   C     C_R   0.684850 0.182667 0.997382 0.041967
C46   C     C_R   0.571265 0.818554 0.814239 0.040385
C47   C     C_3   0.666612 0.875046 0.861973 0.153199
C48   C     C_3   0.666565 0.806389 0.788828 0.121232
C49   C     C_2   0.676617 0.517494 0.701109 0.265587
C50   C     C_2   0.825482 0.570868 0.808265 0.147599
C51   C     C_2   0.816608 0.497418 0.811052 0.317883
C52   C     C_R   0.813358 0.322864 0.074930 0.014626
C53   C     C_R   0.750312 0.258560 0.074398 -0.037677
C54   C     C_3   0.747993 0.321773 0.146253 -0.034471
C55   C     C_3   0.817173 0.393897 0.145816 0.380015
C56   C     C_R   0.188364 0.510069 0.257810 -0.086490
Cu1   Cu    Cu3+1 0.999590 0.561790 0.061400 1.032614
Cu2   Cu    Cu3+1 0.000410 0.438210 0.938600 0.981910
Cu3   Cu    Cu3+1 0.558560 0.561730 0.496790 0.998676
Cu4   Cu    Cu3+1 0.434970 0.438120 0.496790 1.003428
Cu5   Cu    Cu3+1 0.438600 0.999980 0.938570 0.979414
Cu6   Cu    Cu3+1 0.561400 0.999920 0.061330 0.997996
H1    H     H_    0.785513 0.599767 0.701899 0.085173
H2    H     H_    0.698190 0.770408 0.808740 0.134498
H3    H     H_    0.758080 0.221198 0.863577 0.163918
H4    H     H_    0.770439 0.316456 0.205769 0.125997
H5    H     H_    0.914582 0.402889 0.235834 0.298632
H6    H     H_    0.317679 0.538631 0.112239 0.262665
H7    H     H_    0.256008 0.428995 0.060353 0.271519
H8    H     H_    0.411410 0.461914 0.254696 0.340092
H9    H     H_    0.139084 0.388361 0.330539 0.222233
H10   H     H_    0.139900 0.453676 0.417332 0.248339
H11   H     H_    0.323721 0.600352 0.491282 0.243883
H12   H     H_    0.075957 0.465688 0.273323 0.134580
H13   H     H_    0.290236 0.653541 0.444766 0.223762
H14   H     H_    0.399060 0.750411 0.941417 0.332446
H15   H     H_    0.357767 0.951386 0.178603 0.317516
H16   H     H_    0.585587 0.456494 0.721556 0.345027
H17   H     H_    0.184124 0.962246 0.032408 0.230500
H18   H     H_    0.177028 0.882784 0.949418 0.202425
H19   H     H_    0.151567 0.803441 0.162873 0.265809
H20   H     H_    0.257135 0.850811 0.195814 0.218994
H21   H     H_    0.075897 0.790938 0.960112 0.202706
H22   H     H_    0.082905 0.863094 0.048227 0.247945
H23   H     H_    0.144749 0.586631 0.327169 0.162795
H24   H     H_    0.358421 0.322313 0.251206 0.330311
H25   H     H_    0.291346 0.112335 0.083028 0.281103
H26   H     H_    0.339634 0.181206 0.053090 0.255211
H27   H     H_    0.650543 0.409735 0.313112 0.331152
H28   H     H_    0.894815 0.702660 0.862642 0.224668
H29   H     H_    0.952599 0.651527 0.865246 0.214810
H30   H     H_    0.338714 0.728766 0.797940 0.252782
H31   H     H_    0.324176 0.769665 0.729689 0.259093
H32   H     H_    0.766697 0.912871 0.966253 0.328794
H33   H     H_    0.698160 0.794357 0.699991 0.341286
H34   H     H_    0.229480 0.597725 0.944042 0.177205
H35   H     H_    0.752465 0.370897 0.753707 0.330436
H36   H     H_    0.628008 0.036111 0.851423 0.227510
H37   H     H_    0.568098 0.081913 0.822549 0.260184
H38   H     H_    0.620576 0.262905 0.111159 0.233998
H39   H     H_    0.671920 0.371075 0.169261 0.232565
H40   H     H_    0.779734 0.486380 0.165036 0.253043
H41   H     H_    0.732616 0.411938 0.059807 0.239547
H42   H     H_    0.681494 0.237360 0.335193 0.135440
H43   H     H_    0.673282 0.288740 0.265154 0.131117
H44   H     H_    0.686054 0.355259 0.443047 0.169781
H45   H     H_    0.357881 0.613759 0.630323 0.172718
H46   H     H_    0.688024 0.940355 0.867090 0.145315
N1    N     N_3   0.258477 0.487687 0.093181 -0.579973
N2    N     N_3   0.629115 0.087846 0.841159 -0.609438
N3    N     N_3   0.665113 0.319598 0.118379 -0.641624
N4    N     N_3   0.790449 0.449732 0.118565 -0.507023
N5    N     N_3   0.178680 0.445990 0.390074 -0.561265
N6    N     N_3   0.268985 0.602598 0.457664 -0.580855
N7    N     N_3   0.218312 0.933848 0.013063 -0.544659
N8    N     N_3   0.200965 0.852599 0.165496 -0.548092
N9    N     N_3   0.090713 0.809141 0.024044 -0.583747
N10   N     N_3   0.346232 0.140374 0.078317 -0.536485
N11   N     N_3   0.901118 0.653340 0.873480 -0.608922
N12   N     N_3   0.335793 0.722184 0.739711 -0.597861
O1    O     O_R   0.909480 0.462010 0.051860 -0.459494
O2    O     O_R   0.552410 0.909770 0.962140 -0.469989
O3    O     O_R   0.538310 0.090150 0.948110 -0.514319
O4    O     O_R   0.910180 0.357650 0.948150 -0.526002
O5    O     O_R   0.642020 0.090090 0.051780 -0.513130
O6    O     O_R   0.447590 0.090130 0.037760 -0.467408
O7    O     O_R   0.551300 0.090080 0.141420 -0.516673
O8    O     O_R   0.357980 0.909810 0.948120 -0.491962
O9    O     O_R   0.461690 0.909750 0.051790 -0.511453
O10   O     O_R   0.910060 0.552180 0.962250 -0.476481
O11   O     O_R   0.910760 0.447820 0.858550 -0.528265
O12   O     O_R   0.445180 0.357580 0.407200 -0.504420
O13   O     O_R   0.089820 0.642350 0.051850 -0.501488
O14   O     O_R   0.090520 0.537990 0.948140 -0.515038
O15   O     O_R   0.089240 0.552180 0.141450 -0.517007
O16   O     O_R   0.089940 0.447820 0.037750 -0.481520
O17   O     O_R   0.549550 0.461960 0.407200 -0.476067
O18   O     O_3   0.897305 0.443393 0.222334 -0.664615
O19   O     O_3   0.380654 0.478281 0.215073 -0.683229
O20   O     O_3   0.353716 0.700334 0.936278 -0.685646
O21   O     O_3   0.320285 0.972317 0.152313 -0.636282
O22   O     O_3   0.649033 0.484209 0.748669 -0.656334
O23   O     O_R   0.638540 0.552110 0.586390 -0.527962
O24   O     O_3   0.349201 0.271545 0.203050 -0.697463
O25   O     O_3   0.683254 0.422993 0.373470 -0.662843
O26   O     O_3   0.703602 0.876923 0.940684 -0.683879
O27   O     O_3   0.692027 0.839329 0.739347 -0.697487
O28   O     O_3   0.751934 0.417317 0.739686 -0.675121
O29   O     O_R   0.534170 0.447730 0.586390 -0.510708
O30   O     O_R   0.548350 0.642270 0.586380 -0.508432
O31   O     O_R   0.443970 0.537890 0.586380 -0.511719
O32   O     O_R   0.459360 0.552110 0.407190 -0.508238
O33   O     O_R   0.354990 0.447740 0.407190 -0.490240
O34   O     O_R   0.448700 0.909820 0.858480 -0.534956

loop_
_geom_bond_atom_site_label_1
_geom_bond_atom_site_label_2
_ccdc_geom_bond_type
H32   O26   S    
C22   O30   A    
H36   N2    S    
H17   N7    S    
C55   N4    S    
C28   O15   A    
C41   C42   A    
C54   C55   S    
H40   N4    S    
C35   C36   A    
C16   O14   A    
Cu5   O34   S    
Cu4   O12   S    
C21   C49   S    
H24   O24   S    
C7    C8    S    
C39   C41   A    
C53   C54   S    
Cu2   O14   S    
H27   O25   S    
C12   C23   A    
C30   C38   S    
C40   H1    S    
C51   O28   S    
C36   C37   S    
H16   O22   S    
Cu6   O7    S    
C27   O6    A    
C48   H2    S    
C22   C41   S    
Cu3   O17   S    
C10   C17   A    
C40   C49   D    
C48   O27   S    
H9    N5    S    
C18   C19   S    
H5    O18   S    
Cu4   O33   S    
C24   O32   A    
C26   C45   S    
C9    H23   S    
C22   O31   A    
C27   O7    A    
C29   O9    A    
C47   C48   S    
C8    C9    S    
C5    O19   S    
Cu5   O6    S    
H31   N12   S    
C21   O29   A    
C42   H45   S    
C10   C19   S    
C52   C55   S    
C8    N6    S    
C43   N12   S    
H6    N1    S    
C47   O26   S    
Cu3   O23   S    
C33   N10   S    
C13   C14   A    
Cu6   O9    S    
Cu1   O13   S    
C1    C12   S    
H7    N1    S    
C7    C56   A    
C20   O12   A    
C16   O13   A    
C25   C44   S    
C12   C52   A    
C44   C46   A    
C15   C29   S    
C4    O11   A    
C1    O1    A    
H14   O20   S    
C4    C51   S    
C50   N11   S    
Cu1   O10   S    
H33   O27   S    
C21   O23   A    
H25   N10   S    
C9    C56   S    
H22   N9    S    
C4    O10   A    
C13   H34   S    
Cu2   O16   S    
Cu3   O32   S    
H37   N2    S    
Cu1   O1    S    
H10   N5    S    
H11   N6    S    
H41   N4    S    
Cu4   O31   S    
C20   O17   A    
C38   H44   S    
C43   C44   A    
C38   O25   S    
C37   H43   S    
C37   C38   S    
C37   H42   S    
C11   C16   S    
C31   C32   A    
H18   N7    S    
Cu2   O11   S    
C23   C34   A    
C6    C24   S    
C49   O22   S    
C17   C18   S    
H8    O19   S    
C50   C51   D    
H13   N6    S    
C55   O18   S    
C26   O3    A    
C34   C45   A    
C8    N5    S    
C39   C46   A    
C14   O20   S    
C34   N2    S    
H35   O28   S    
H29   N11   S    
C9    H12   S    
H26   N10   S    
Cu6   O2    S    
C52   C53   A    
C25   O2    A    
Cu3   O30   S    
C15   C17   A    
C46   C47   S    
C25   O34   A    
C28   O16   A    
C18   O21   S    
C24   O33   A    
C3    C5    A    
C18   N7    S    
Cu6   O5    S    
C6    C7    A    
C54   H4    S    
H39   N3    S    
Cu2   O4    S    
C30   C36   A    
Cu5   O3    S    
C27   C35   S    
H28   N11   S    
C23   H3    S    
C2    C3    A    
H30   N12   S    
C1    O4    A    
H20   N8    S    
C2    C56   A    
C32   C33   A    
C11   C13   A    
C30   C31   A    
H21   N9    S    
Cu1   Cu2   S    
C5    C6    A    
C19   N8    S    
C3    N1    S    
C40   C50   S    
H19   N8    S    
C33   C35   A    
C54   N3    S    
Cu5   O8    S    
Cu4   O29   S    
Cu5   Cu6   S    
H15   O21   S    
C32   O24   S    
C10   C11   A    
C45   C53   A    
Cu3   Cu4   S    
C19   N9    S    
H38   N3    S    
C47   H46   S    
C42   C43   A    
C29   O8    A    
C14   C15   A    
Cu1   O15   S    
C2    C28   S    
C26   O5    A    
C39   C48   S    
C20   C31   S    
