data_mof_unit_15140.cif
_audit_creation_date              2012-10-26T18:47:55-0400
_audit_creation_method            fapswitch 2.2
_symmetry_space_group_name_H-M    P1
_symmetry_Int_Tables_number       1
_space_group_crystal_system       triclinic
_cell_length_a                    15.846467
_cell_length_b                    8.706718
_cell_length_c                    7.480055
_cell_angle_alpha                 102.737097
_cell_angle_beta                  94.708721
_cell_angle_gamma                 92.587914
_cell_volume                      1001.10898835

loop_
_atom_site_label
_atom_site_type_symbol
_atom_type_description
_atom_site_fract_x
_atom_site_fract_y
_atom_site_fract_z
_atom_type_partial_charge
C1    C     C_R   0.498481 0.200143 0.454035 0.543335
C2    C     C_2   0.517259 0.967305 0.573276 0.221828
C3    C     C_R   0.340369 0.499930 0.501617 0.536049
C4    C     C_R   0.505974 0.799740 0.546369 0.545802
C5    C     C_R   0.659619 0.500351 0.498435 0.518292
C6    C     C_3   0.052825 0.436502 0.667785 0.149937
C7    C     C_3   0.040186 0.396557 0.320511 -0.190147
C8    C     C_3   0.942439 0.396530 0.317080 -0.226178
C9    C     C_1   0.749151 0.500161 0.495403 -0.056310
C10   C     C_3   0.082825 0.501661 0.503752 0.119919
C11   C     C_3   0.633294 0.072970 0.767455 -0.099404
C12   C     C_3   0.954325 0.434830 0.661744 -0.193397
C13   C     C_3   0.642465 0.698569 0.030164 -0.016924
C14   C     C_3   0.088905 0.247048 0.831971 -0.158298
C15   C     C_3   0.094081 0.900242 0.425324 -0.120078
C16   C     C_3   0.917036 0.500661 0.498038 0.014162
C17   C     C_3   0.955703 0.670895 0.518547 -0.192593
C18   C     C_3   0.054115 0.672963 0.521465 0.145183
C19   C     C_1   0.824757 0.500234 0.495411 -0.089486
C20   C     C_1   0.175243 0.501409 0.505364 -0.001342
C21   C     C_1   0.250823 0.500823 0.504857 -0.013352
C22   C     C_2   0.497467 0.032643 0.430676 -0.131919
Cu1   Cu    Cu3+1 0.509300 0.517380 0.684380 1.012497
Cu2   Cu    Cu3+1 0.490700 0.482620 0.315620 1.028059
H1    H     H_    0.926679 0.312543 0.648645 0.143876
H2    H     H_    0.936230 0.507016 0.793625 0.075488
H3    H     H_    0.656781 0.144754 0.673495 0.115431
H4    H     H_    0.662122 0.956824 0.741899 0.076842
H5    H     H_    0.654887 0.136405 0.910626 0.138859
H6    H     H_    0.641042 0.754057 0.910518 0.144987
H7    H     H_    0.676640 0.587917 0.005326 0.117491
H8    H     H_    0.678975 0.782579 0.147031 0.073438
H9    H     H_    0.028474 0.258784 0.898093 0.098796
H10   H     H_    0.141134 0.323268 0.921466 0.131431
H11   H     H_    0.105737 0.122900 0.816804 0.126818
H12   H     H_    0.928390 0.720367 0.402959 0.145951
H13   H     H_    0.060976 0.441341 0.201951 0.137073
H14   H     H_    0.916452 0.441588 0.196983 0.114042
H15   H     H_    0.150039 0.935498 0.528656 0.137912
H16   H     H_    0.036721 0.955997 0.479229 0.136072
H17   H     H_    0.107365 0.945285 0.302165 0.142419
H18   H     H_    0.478119 0.961163 0.293563 0.128948
H19   H     H_    0.442800 0.363402 0.948437 0.216538
H20   H     H_    0.059935 0.273490 0.303311 0.129323
H21   H     H_    0.915157 0.273401 0.299058 0.112049
H22   H     H_    0.082873 0.744448 0.657751 0.077259
H23   H     H_    0.938362 0.747780 0.648288 0.069640
H24   H     H_    0.080872 0.519477 0.797511 0.093996
N1    N     N_2   0.476670 0.456430 0.038530 -0.173292
N2    N     N_2   0.523330 0.543570 0.961470 0.046044
O1    O     O_R   0.506050 0.286130 0.619770 -0.470848
O2    O     O_3   0.560204 0.673529 0.078785 -0.431511
O3    O     O_3   0.080034 0.281608 0.655978 -0.587961
O4    O     O_3   0.081185 0.734401 0.373160 -0.584498
O5    O     O_R   0.490330 0.256780 0.308370 -0.508049
O6    O     O_R   0.387300 0.514690 0.655770 -0.511582
O7    O     O_R   0.371580 0.485340 0.344370 -0.502283
O8    O     O_R   0.509670 0.743220 0.691630 -0.471536
O9    O     O_R   0.493950 0.713870 0.380230 -0.477381
O10   O     O_R   0.628420 0.514660 0.655630 -0.546337
O11   O     O_R   0.612700 0.485310 0.344230 -0.474846
O12   O     O_3   0.543825 0.055412 0.748960 -0.536232

loop_
_geom_bond_atom_site_label_1
_geom_bond_atom_site_label_2
_ccdc_geom_bond_type
C14   H10   S    
Cu1   O8    S    
N2    O2    S    
Cu1   Cu2   S    
C15   O4    S    
C6    C10   S    
Cu2   O11   S    
C17   H12   S    
C7    C10   S    
C13   O2    S    
C3    O6    A    
C13   H8    S    
Cu1   O1    S    
C11   H3    S    
C12   H1    S    
C11   O12   S    
C14   H9    S    
C17   C18   S    
C7    H13   S    
C5    O11   A    
C1    C22   S    
C8    C16   S    
C2    C22   D    
Cu2   O5    S    
C5    C9    S    
C1    O1    A    
C15   H15   S    
C22   H18   S    
C8    H14   S    
C11   H4    S    
C10   C18   S    
C16   C19   S    
C12   C16   S    
C2    C4    S    
C18   H22   S    
C4    O9    A    
C13   H7    S    
Cu2   O9    S    
C1    O5    A    
Cu1   O10   S    
C15   H16   S    
C3    C21   S    
C7    C8    S    
C18   O4    S    
C6    O3    S    
C4    O8    A    
C6    C12   S    
C2    O12   S    
C13   H6    S    
Cu1   O6    S    
C14   O3    S    
C14   H11   S    
C20   C21   T    
C11   H5    S    
N1    N2    D    
C10   C20   S    
Cu2   N1    S    
C8    H21   S    
H19   N1    S    
Cu1   N2    S    
C5    O10   A    
C7    H20   S    
C9    C19   T    
C15   H17   S    
C17   H23   S    
C16   C17   S    
C12   H2    S    
Cu2   O7    S    
C3    O7    A    
C6    H24   S    
