data_mof_unit_36398.cif
_audit_creation_date              2012-12-10T17:20:16-0500
_audit_creation_method            fapswitch 2.2
_symmetry_space_group_name_H-M    P1
_symmetry_Int_Tables_number       1
_space_group_crystal_system       triclinic
_cell_length_a                    18.363185
_cell_length_b                    18.339659
_cell_length_c                    27.678575
_cell_angle_alpha                 89.995864
_cell_angle_beta                  90.026685
_cell_angle_gamma                 90.057072
_cell_volume                      9321.4340101

loop_
_atom_site_label
_atom_site_type_symbol
_atom_type_description
_atom_site_fract_x
_atom_site_fract_y
_atom_site_fract_z
_atom_type_partial_charge
C1    C     C_1   0.500016 0.999991 0.930972 0.080251
C2    C     C_1   0.500014 0.999993 0.025496 0.025400
C3    C     C_R   0.791330 0.154807 0.132947 0.026867
C4    C     C_R   0.823387 0.769336 0.876306 0.027088
C5    C     C_R   0.169296 0.224692 0.126173 -0.014486
C6    C     C_R   0.840003 0.103386 0.824095 -0.002693
C7    C     C_R   0.214434 0.839008 0.129923 0.026390
C8    C     C_R   0.265168 0.680352 0.730308 0.007992
C9    C     C_R   0.754236 0.299946 0.289111 0.001783
C10   C     C_R   0.294384 0.240469 0.708372 0.007719
C11   C     C_R   0.706891 0.760987 0.291943 0.004616
C12   C     C_R   0.736955 0.317492 0.726644 0.007159
C13   C     C_1   0.000015 0.500009 0.974508 -0.014907
C14   C     C_R   0.243339 0.702619 0.290338 0.001725
C15   C     C_R   0.705452 0.759651 0.708520 0.008534
C16   C     C_R   0.293725 0.239333 0.291729 0.004261
C17   C     C_R   0.761157 0.706877 0.292042 -0.015606
C18   C     C_R   0.240417 0.294882 0.708591 -0.016557
C19   C     C_R   0.700231 0.245475 0.289120 -0.015491
C20   C     C_R   0.319608 0.734418 0.730371 0.005577
C21   C     C_R   0.239285 0.293269 0.291983 -0.017300
C22   C     C_R   0.759798 0.705608 0.708456 -0.014908
C23   C     C_R   0.297460 0.756965 0.290236 -0.016184
C24   C     C_1   0.999984 0.500013 0.025499 -0.020877
C25   C     C_R   0.682722 0.263225 0.726473 0.005487
C26   C     C_R   0.745707 0.200235 0.210863 0.005188
C27   C     C_R   0.234348 0.820563 0.768675 0.003329
C28   C     C_R   0.794007 0.739605 0.208372 0.007037
C29   C     C_R   0.206852 0.260625 0.791883 0.009617
C30   C     C_R   0.256316 0.797623 0.209790 0.005259
C31   C     C_R   0.762359 0.182878 0.774327 0.002876
C32   C     C_R   0.205762 0.260235 0.208450 0.007064
C33   C     C_R   0.792542 0.738510 0.792169 0.008724
C34   C     C_R   0.260464 0.205879 0.791540 -0.019066
C35   C     C_1   0.000012 0.500004 0.474504 0.026912
C36   C     C_R   0.739126 0.793086 0.207986 -0.016313
C37   C     C_R   0.179862 0.766565 0.768639 -0.016520
C38   C     C_R   0.800096 0.254350 0.211066 0.004698
C39   C     C_R   0.738687 0.793021 0.792049 -0.016277
C40   C     C_R   0.260478 0.206579 0.208076 -0.016460
C41   C     C_R   0.817217 0.236449 0.773738 -0.015962
C42   C     C_R   0.201847 0.743596 0.210067 0.004955
C43   C     C_R   0.195857 0.696466 0.749944 0.026385
C44   C     C_R   0.803896 0.303963 0.250117 0.030876
C45   C     C_R   0.304005 0.196198 0.749833 0.023536
C46   C     C_1   0.000008 0.500008 0.525487 0.025325
C47   C     C_R   0.696048 0.803719 0.249888 0.023573
C48   C     C_R   0.804089 0.303630 0.750036 0.027221
C49   C     C_R   0.196007 0.696141 0.250184 0.030554
C50   C     C_R   0.695836 0.803651 0.750083 0.024648
C51   C     C_R   0.303995 0.196251 0.249815 0.023607
C52   C     C_R   0.804126 0.696268 0.250158 0.024346
C53   C     C_R   0.196452 0.304174 0.750161 0.025107
C54   C     C_R   0.696142 0.196088 0.249918 0.025404
C55   C     C_R   0.304018 0.803934 0.749936 0.032314
C56   C     C_R   0.195901 0.303694 0.250214 0.024251
C57   C     C_1   0.500012 0.999979 0.474499 0.006717
C58   C     C_R   0.803607 0.695890 0.750102 0.024497
C59   C     C_R   0.303843 0.803933 0.249869 0.024639
C60   C     C_R   0.695870 0.196218 0.750162 0.033352
C61   C     C_2   0.139714 0.980878 0.827806 0.236843
C62   C     C_2   0.778370 0.105139 0.091526 0.299220
C63   C     C_2   0.130365 0.246025 0.918594 0.243772
C64   C     C_2   0.883852 0.765667 0.086460 0.245614
C65   C     C_2   0.846576 0.031427 0.848612 0.228201
C66   C     C_2   0.229541 0.886319 0.087611 0.301784
C67   C     C_2   0.866849 0.749651 0.919639 0.258018
C68   C     C_1   0.499981 0.999983 0.525490 -0.008376
C69   C     C_2   0.115566 0.234236 0.086584 0.242766
C70   C     C_2   0.753062 0.865818 0.079371 0.282890
C71   C     C_2   0.232745 0.116770 0.914430 0.293164
C72   C     C_2   0.908095 0.209968 0.098452 0.296611
C73   C     C_2   0.017734 0.870665 0.818624 0.293829
C74   C     C_2   0.245101 0.132451 0.079915 0.285069
C75   C     C_2   0.761276 0.876355 0.917218 0.274148
C76   C     C_2   0.098848 0.782595 0.094474 0.298905
C77   C     C_2   0.965602 0.148075 0.849171 0.276544
C78   C     C_2   0.719541 0.398223 0.407182 0.220022
C79   C     C_R   0.499986 0.000001 0.620860 0.494887
C80   C     C_2   0.355187 0.526826 0.661451 0.342800
C81   C     C_2   0.630992 0.748704 0.418934 0.226046
C82   C     C_2   0.382142 0.265674 0.585608 0.202599
C83   C     C_2   0.269922 0.612977 0.412324 0.233890
C84   C     C_2   0.651410 0.466723 0.651166 0.347996
C85   C     C_2   0.380483 0.261887 0.415014 0.225399
C86   C     C_2   0.614485 0.731952 0.587044 0.233987
C87   C     C_2   0.259604 0.376188 0.582701 0.298515
C88   C     C_2   0.738639 0.623457 0.417088 0.258060
C89   C     C_2   0.479372 0.636997 0.673169 0.307683
C90   C     C_R   0.500013 0.999994 0.379137 0.517492
C91   C     C_2   0.595740 0.288553 0.404220 0.292022
C92   C     C_2   0.740512 0.625886 0.582018 0.302486
C93   C     C_2   0.253231 0.366535 0.420389 0.270091
C94   C     C_2   0.528044 0.354481 0.659856 0.311915
C95   C     C_2   0.394908 0.721260 0.409192 0.268779
C96   C     C_R   0.999999 0.500002 0.620845 0.530813
C97   C     C_1   0.500007 1.000000 0.069033 0.067447
C98   C     C_R   0.000004 0.499999 0.379153 0.521735
C99   C     C_R   0.999987 0.500004 0.120863 0.485110
C100  C     C_R   0.000013 0.499998 0.879139 0.498968
C101  C     C_R   0.500000 0.000001 0.120847 0.520802
C102  C     C_R   0.500007 0.999997 0.879155 0.533372
C103  C     C_R   0.639941 0.859947 0.750007 0.477326
C104  C     C_R   0.359899 0.139920 0.249837 0.482542
C105  C     C_R   0.139763 0.640268 0.750177 0.487155
C106  C     C_R   0.859911 0.360133 0.250132 0.488143
C107  C     C_R   0.360172 0.140174 0.749819 0.477457
C108  C     C_1   0.000031 0.500004 0.930964 0.023205
C109  C     C_R   0.640065 0.860007 0.249911 0.481743
C110  C     C_R   0.860207 0.359786 0.750146 0.485710
C111  C     C_R   0.140101 0.639852 0.250177 0.487996
C112  C     C_R   0.359863 0.860155 0.249821 0.483532
C113  C     C_R   0.639810 0.140107 0.749927 0.489177
C114  C     C_R   0.859976 0.639956 0.250101 0.481479
C115  C     C_R   0.139939 0.359904 0.750142 0.483675
C116  C     C_R   0.640104 0.139886 0.249873 0.483947
C117  C     C_R   0.360173 0.859904 0.749890 0.490373
C118  C     C_R   0.140084 0.360084 0.250169 0.482610
C119  C     C_1   0.999969 0.500011 0.069042 0.009902
C120  C     C_R   0.860011 0.640045 0.750054 0.483985
C121  C     C_R   0.388392 0.718236 0.710073 -0.136804
C122  C     C_R   0.650178 0.242489 0.327891 -0.082972
C123  C     C_R   0.232277 0.339910 0.667419 -0.105174
C124  C     C_R   0.770318 0.663228 0.333785 -0.086583
C125  C     C_R   0.616112 0.277075 0.702622 -0.137047
C126  C     C_R   0.345390 0.762183 0.330116 -0.083704
C127  C     C_R   0.768287 0.661271 0.666972 -0.101945
C128  C     C_R   0.229601 0.336102 0.334040 -0.087241
C129  C     C_R   0.663726 0.770558 0.333813 -0.127022
C130  C     C_1   0.000011 0.499999 0.430966 0.071515
C131  C     C_R   0.338901 0.232562 0.666993 -0.133948
C132  C     C_R   0.757156 0.349832 0.328013 -0.126107
C133  C     C_R   0.280314 0.611989 0.708874 -0.130210
C134  C     C_R   0.338253 0.230848 0.333083 -0.123448
C135  C     C_R   0.660125 0.767077 0.667469 -0.135354
C136  C     C_R   0.237965 0.655351 0.330554 -0.126182
C137  C     C_R   0.723450 0.384117 0.702498 -0.132156
C138  C     C_R   0.850889 0.256670 0.172692 -0.137039
C139  C     C_R   0.110308 0.783906 0.787301 -0.083479
C140  C     C_R   0.729043 0.835505 0.165759 -0.086512
C141  C     C_1   0.000004 0.500007 0.569027 0.072467
C142  C     C_R   0.268166 0.160420 0.832554 -0.098345
C143  C     C_R   0.152755 0.739464 0.170754 -0.136475
C144  C     C_R   0.883628 0.222275 0.797806 -0.086471
C145  C     C_R   0.270054 0.163736 0.166006 -0.086130
C146  C     C_R   0.729722 0.836922 0.833700 -0.092464
C147  C     C_R   0.164130 0.270212 0.833924 -0.079000
C148  C     C_R   0.839356 0.732005 0.167373 -0.123566
C149  C     C_R   0.218441 0.890031 0.788214 -0.116761
C150  C     C_R   0.742254 0.150965 0.171624 -0.137929
C151  C     C_R   0.834780 0.728131 0.834375 -0.079186
C152  C     C_1   0.500030 0.999983 0.430957 0.055264
C153  C     C_R   0.160321 0.267868 0.167469 -0.124249
C154  C     C_R   0.774528 0.117200 0.799774 -0.123486
C155  C     C_R   0.261699 0.844798 0.169512 -0.137693
C156  C     C_R   0.403667 0.650027 0.689757 0.029381
C157  C     C_R   0.653208 0.292057 0.366507 0.034749
C158  C     C_R   0.275525 0.330954 0.626030 0.034290
C159  C     C_R   0.728248 0.673746 0.375541 0.039270
C160  C     C_R   0.602238 0.343677 0.679711 0.027097
C161  C     C_R   0.339725 0.715409 0.370096 0.041286
C162  C     C_R   0.724290 0.669918 0.625851 0.032746
C163  C     C_1   0.499966 0.999991 0.569034 0.022643
C164  C     C_R   0.271980 0.325528 0.375713 0.035187
C165  C     C_R   0.675045 0.729383 0.375794 -0.014788
C166  C     C_R   0.330487 0.277036 0.626188 -0.013940
C167  C     C_R   0.708476 0.345833 0.366908 -0.017516
C168  C     C_R   0.347874 0.596904 0.687653 0.024362
C169  C     C_R   0.328584 0.273401 0.374601 -0.022532
C170  C     C_R   0.668120 0.722520 0.626705 -0.015227
C171  C     C_R   0.284099 0.662038 0.370663 -0.017962
C172  C     C_R   0.657569 0.397418 0.678486 0.025863
C173  C     C_R   0.848153 0.206924 0.134337 0.030270
C174  C     C_1   0.500019 0.999989 0.974512 0.030805
C175  C     C_R   0.093960 0.853813 0.804939 0.039907
C176  C     C_R   0.772173 0.825634 0.124345 0.036581
C177  C     C_R   0.225514 0.169964 0.874157 0.038699
C178  C     C_R   0.157340 0.787200 0.131374 0.030129
C179  C     C_R   0.895622 0.156907 0.823084 0.043746
C180  C     C_R   0.226698 0.173459 0.124666 0.037657
C181  C     C_R   0.771134 0.825827 0.875722 0.041531
C182  C     C_R   0.174221 0.227319 0.875277 0.027180
C183  C     C_R   0.830025 0.774921 0.125992 -0.015250
C184  C     C_R   0.149501 0.907142 0.806502 -0.006972
H1    H     H_    0.431539 0.758512 0.710149 0.102107
H2    H     H_    0.382193 0.192560 0.666321 0.105394
H3    H     H_    0.798285 0.392174 0.328890 0.110832
H4    H     H_    0.238584 0.570356 0.706642 0.111607
H5    H     H_    0.382505 0.191901 0.333233 0.121290
H6    H     H_    0.616146 0.806340 0.667200 0.103450
H7    H     H_    0.196772 0.613101 0.331563 0.114781
H8    H     H_    0.764967 0.426052 0.700996 0.108406
H9    H     H_    0.894822 0.296116 0.172864 0.099375
H10   H     H_    0.067279 0.743580 0.787232 0.161310
H11   H     H_    0.686753 0.876386 0.164335 0.167962
H12   H     H_    0.606895 0.202399 0.327887 0.156415
H13   H     H_    0.306321 0.115533 0.832130 0.158800
H14   H     H_    0.108562 0.700321 0.170968 0.100950
H15   H     H_    0.926363 0.262988 0.798236 0.150775
H16   H     H_    0.312179 0.122670 0.164643 0.167328
H17   H     H_    0.691177 0.881470 0.833649 0.157206
H18   H     H_    0.122588 0.311947 0.835382 0.123553
H19   H     H_    0.884225 0.693759 0.167546 0.108180
H20   H     H_    0.260069 0.931769 0.790206 0.115526
H21   H     H_    0.700248 0.109536 0.170186 0.109059
H22   H     H_    0.876895 0.686964 0.835549 0.126425
H23   H     H_    0.191470 0.382365 0.666861 0.159070
H24   H     H_    0.115677 0.306375 0.167579 0.107915
H25   H     H_    0.732727 0.075539 0.800999 0.106416
H26   H     H_    0.303744 0.886164 0.168016 0.111596
H27   H     H_    0.175460 0.025027 0.816778 0.111787
H28   H     H_    0.749940 0.054021 0.097326 0.143991
H29   H     H_    0.078923 0.274442 0.914275 0.128655
H30   H     H_    0.912118 0.714046 0.082429 0.105915
H31   H     H_    0.798664 0.997217 0.852400 0.125239
H32   H     H_    0.258462 0.937352 0.092685 0.144848
H33   H     H_    0.918901 0.722414 0.915224 0.139024
H34   H     H_    0.809479 0.619219 0.334009 0.159854
H35   H     H_    0.087546 0.285993 0.082544 0.102925
H36   H     H_    0.776275 0.850507 0.044888 0.194728
H37   H     H_    0.190172 0.110883 0.941220 0.195690
H38   H     H_    0.936775 0.260962 0.092408 0.079456
H39   H     H_    0.998326 0.926326 0.818721 0.203877
H40   H     H_    0.222715 0.148236 0.045265 0.195284
H41   H     H_    0.803204 0.882338 0.944469 0.194529
H42   H     H_    0.070234 0.731414 0.088981 0.080746
H43   H     H_    0.968775 0.117019 0.882369 0.203995
H44   H     H_    0.748510 0.448837 0.400521 0.145169
H45   H     H_    0.573213 0.236497 0.702458 0.097807
H46   H     H_    0.324471 0.479566 0.673417 0.096264
H47   H     H_    0.579818 0.777416 0.414318 0.157222
H48   H     H_    0.407796 0.212824 0.580942 0.109043
H49   H     H_    0.240324 0.562472 0.406649 0.163526
H50   H     H_    0.682085 0.514132 0.662926 0.101751
H51   H     H_    0.406494 0.209152 0.419370 0.145528
H52   H     H_    0.587720 0.784223 0.582250 0.118140
H53   H     H_    0.278227 0.359805 0.547237 0.168785
H54   H     H_    0.695742 0.615118 0.443373 0.181722
H55   H     H_    0.513633 0.682970 0.663530 0.086226
H56   H     H_    0.389050 0.801846 0.330036 0.157843
H57   H     H_    0.582982 0.335710 0.426183 0.195771
H58   H     H_    0.719726 0.641772 0.546941 0.193713
H59   H     H_    0.274668 0.350217 0.455168 0.168700
H60   H     H_    0.495779 0.307416 0.649571 0.087282
H61   H     H_    0.406205 0.675515 0.432775 0.184977
H62   H     H_    0.809753 0.619490 0.666012 0.160250
H63   H     H_    0.187954 0.377670 0.335188 0.167328
H64   H     H_    0.621088 0.811212 0.334689 0.119824
O1    O     O_3   0.500000 1.000000 0.750000 -0.449638
O2    O     O_R   0.439270 0.000000 0.356260 -0.532766
O3    O     O_R   0.000000 0.560730 0.643740 -0.524926
O4    O     O_R   1.000000 0.439270 0.356260 -0.530829
O5    O     O_R   0.939270 0.500000 0.143740 -0.538241
O6    O     O_R   0.060730 0.500000 0.856260 -0.532485
O7    O     O_R   0.500000 0.939270 0.143740 -0.530067
O8    O     O_R   0.500000 0.060730 0.856260 -0.525649
O9    O     O_R   0.060730 0.500000 0.143740 -0.538829
O10   O     O_R   0.939270 0.500000 0.856260 -0.535107
O11   O     O_R   0.500000 0.060730 0.143740 -0.530764
O12   O     O_3   0.500000 0.000000 0.250000 -0.450584
O13   O     O_R   0.500000 0.939270 0.856260 -0.521002
O14   O     O_R   0.646150 0.914560 0.722140 -0.539907
O15   O     O_R   0.353850 0.085440 0.277860 -0.538805
O16   O     O_R   0.085440 0.646150 0.722140 -0.536541
O17   O     O_R   0.914560 0.353850 0.277860 -0.534741
O18   O     O_R   0.353850 0.085440 0.722140 -0.545160
O19   O     O_R   0.646150 0.914560 0.277860 -0.536382
O20   O     O_R   0.914560 0.353850 0.722140 -0.530598
O21   O     O_R   0.085440 0.646150 0.277860 -0.535724
O22   O     O_R   0.353850 0.914560 0.277860 -0.532342
O23   O     O_3   0.000000 0.500000 0.750000 -0.450312
O24   O     O_R   0.646150 0.085440 0.722140 -0.534823
O25   O     O_R   0.914560 0.646150 0.277860 -0.533576
O26   O     O_R   0.085440 0.353850 0.722140 -0.531876
O27   O     O_R   0.646150 0.085440 0.277860 -0.531842
O28   O     O_R   0.353850 0.914560 0.722140 -0.539492
O29   O     O_R   0.085440 0.353850 0.277860 -0.539311
O30   O     O_R   0.914560 0.646150 0.722140 -0.534314
O31   O     O_R   0.146150 0.414560 0.222140 -0.538024
O32   O     O_R   0.853850 0.585440 0.777860 -0.547498
O33   O     O_R   0.585440 0.146150 0.222140 -0.538752
O34   O     O_3   1.000000 0.500000 0.250000 -0.447485
O35   O     O_R   0.414560 0.853850 0.777860 -0.534134
O36   O     O_R   0.853850 0.585440 0.222140 -0.541104
O37   O     O_R   0.146150 0.414560 0.777860 -0.549352
O38   O     O_R   0.414560 0.853850 0.222140 -0.539806
O39   O     O_R   0.585440 0.146150 0.777860 -0.536816
O40   O     O_R   0.853850 0.414560 0.777860 -0.538226
O41   O     O_R   0.146150 0.585440 0.222140 -0.537826
O42   O     O_R   0.414560 0.146150 0.777860 -0.536985
O43   O     O_R   0.585440 0.853850 0.222140 -0.541344
O44   O     O_R   0.146150 0.585440 0.777860 -0.535022
O45   O     O_R   0.439270 0.000000 0.643740 -0.535433
O46   O     O_R   0.853850 0.414560 0.222140 -0.538558
O47   O     O_R   0.585440 0.853850 0.777860 -0.540830
O48   O     O_R   0.414560 0.146150 0.222140 -0.540082
O49   O     O_2   0.094815 0.992605 0.859356 -0.460254
O50   O     O_2   0.794956 0.122274 0.050363 -0.417578
O51   O     O_2   0.152514 0.233971 0.959386 -0.500139
O52   O     O_2   0.900593 0.816152 0.059957 -0.428632
O53   O     O_2   0.904474 0.008129 0.863601 -0.496195
O54   O     O_2   0.214204 0.867252 0.046601 -0.408576
O55   O     O_2   0.843791 0.759534 0.960454 -0.500646
O56   O     O_R   0.560730 0.000000 0.356260 -0.529572
O57   O     O_2   0.098683 0.183893 0.060001 -0.428807
O58   O     O_2   0.709059 0.915697 0.079975 -0.529079
O59   O     O_2   0.286184 0.077461 0.917689 -0.499708
O60   O     O_2   0.929107 0.155349 0.077502 -0.380732
O61   O     O_2   0.975011 0.822109 0.828942 -0.538662
O62   O     O_2   0.287495 0.081209 0.080926 -0.530181
O63   O     O_2   0.706257 0.913287 0.921040 -0.511464
O64   O     O_2   0.078830 0.836251 0.072033 -0.376581
O65   O     O_2   0.021014 0.176750 0.833933 -0.541501
O66   O     O_2   0.700350 0.384391 0.448382 -0.461495
O67   O     O_R   1.000000 0.439270 0.643740 -0.528480
O68   O     O_2   0.391506 0.522205 0.624658 -0.343994
O69   O     O_2   0.652614 0.736874 0.459881 -0.487290
O70   O     O_2   0.400039 0.315440 0.558845 -0.429523
O71   O     O_2   0.287161 0.629575 0.453465 -0.460951
O72   O     O_2   0.615932 0.470722 0.613966 -0.352638
O73   O     O_2   0.398051 0.311483 0.442020 -0.454138
O74   O     O_2   0.596229 0.681091 0.561298 -0.435364
O75   O     O_2   0.223921 0.432149 0.585960 -0.499068
O76   O     O_2   0.795413 0.589640 0.422119 -0.515830
O77   O     O_2   0.505777 0.575994 0.672740 -0.396257
O78   O     O_R   1.000000 0.560730 0.356260 -0.525789
O79   O     O_2   0.560807 0.232708 0.410740 -0.514905
O80   O     O_2   0.778904 0.571643 0.584355 -0.503459
O81   O     O_2   0.211639 0.418421 0.419135 -0.532600
O82   O     O_2   0.500387 0.414781 0.657553 -0.369166
O83   O     O_2   0.429560 0.777440 0.415092 -0.529788
O84   O     O_R   0.560730 0.000000 0.643740 -0.532962
Zn1   Zn    Zn3+2 0.500000 0.913240 0.789820 0.959092
Zn2   Zn    Zn3+2 1.000000 0.586760 0.710180 0.964929
Zn3   Zn    Zn3+2 0.586760 0.000000 0.289820 0.956188
Zn4   Zn    Zn3+2 0.413240 0.000000 0.710180 0.933246
Zn5   Zn    Zn3+2 1.000000 0.586760 0.289820 0.956647
Zn6   Zn    Zn3+2 1.000000 0.413240 0.710180 0.965537
Zn7   Zn    Zn3+2 0.413240 0.000000 0.289820 0.952472
Zn8   Zn    Zn3+2 0.586760 0.000000 0.710180 0.938317
Zn9   Zn    Zn3+2 0.500000 0.086760 0.210180 0.951723
Zn10  Zn    Zn3+2 0.086760 0.500000 0.789820 0.943410
Zn11  Zn    Zn3+2 0.913240 0.500000 0.210180 0.930741
Zn12  Zn    Zn3+2 0.500000 0.086760 0.789820 0.956260
Zn13  Zn    Zn3+2 0.500000 0.913240 0.210180 0.950429
Zn14  Zn    Zn3+2 0.913240 0.500000 0.789820 0.940744
Zn15  Zn    Zn3+2 0.086760 0.500000 0.210180 0.932855
Zn16  Zn    Zn3+2 1.000000 0.413240 0.289820 0.951298

loop_
_geom_bond_atom_site_label_1
_geom_bond_atom_site_label_2
_ccdc_geom_bond_type
C19   C122  A    
C71   H37   S    
C6    C179  A    
C113  O24   A    
C126  H56   S    
O84   Zn8   S    
C164  C169  A    
C87   O75   D    
C90   O2    A    
C78   C167  S    
C40   C145  A    
O8    Zn12  S    
O47   Zn1   S    
C146  H17   S    
O41   Zn15  S    
C109  O43   A    
C27   C55   A    
C120  O32   A    
C142  C177  A    
C177  C182  A    
C57   C152  T    
C36   C47   A    
C143  C178  A    
C10   C131  A    
C70   O58   D    
C133  H4    S    
C92   O80   D    
C64   C183  S    
C9    C19   A    
C11   C17   A    
C91   H57   S    
C131  C166  A    
C24   C119  T    
C134  C169  A    
C54   C116  S    
C64   O52   D    
C8    C43   A    
C25   C60   A    
C109  O19   A    
C49   C111  S    
C50   C103  S    
C78   H44   S    
C116  O33   A    
C100  O6    A    
C11   C129  A    
C17   C52   A    
C46   C141  T    
O12   Zn3   S    
C90   C152  S    
O28   Zn4   S    
C26   C38   A    
O12   Zn9   S    
C51   C104  S    
C85   C169  S    
C67   O55   D    
C73   C175  S    
C21   C56   A    
C153  H24   S    
C136  C171  A    
C140  C176  A    
C160  C172  A    
O20   Zn6   S    
O42   Zn12  S    
C72   C173  S    
O27   Zn3   S    
C96   O67   A    
C85   O73   D    
O37   Zn10  S    
O31   Zn15  S    
C55   C117  S    
C138  H9    S    
C106  O17   A    
C146  C181  A    
C85   H51   S    
C80   H46   S    
C22   C58   A    
C111  O41   A    
C80   O68   D    
C79   O45   A    
C7    C66   S    
C22   C127  A    
C10   C18   A    
C101  O11   A    
O25   Zn5   S    
C72   O60   D    
C99   C119  S    
C81   H47   S    
C42   C143  A    
C62   H28   S    
O1    Zn4   S    
C70   C176  S    
C80   C168  S    
C113  O39   A    
C53   C115  S    
C114  O25   A    
O23   Zn14  S    
C14   C23   A    
C48   C110  S    
C16   C21   A    
C78   O66   D    
C121  C156  A    
C89   O77   D    
C16   C51   A    
C91   O79   D    
C125  C160  A    
C82   O70   D    
C23   C59   A    
C101  O7    A    
C115  O37   A    
C65   H31   S    
C125  H45   S    
C95   C161  S    
O23   Zn2   S    
C156  C168  A    
C128  C164  A    
O7    Zn13  S    
C79   O84   A    
C135  C170  A    
O78   Zn5   S    
C103  O14   A    
O40   Zn14  S    
C83   H49   S    
C149  C184  A    
C4    C181  A    
C75   O63   D    
O16   Zn2   S    
O22   Zn7   S    
C13   C108  T    
C26   C54   A    
C15   C22   A    
C100  C108  S    
C61   O49   D    
C73   H39   S    
C75   H41   S    
O30   Zn2   S    
C33   C151  A    
C133  C168  A    
C65   O53   D    
C47   C109  S    
C86   H52   S    
C159  C165  A    
C83   C171  S    
C84   H50   S    
C135  H6    S    
C17   C124  A    
C88   H54   S    
C30   C59   A    
C10   C45   A    
C127  H62   S    
C21   C128  A    
C35   C130  T    
C23   C126  A    
C19   C54   A    
C127  C162  A    
C142  H13   S    
C57   C68   S    
O13   Zn1   S    
C31   C154  A    
O12   Zn13  S    
C3    C62   S    
C82   H48   S    
C61   C184  S    
C94   C160  S    
C31   C41   A    
O38   Zn13  S    
C86   C170  S    
C128  H63   S    
O35   Zn1   S    
C66   O54   D    
C103  O47   A    
C52   C114  S    
C40   C51   A    
C63   O51   D    
C96   O3    A    
C95   H61   S    
C98   O4    A    
O5    Zn11  S    
C148  C183  A    
C102  O8    A    
C66   H32   S    
C140  H11   S    
C95   O83   D    
C161  C171  A    
C90   O56   A    
C45   C107  S    
O3    Zn2   S    
O29   Zn16  S    
O15   Zn7   S    
C33   C58   A    
C87   H53   S    
O11   Zn9   S    
C11   C47   A    
C132  C167  A    
O1    Zn1   S    
C12   C48   A    
C157  C167  A    
C110  O20   A    
C77   C179  S    
C134  H5    S    
C84   O72   D    
C76   C178  S    
C118  O31   A    
C99   O9    A    
O34   Zn16  S    
C74   H40   S    
O24   Zn8   S    
O1    Zn8   S    
O10   Zn14  S    
C25   C125  A    
C137  C172  A    
C5    C69   S    
C18   C53   A    
C96   C141  S    
C76   O64   D    
C6    C65   S    
C2    C97   T    
C126  C161  A    
C73   O61   D    
C107  O42   A    
C18   C123  A    
C16   C134  A    
O9    Zn15  S    
C132  H3    S    
O23   Zn6   S    
O45   Zn4   S    
C100  O10   A    
C28   C148  A    
C136  H7    S    
C67   H33   S    
C41   C144  A    
C93   H59   S    
C112  O22   A    
O18   Zn4   S    
C89   C156  S    
C84   C172  S    
C29   C34   A    
C7    C178  A    
C31   C60   A    
C37   C43   A    
C116  O27   A    
C5    C180  A    
C38   C44   A    
C137  H8    S    
C93   O81   D    
C162  C170  A    
C26   C150  A    
C98   C130  S    
C138  C173  A    
C58   C120  S    
C59   C112  S    
C102  O13   A    
C8    C20   A    
C86   O74   D    
C149  H20   S    
C6    C154  A    
O19   Zn3   S    
C145  H16   S    
O43   Zn13  S    
C147  C182  A    
C30   C155  A    
C77   H43   S    
O34   Zn5   S    
C111  O21   A    
C71   O59   D    
C158  C166  A    
C82   C166  S    
C68   C163  T    
C92   C162  S    
C143  H14   S    
C34   C142  A    
C3    C150  A    
C69   H35   S    
C56   C118  S    
C155  H26   S    
O32   Zn14  S    
C29   C147  A    
C118  O29   A    
C44   C106  S    
C104  O48   A    
C12   C25   A    
C129  C165  A    
O44   Zn10  S    
O34   Zn15  S    
C115  O26   A    
C144  H15   S    
C14   C136  A    
C105  O16   A    
C39   C146  A    
O26   Zn6   S    
C122  C157  A    
C110  O40   A    
C91   C157  S    
C32   C153  A    
C7    C155  A    
C28   C36   A    
C98   O78   A    
O2    Zn7   S    
C30   C42   A    
C69   O57   D    
C35   C46   S    
C1    C102  S    
C32   C56   A    
C175  C184  A    
C129  H64   S    
C145  C180  A    
C176  C183  A    
C94   O82   D    
C89   H55   S    
C139  C175  A    
O67   Zn6   S    
C33   C39   A    
O56   Zn3   S    
C64   H30   S    
C154  H25   S    
C43   C105  S    
C15   C50   A    
C14   C49   A    
C15   C135  A    
C124  C159  A    
O21   Zn5   S    
C61   H27   S    
C88   C159  S    
C94   H60   S    
O6    Zn10  S    
C92   H58   S    
C3    C173  A    
O34   Zn11  S    
C104  O15   A    
C117  O28   A    
C88   O76   D    
C139  H10   S    
C27   C149  A    
C63   C182  S    
C60   C113  S    
C112  O38   A    
C107  O18   A    
C20   C55   A    
C106  O46   A    
O17   Zn16  S    
C38   C138  A    
C124  H34   S    
C1    C174  T    
O14   Zn8   S    
C76   H42   S    
O1    Zn12  S    
C9    C132  A    
C93   C164  S    
C70   H36   S    
C13   C24   S    
O48   Zn9   S    
C117  O35   A    
O4    Zn16  S    
C74   O62   D    
C120  O30   A    
C144  C179  A    
C72   H38   S    
O36   Zn11  S    
O33   Zn9   S    
C123  H23   S    
C34   C45   A    
C63   H29   S    
C79   C163  S    
C36   C140  A    
C20   C121  A    
O23   Zn10  S    
C114  O36   A    
C62   O50   D    
C75   C181  S    
C4    C151  A    
C9    C44   A    
O39   Zn12  S    
C8    C133  A    
C147  H18   S    
C150  H21   S    
C122  H12   S    
C4    C67   S    
C123  C158  A    
C77   O65   D    
C87   C158  S    
O46   Zn11  S    
C71   C177  S    
C105  O44   A    
C99   O5    A    
C2    C174  S    
C28   C52   A    
C81   O69   D    
O12   Zn7   S    
C29   C53   A    
C27   C37   A    
C5    C153  A    
C83   O71   D    
C41   C48   A    
C32   C40   A    
C151  H22   S    
C42   C49   A    
C121  H1    S    
C131  H2    S    
C39   C50   A    
C74   C180  S    
C37   C139  A    
C81   C165  S    
C12   C137  A    
C97   C101  S    
C148  H19   S    
