data_mof_unit_24352.cif
_audit_creation_date              2012-12-11T17:44:01-0500
_audit_creation_method            fapswitch 2.2
_symmetry_space_group_name_H-M    P1
_symmetry_Int_Tables_number       1
_space_group_crystal_system       triclinic
_cell_length_a                    20.188467
_cell_length_b                    22.742841
_cell_length_c                    6.935977
_cell_angle_alpha                 90.005681
_cell_angle_beta                  86.623958
_cell_angle_gamma                 89.99495
_cell_volume                      3179.07915879

loop_
_atom_site_label
_atom_site_type_symbol
_atom_type_description
_atom_site_fract_x
_atom_site_fract_y
_atom_site_fract_z
_atom_type_partial_charge
O1    O     O_R   0.751270 0.447300 0.600030 -0.490585
O2    O     O_R   0.248730 0.947300 0.399970 -0.490711
O3    O     O_R   0.613530 0.440160 0.952150 -0.563325
O4    O     O_R   0.386470 0.940160 0.047850 -0.562712
O5    O     O_R   0.613050 0.552700 0.122560 -0.547356
O6    O     O_R   0.386950 0.052700 0.877440 -0.547513
C1    C     C_R   0.591963 0.424570 0.787148 0.741081
C2    C     C_R   0.408079 0.924601 0.212827 0.741220
O7    O     O_R   0.750780 0.440350 0.929820 -0.537538
O8    O     O_R   0.249220 0.940350 0.070180 -0.537218
O9    O     O_R   0.751280 0.552900 0.100070 -0.547374
O10   O     O_R   0.248720 0.052900 0.899930 -0.547591
C3    C     C_R   0.774937 0.427226 0.757082 0.823747
C4    C     C_R   0.225056 0.927238 0.242910 0.823265
O11   O     O_R   0.613040 0.447100 0.622520 -0.495896
O12   O     O_R   0.386960 0.947100 0.377480 -0.495364
O13   O     O_3   0.682160 0.536920 0.777780 -0.388857
O14   O     O_3   0.317840 0.036920 0.222220 -0.389303
V1    V     V_3+5 0.682160 0.493150 0.052630 1.556410
V2    V     V_3+5 0.317840 0.993150 0.947370 1.559372
O15   O     O_R   0.750790 0.559840 0.429870 -0.530369
O16   O     O_R   0.249210 0.059840 0.570130 -0.530547
C5    C     C_R   0.774118 0.573831 0.256939 0.792776
C6    C     C_R   0.225878 0.073831 0.743067 0.792253
O17   O     O_R   0.613540 0.559650 0.452200 -0.544779
O18   O     O_R   0.386460 0.059650 0.547800 -0.544944
C7    C     C_R   0.591529 0.574353 0.287199 0.663963
C8    C     C_R   0.408471 0.074344 0.712826 0.663620
V3    V     V_3+5 0.682160 0.506850 0.552630 1.630395
V4    V     V_3+5 0.317840 0.006850 0.447370 1.631685
O19   O     O_3   0.682150 0.463080 0.277610 -0.331255
O20   O     O_3   0.317850 0.963080 0.722390 -0.329494
C9    C     C_R   0.571381 0.854757 0.059922 -0.027816
C10   C     C_R   0.428558 0.354824 0.939181 -0.028027
H1    H     H_    0.523567 0.936912 0.014686 0.143180
H2    H     H_    0.476350 0.436981 0.984474 0.142439
H3    H     H_    0.614807 0.869238 0.974712 0.207580
H4    H     H_    0.385050 0.369371 0.023908 0.207362
C11   C     C_R   0.463173 0.881038 0.204830 -0.148484
C12   C     C_R   0.536904 0.380990 0.795087 -0.147627
C13   C     C_R   0.472592 0.597619 0.334749 -0.165762
C14   C     C_R   0.527454 0.097501 0.666389 -0.165811
C15   C     C_R   0.418895 0.635891 0.331354 -0.105991
C16   C     C_R   0.581172 0.135720 0.670462 -0.105837
C17   C     C_R   0.429077 0.695457 0.292885 -0.008993
C18   C     C_R   0.570994 0.195306 0.708646 -0.008627
C19   C     C_R   0.493728 0.718612 0.263591 0.115676
C20   C     C_R   0.506337 0.218537 0.736877 0.115659
C21   C     C_R   0.547666 0.678260 0.244432 -0.010826
C22   C     C_R   0.452342 0.178244 0.755451 -0.010998
C23   C     C_R   0.505278 0.780055 0.234119 -0.083924
C24   C     C_R   0.494804 0.280002 0.765944 -0.083516
C25   C     C_R   0.565873 0.797319 0.134466 -0.041455
C26   C     C_R   0.434109 0.297353 0.864885 -0.041755
C27   C     C_R   0.618939 0.756529 0.110135 0.475443
C28   C     C_R   0.380986 0.256616 0.888778 0.475436
C29   C     C_R   0.610106 0.698713 0.175133 -0.251472
C30   C     C_R   0.389842 0.198774 0.823995 -0.251571
C31   C     C_R   0.458767 0.825064 0.295584 0.384963
C32   C     C_R   0.541410 0.324951 0.704720 0.385359
C33   C     C_R   0.519178 0.894373 0.084794 -0.240116
C34   C     C_R   0.480800 0.394401 0.914626 -0.235788
C35   C     C_R   0.537057 0.617763 0.288501 -0.057002
C36   C     C_R   0.462954 0.117725 0.711678 -0.056877
H5    H     H_    0.463647 0.551594 0.367321 0.121052
H6    H     H_    0.536401 0.051453 0.634138 0.121108
H7    H     H_    0.385832 0.723108 0.283761 0.156278
H8    H     H_    0.614240 0.222916 0.718369 0.156388
H9    H     H_    0.368963 0.619286 0.358373 0.135502
H10   H     H_    0.631118 0.119055 0.644236 0.135561
H11   H     H_    0.651497 0.668560 0.159796 0.157509
H12   H     H_    0.348409 0.168664 0.838941 0.157306
C37   C     C_R   0.169942 0.883597 0.260591 -0.190988
C38   C     C_R   0.830022 0.383547 0.739396 -0.190793
C39   C     C_R   0.171545 0.835625 0.132746 -0.223058
C40   C     C_R   0.828400 0.335598 0.867313 -0.222355
C41   C     C_R   0.122202 0.791738 0.142839 0.136236
C42   C     C_R   0.877717 0.291682 0.857235 0.136260
C43   C     C_R   0.068121 0.796859 0.283085 0.322900
C44   C     C_R   0.931766 0.296731 0.716910 0.322917
C45   C     C_R   0.067023 0.844484 0.411295 -0.271140
C46   C     C_R   0.932897 0.344331 0.588636 -0.271096
C47   C     C_R   0.116241 0.888181 0.401033 0.431618
C48   C     C_R   0.883713 0.388069 0.598895 0.431475
C49   C     C_R   0.897928 0.694523 0.360664 -0.147711
C50   C     C_R   0.102096 0.194551 0.639296 -0.147777
C51   C     C_R   0.845346 0.654424 0.385168 -0.152075
C52   C     C_R   0.154660 0.154425 0.614803 -0.151659
C53   C     C_R   0.937887 0.696639 0.186425 0.393718
C54   C     C_R   0.062147 0.196703 0.813529 0.393433
N1    N     N_2   0.015805 0.754662 0.309652 -0.297492
N2    N     N_2   0.983989 0.254447 0.690360 -0.297693
N3    N     N_2   0.991394 0.737811 0.157619 -0.280543
N4    N     N_2   0.008711 0.237947 0.842307 -0.280361
C55   C     C_R   0.830323 0.616118 0.235201 -0.027603
C56   C     C_R   0.169673 0.116128 0.764793 -0.027427
H13   H     H_    0.815788 0.654077 0.520657 0.147478
H14   H     H_    0.184219 0.154057 0.479318 0.147490
H15   H     H_    0.906825 0.724464 0.477685 0.151614
H16   H     H_    0.093208 0.224500 0.522305 0.151667
H17   H     H_    0.026288 0.847690 0.519526 0.199440
H18   H     H_    0.973623 0.347483 0.480360 0.199366
C57   C     C_R   0.869474 0.618442 0.061109 -0.178278
C58   C     C_R   0.130521 0.118483 0.938884 -0.178414
C59   C     C_R   0.922655 0.658146 0.035009 0.076310
C60   C     C_R   0.077357 0.158218 0.964970 0.076108
H19   H     H_    0.858948 0.588921 0.944052 0.161005
H20   H     H_    0.141038 0.088968 0.055953 0.161021
H21   H     H_    0.212988 0.831294 0.026910 0.170852
H22   H     H_    0.786969 0.331311 0.973199 0.170419
S1    S     S_3+6 0.106470 0.948881 0.560418 -0.025676
O21   O     O_2   0.154387 0.942847 0.717052 -0.346522
O22   O     O_2   0.120140 0.005098 0.451211 -0.372113
O23   O     O_3   0.028760 0.951034 0.661957 -0.498680
H23   H     H_    0.028307 0.985134 0.750947 0.365753
S2    S     S_3+6 0.893508 0.448733 0.439419 -0.025638
O24   O     O_2   0.845565 0.442708 0.282849 -0.346467
O25   O     O_2   0.879893 0.504979 0.548561 -0.372060
O26   O     O_3   0.971207 0.450811 0.337796 -0.498672
H24   H     H_    0.971702 0.484948 0.248979 0.365764
C61   C     C_3   0.132080 0.739515 0.009157 -0.329694
C62   C     C_3   0.117935 0.756163 0.802203 -0.678447
H25   H     H_    0.067973 0.776327 0.797721 0.237805
H26   H     H_    0.155454 0.788080 0.742755 0.242239
H27   H     H_    0.120010 0.716293 0.709641 0.213766
H28   H     H_    0.184226 0.723939 0.011844 0.178602
H29   H     H_    0.101122 0.701502 0.056952 0.205512
C63   C     C_3   0.867873 0.239493 0.991026 -0.329950
C64   C     C_3   0.881951 0.256208 0.197978 -0.678422
H30   H     H_    0.931894 0.276398 0.202502 0.237770
H31   H     H_    0.844392 0.288121 0.257285 0.242324
H32   H     H_    0.879890 0.216363 0.290631 0.213874
H33   H     H_    0.815755 0.223862 0.988247 0.178773
H34   H     H_    0.898924 0.201511 0.943398 0.205593
C65   C     C_3   0.962745 0.657478 0.844392 -0.376065
C66   C     C_3   0.013069 0.607389 0.837069 -0.655796
H35   H     H_    0.046759 0.611456 0.957217 0.217675
H36   H     H_    0.987228 0.564286 0.848193 0.250271
H37   H     H_    0.043152 0.608949 0.697888 0.225543
H38   H     H_    0.928983 0.651564 0.725442 0.191696
H39   H     H_    0.988771 0.699777 0.817248 0.205061
C67   C     C_3   0.037259 0.157586 0.155572 -0.375884
C68   C     C_3   0.986941 0.107500 0.162938 -0.655713
H40   H     H_    0.953263 0.111543 0.042754 0.217653
H41   H     H_    0.012787 0.064391 0.151896 0.250286
H42   H     H_    0.956846 0.109089 0.302103 0.225574
H43   H     H_    0.071017 0.151685 0.274532 0.191738
H44   H     H_    0.011227 0.199892 0.182658 0.205065
S3    S     S_3+6 0.697697 0.775915 0.001221 0.005993
O27   O     O_2   0.689994 0.792112 0.793605 -0.322456
O28   O     O_2   0.724753 0.827734 0.105778 -0.309897
O29   O     O_3   0.751336 0.719512 0.010111 -0.524721
H45   H     H_    0.793235 0.734270 0.946058 0.364421
S4    S     S_3+6 0.302133 0.276109 0.996838 0.006025
O30   O     O_2   0.309600 0.292398 0.204500 -0.322286
O31   O     O_2   0.275251 0.327900 0.891750 -0.309963
O32   O     O_3   0.248469 0.219742 0.987673 -0.524754
H46   H     H_    0.206487 0.234594 0.050984 0.364545
S5    S     S_3+6 0.408909 0.818380 0.515626 -0.031189
O33   O     O_2   0.336698 0.819347 0.473884 -0.366053
O34   O     O_2   0.424117 0.763116 0.623550 -0.349534
O35   O     O_3   0.425231 0.875549 0.658658 -0.492007
H47   H     H_    0.411911 0.861965 0.790826 0.360689
S6    S     S_3+6 0.591687 0.318042 0.485497 -0.031965
O36   O     O_2   0.663780 0.319033 0.528577 -0.367847
O37   O     O_2   0.576688 0.262709 0.377675 -0.348351
O38   O     O_3   0.575708 0.375032 0.341456 -0.491888
H48   H     H_    0.592246 0.362275 0.210958 0.361259

loop_
_geom_bond_atom_site_label_1
_geom_bond_atom_site_label_2
_ccdc_geom_bond_type
C68   H42   S    
C52   C56   A    
O32   H46   S    
C21   C35   A    
C54   N4    S    
C22   C36   A    
C25   C27   A    
S1    O21   D    
O4    C2    A    
V1    O19   S    
C63   C64   S    
C58   C60   A    
O23   H23   S    
C21   C29   A    
C65   C66   S    
C19   C21   A    
C45   H17   S    
O9    V1    S    
S6    O37   D    
C38   C40   A    
C12   C32   A    
S6    O36   D    
C40   C42   A    
C61   H29   S    
O3    C1    A    
C6    C56   S    
C42   C44   A    
O12   V4    S    
C68   H40   S    
C10   C34   A    
C12   C34   A    
S2    O24   D    
C2    O12   A    
C17   C19   A    
O7    C3    A    
C24   C32   A    
O13   V1    S    
O5    C7    A    
C31   S5    S    
O7    V1    S    
O6    C8    A    
S1    O22   D    
C27   S3    S    
C16   C18   A    
C55   C57   A    
C51   C55   A    
C17   H7    S    
C1    C12   S    
S5    O34   D    
O3    V1    S    
O14   V4    S    
C2    C11   S    
C28   C30   A    
C50   H16   S    
S4    O31   D    
C59   C65   S    
C64   H32   S    
C20   C22   A    
C42   C63   S    
C48   S2    S    
O17   V3    S    
C13   C15   A    
C14   C16   A    
C66   H37   S    
H2    C34   S    
O1    V3    S    
C45   C47   A    
C24   C26   A    
O11   V3    S    
C18   C20   A    
C41   C43   A    
O15   C5    A    
C9    C25   A    
C65   H38   S    
C11   C33   A    
C26   C28   A    
C39   H21   S    
C61   C62   S    
C49   C51   A    
C22   C30   A    
C4    C37   S    
C67   H44   S    
C54   C60   A    
S4    O32   S    
C44   C46   A    
C47   S1    S    
C50   C54   A    
S3    O29   S    
O8    V2    S    
O38   H48   S    
C43   C45   A    
C49   C53   A    
C13   H5    S    
C1    O11   A    
O15   V3    S    
C9    H3    S    
C23   C25   A    
C44   N2    S    
C18   H8    S    
C49   H15   S    
C63   H34   S    
N1    N3    D    
C39   C41   A    
C63   H33   S    
S5    O33   D    
C65   H39   S    
C11   C31   A    
O10   V2    S    
N2    N4    D    
C46   H18   S    
S5    O35   S    
C57   C59   A    
C29   H11   S    
C16   H10   S    
C15   C17   A    
S4    O30   D    
C7    C35   S    
S2    O25   D    
C8    C36   S    
C28   S4    S    
C10   C26   A    
C46   C48   A    
C27   C29   A    
O8    C4    A    
O16   C6    A    
O1    C3    A    
C37   C39   A    
C62   H26   S    
C14   C36   A    
C58   H20   S    
C66   H36   S    
O35   H47   S    
V2    O20   S    
C68   H41   S    
C56   C58   A    
C60   C67   S    
O16   V4    S    
C10   H4    S    
C43   N1    S    
C67   H43   S    
S6    O38   S    
C38   C48   A    
C66   H35   S    
C19   C23   A    
O26   H24   S    
O18   V4    S    
O5    V1    S    
O17   C7    A    
O6    V2    S    
O10   C6    A    
O18   C8    A    
S2    O26   S    
O2    V4    S    
C62   H27   S    
S3    O28   D    
C64   H30   S    
C61   H28   S    
V3    O19   S    
O13   V3    S    
V4    O20   S    
C30   H12   S    
H1    C33   S    
C9    C33   A    
C50   C52   A    
O9    C5    A    
C32   S6    S    
C5    C55   S    
S1    O23   S    
O14   V2    S    
C53   N3    S    
O2    C4    A    
C40   H22   S    
C41   C61   S    
O4    V2    S    
C20   C24   A    
C23   C31   A    
O29   H45   S    
C15   H9    S    
C53   C59   A    
C14   H6    S    
C13   C35   A    
C67   C68   S    
C57   H19   S    
C64   H31   S    
C62   H25   S    
S3    O27   D    
C37   C47   A    
C52   H14   S    
C3    C38   S    
C51   H13   S    
