data_mof_unit_43480.cif
_audit_creation_date              2012-12-10T18:05:49-0500
_audit_creation_method            fapswitch 2.2
_symmetry_space_group_name_H-M    P1
_symmetry_Int_Tables_number       1
_space_group_crystal_system       triclinic
_cell_length_a                    12.662967
_cell_length_b                    13.144248
_cell_length_c                    14.971198
_cell_angle_alpha                 91.562951
_cell_angle_beta                  103.670281
_cell_angle_gamma                 82.223884
_cell_volume                      2398.99921164

loop_
_atom_site_label
_atom_site_type_symbol
_atom_type_description
_atom_site_fract_x
_atom_site_fract_y
_atom_site_fract_z
_atom_type_partial_charge
C1    C     C_R   0.439037 0.691247 0.493462 0.840338
C2    C     C_R   0.562215 0.568498 0.827819 -0.258310
C3    C     C_R   0.506122 0.498628 0.769453 -0.055639
C4    C     C_R   0.501822 0.500243 0.673073 0.862687
C5    C     C_R   0.451256 0.428059 0.802300 -0.251372
C6    C     C_R   0.704320 0.068559 0.640363 -0.195233
C7    C     C_R   0.596616 0.200699 0.535364 -0.062751
C8    C     C_R   0.298645 0.836750 0.431971 -0.191938
C9    C     C_R   0.268923 0.941111 0.414640 -0.133197
C10   C     C_R   0.342660 0.009447 0.450872 -0.188474
C11   C     C_R   0.446287 0.974190 0.509207 0.078098
C12   C     C_R   0.447948 0.428591 0.079726 0.089722
C13   C     C_R   0.468093 0.870976 0.538092 0.100266
C14   C     C_R   0.529278 0.037674 0.539505 0.070798
C15   C     C_R   0.623716 0.003611 0.609231 0.184514
C16   C     C_R   0.561057 0.308744 0.512638 0.889694
C17   C     C_R   0.635084 0.906041 0.647380 -0.258260
C18   C     C_R   0.558076 0.840364 0.612218 -0.209041
C19   C     C_R   0.521863 0.133385 0.500018 -0.254882
C20   C     C_R   0.689885 0.167869 0.604476 -0.198710
C21   C     C_R   0.399676 0.800865 0.491147 -0.113314
C22   C     C_R   0.085390 0.338794 0.383191 -0.360017
C23   C     C_R   0.610042 0.643682 0.072011 -0.203015
C24   C     C_R   0.800077 0.632223 0.607593 0.028060
C25   C     C_R   0.905254 0.660057 0.632365 -0.244480
C26   C     C_R   0.987990 0.607548 0.595333 -0.187366
C27   C     C_R   0.965681 0.525914 0.533740 0.040637
C28   C     C_R   0.498407 0.500526 0.326691 0.910013
C29   C     C_R   0.856457 0.500414 0.511111 0.223573
C30   C     C_R   0.045755 0.470245 0.491783 -0.004081
C31   C     C_R   0.014143 0.389110 0.431642 0.104785
C32   C     C_R   0.908365 0.363025 0.413938 -0.240198
C33   C     C_R   0.830257 0.419383 0.451638 -0.196254
C34   C     C_R   0.613431 0.641821 0.979645 -0.209527
C35   C     C_R   0.154927 0.492674 0.504138 -0.146608
C36   C     C_R   0.185594 0.372380 0.387933 0.579048
C37   C     C_R   0.447163 0.429345 0.171878 -0.182192
C38   C     C_R   0.496619 0.502503 0.230200 -0.078013
C39   C     C_R   0.550947 0.574189 0.197604 -0.252938
C40   C     C_R   0.554724 0.573456 0.105608 0.119555
C41   C     C_R   0.502361 0.500626 0.046317 0.058639
C42   C     C_R   0.560916 0.570160 0.920334 0.121730
C43   C     C_R   0.504862 0.499305 0.953765 0.062637
C44   C     C_R   0.450888 0.427249 0.894548 0.115947
C45   C     C_R   0.396927 0.356118 0.928272 -0.213083
C46   C     C_R   0.396011 0.356391 0.020847 -0.185674
H1    H     H_    0.411147 0.370845 0.198121 0.222390
H2    H     H_    0.057658 0.279844 0.334655 0.199221
H3    H     H_    0.590418 0.630007 0.243965 0.161474
H4    H     H_    0.187049 0.549626 0.552337 0.153195
H5    H     H_    0.736612 0.671929 0.637478 0.128005
H6    H     H_    0.068176 0.631829 0.616195 0.141510
H7    H     H_    0.922599 0.722147 0.680332 0.149614
H8    H     H_    0.749178 0.399116 0.431539 0.213333
H9    H     H_    0.650686 0.699714 0.117110 0.152218
H10   H     H_    0.656478 0.696564 0.954506 0.148591
H11   H     H_    0.603874 0.623043 0.800643 0.141836
H12   H     H_    0.704544 0.879689 0.703031 0.139749
H13   H     H_    0.409334 0.373576 0.755925 0.156795
H14   H     H_    0.355639 0.300457 0.883139 0.152713
H15   H     H_    0.354173 0.300807 0.046297 0.171798
H16   H     H_    0.748186 0.220036 0.633488 0.162792
H17   H     H_    0.382808 0.226275 0.284040 0.350414
H18   H     H_    0.776201 0.043815 0.694358 0.139616
H19   H     H_    0.455623 0.158693 0.442897 0.189985
H20   H     H_    0.244092 0.783909 0.396905 0.167706
H21   H     H_    0.315280 0.089454 0.433998 0.154875
H22   H     H_    0.190369 0.968781 0.369792 0.155981
H23   H     H_    0.568423 0.765847 0.644355 0.148157
H24   H     H_    0.884290 0.301318 0.367123 0.159147
N1    N     N_R   0.222190 0.444670 0.452360 -0.153160
N2    N     N_R   0.776970 0.554790 0.547140 -0.132014
O1    O     O_R   0.366740 0.627160 0.477250 -0.618867
O2    O     O_2   0.232694 0.433034 0.236429 -0.291678
O3    O     O_3   0.374816 0.285649 0.325241 -0.607962
O4    O     O_R   0.544830 0.662520 0.507680 -0.616852
O5    O     O_R   0.410940 0.482340 0.616930 -0.631082
O6    O     O_R   0.589030 0.517700 0.647360 -0.628966
O7    O     O_R   0.455170 0.337480 0.492320 -0.562837
O8    O     O_R   0.633260 0.372840 0.522750 -0.650323
O9    O     O_R   0.410970 0.482300 0.352640 -0.508097
O10   O     O_R   0.589060 0.517660 0.383070 -0.649296
O11   O     O_2   0.180494 0.261551 0.233450 -0.358262
S1    S     S_3+6 0.243260 0.337921 0.292966 -0.002705
Zn1   Zn    Zn3+2 0.381090 0.476390 0.479680 1.014691
Zn2   Zn    Zn3+2 0.618910 0.523610 0.520320 0.930117

loop_
_geom_bond_atom_site_label_1
_geom_bond_atom_site_label_2
_ccdc_geom_bond_type
C22   H2    S    
C45   H14   S    
C1    C21   S    
C27   C29   A    
C34   C42   A    
C2    H11   S    
C10   H21   S    
C34   H10   S    
C26   C27   A    
C37   C38   A    
C13   C18   A    
C25   H7    S    
C30   C31   A    
C11   C14   A    
O3    S1    S    
C23   C40   A    
C29   C33   A    
C6    H18   S    
C12   C37   A    
O8    Zn2   S    
C6    C15   A    
N1    Zn1   S    
O11   S1    D    
C8    C9    A    
C8    H20   S    
C37   H1    S    
C9    C10   A    
C36   N1    A    
C17   H12   S    
C29   N2    A    
O6    Zn2   S    
C18   H23   S    
O5    Zn1   S    
C27   C30   A    
C41   C43   A    
C8    C21   A    
C24   H5    S    
C22   C31   A    
C5    H13   S    
C46   H15   S    
C28   O10   A    
C24   C25   A    
C12   C46   A    
C39   C40   A    
C32   H24   S    
C25   C26   A    
C45   C46   A    
C16   O8    A    
C43   C44   A    
C4    O6    A    
C12   C41   A    
C26   H6    S    
C31   C32   A    
C28   C38   S    
C2    C42   A    
C23   C34   A    
C35   H4    S    
C17   C18   A    
C13   C21   A    
O1    Zn1   S    
C30   C35   A    
C7    C16   S    
C39   H3    S    
C5    C44   A    
C7    C19   A    
C42   C43   A    
C3    C4    S    
O4    Zn2   S    
O7    Zn1   S    
C6    C20   A    
C44   C45   A    
C24   N2    A    
C33   H8    S    
C15   C17   A    
C40   C41   A    
C28   O9    A    
C1    O4    A    
C14   C19   A    
O2    S1    D    
C3    C5    A    
N2    Zn2   S    
C23   H9    S    
C22   C36   A    
C16   O7    A    
C1    O1    A    
C32   C33   A    
C2    C3    A    
C9    H22   S    
C4    O5    A    
O10   Zn2   S    
C11   C13   A    
C38   C39   A    
H17   O3    S    
C36   S1    S    
C19   H19   S    
C20   H16   S    
C10   C11   A    
C35   N1    A    
C7    C20   A    
C14   C15   A    
O9    Zn1   S    
