data_mof_unit_39277.cif
_audit_creation_date              2012-12-11T14:43:37-0500
_audit_creation_method            fapswitch 2.2
_symmetry_space_group_name_H-M    P1
_symmetry_Int_Tables_number       1
_space_group_crystal_system       triclinic
_cell_length_a                    20.781388
_cell_length_b                    7.100304
_cell_length_c                    16.418127
_cell_angle_alpha                 89.999916
_cell_angle_beta                  92.479992
_cell_angle_gamma                 90.000084
_cell_volume                      2420.2941508

loop_
_atom_site_label
_atom_site_type_symbol
_atom_type_description
_atom_site_fract_x
_atom_site_fract_y
_atom_site_fract_z
_atom_type_partial_charge
O1    O     O_R   0.564840 0.505290 0.579830 -0.537228
O2    O     O_R   0.435160 0.005290 0.420170 -0.537227
O3    O     O_R   0.556720 0.179930 0.409350 -0.537681
O4    O     O_R   0.443280 0.679930 0.590650 -0.537681
C1    C     C_R   0.570219 0.344982 0.380863 0.718529
C2    C     C_R   0.429781 0.844981 0.619137 0.718529
O5    O     O_R   0.572280 0.175810 0.578530 -0.543131
O6    O     O_R   0.427720 0.675810 0.421470 -0.543131
O7    O     O_R   0.450830 0.001920 0.590540 -0.536381
O8    O     O_R   0.549170 0.501920 0.409460 -0.536381
C3    C     C_R   0.590093 0.342753 0.604992 0.692035
C4    C     C_R   0.409906 0.842753 0.395008 0.692035
O9    O     O_3   0.460130 0.338030 0.503750 -0.372393
O10   O     O_3   0.539870 0.838030 0.496250 -0.372393
V1    V     V_3+5 0.507400 0.064560 0.499310 1.409112
V2    V     V_3+5 0.492600 0.564560 0.500690 1.409112
C5    C     C_R   0.144120 0.926519 0.167447 -0.065933
C6    C     C_R   0.855880 0.426518 0.832552 -0.065933
C7    C     C_R   0.355436 0.839244 0.332933 -0.065251
C8    C     C_R   0.644564 0.339244 0.667067 -0.065251
C9    C     C_R   0.291226 0.656983 0.232280 -0.200405
C10   C     C_R   0.708773 0.156985 0.767721 -0.200404
C11   C     C_R   0.345593 0.676327 0.284688 -0.162545
C12   C     C_R   0.654406 0.176329 0.715313 -0.162545
C13   C     C_R   0.309934 0.985374 0.326023 -0.244658
C14   C     C_R   0.690066 0.485374 0.673976 -0.244657
C15   C     C_R   0.254571 0.965878 0.273699 0.161257
C16   C     C_R   0.745429 0.465877 0.726301 0.161256
C17   C     C_R   0.244932 0.799899 0.226709 0.158583
C18   C     C_R   0.755067 0.299900 0.773291 0.158582
C19   C     C_R   0.189600 0.780400 0.174369 -0.250215
C20   C     C_R   0.810400 0.280401 0.825631 -0.250214
C21   C     C_R   0.153892 0.089397 0.215723 -0.163684
C22   C     C_R   0.846108 0.589395 0.784275 -0.163685
C23   C     C_R   0.208256 0.108787 0.268128 -0.204833
C24   C     C_R   0.791745 0.608785 0.731871 -0.204832
H1    H     H_    0.183137 0.655058 0.137201 0.127447
H2    H     H_    0.816862 0.155059 0.862801 0.127447
H3    H     H_    0.119606 0.204358 0.212180 0.149403
H4    H     H_    0.880395 0.704356 0.787818 0.149402
H5    H     H_    0.285122 0.529109 0.196728 0.122489
H6    H     H_    0.714876 0.029111 0.803274 0.122489
H7    H     H_    0.214342 0.236691 0.303662 0.121461
H8    H     H_    0.785660 0.736689 0.696336 0.121461
H9    H     H_    0.379865 0.561336 0.288204 0.126928
H10   H     H_    0.620133 0.061338 0.711797 0.126928
H11   H     H_    0.316410 0.110739 0.363172 0.123349
H12   H     H_    0.683591 0.610737 0.636826 0.123349
C25   C     C_R   0.382247 0.888582 0.837269 0.299483
C26   C     C_R   0.617752 0.388607 0.162732 0.299485
H13   H     H_    0.471206 0.872222 0.775146 0.107396
H14   H     H_    0.528794 0.372248 0.224854 0.107396
H15   H     H_    0.299492 0.933786 0.957446 0.166667
H16   H     H_    0.700508 0.433821 0.042555 0.166667
C27   C     C_R   0.389558 0.855723 0.690759 -0.076416
C28   C     C_R   0.610442 0.355726 0.309241 -0.076416
C29   C     C_R   0.076590 0.886610 0.731196 0.286080
C30   C     C_R   0.923410 0.386595 0.268803 0.286082
C31   C     C_R   0.112154 0.862805 0.661741 -0.189555
C32   C     C_R   0.887846 0.362785 0.338258 -0.189555
C33   C     C_R   0.179197 0.860147 0.666951 -0.204605
C34   C     C_R   0.820803 0.360133 0.333049 -0.204605
C35   C     C_R   0.213656 0.880341 0.742640 0.101044
C36   C     C_R   0.786344 0.380339 0.257360 0.101044
C37   C     C_R   0.177370 0.904065 0.814004 0.016815
C38   C     C_R   0.822631 0.404070 0.185996 0.016815
C39   C     C_R   0.282817 0.875881 0.749795 0.038950
C40   C     C_R   0.717183 0.375884 0.250205 0.038949
C41   C     C_R   0.314077 0.893024 0.828480 0.098851
C42   C     C_R   0.685923 0.393042 0.171521 0.098851
C43   C     C_R   0.276985 0.917355 0.897148 -0.178965
C44   C     C_R   0.723015 0.417379 0.102853 -0.178965
C45   C     C_R   0.210199 0.922465 0.890140 -0.201961
C46   C     C_R   0.789801 0.422482 0.109861 -0.201962
C47   C     C_R   0.322167 0.856487 0.681488 -0.226242
C48   C     C_R   0.677832 0.356482 0.318511 -0.226243
C49   C     C_R   0.419082 0.872640 0.768220 -0.238102
C50   C     C_R   0.580918 0.372659 0.231781 -0.238101
C51   C     C_R   0.108770 0.906921 0.807931 -0.124376
C52   C     C_R   0.891230 0.406919 0.192069 -0.124375
H17   H     H_    0.302258 0.844990 0.620029 0.102780
H18   H     H_    0.697742 0.344973 0.379970 0.102780
H19   H     H_    0.202462 0.840308 0.610280 0.123527
H20   H     H_    0.797538 0.340289 0.389719 0.123527
H21   H     H_    0.087492 0.845990 0.602696 0.122245
H22   H     H_    0.912508 0.345961 0.397302 0.122245
H23   H     H_    0.184415 0.941221 0.945480 0.109929
H24   H     H_    0.815585 0.441244 0.054522 0.109931
O11   O     O_R   0.950790 0.256670 0.090520 -0.530154
O12   O     O_R   0.049210 0.756670 0.909480 -0.530156
O13   O     O_R   0.927720 0.590370 0.921470 -0.538390
O14   O     O_R   0.072280 0.090370 0.078530 -0.538390
C53   C     C_R   0.910213 0.423023 0.894728 0.682461
C54   C     C_R   0.089787 0.923023 0.105272 0.682462
O15   O     O_R   0.943270 0.586180 0.090640 -0.545205
O16   O     O_R   0.056730 0.086180 0.909360 -0.545204
O17   O     O_R   0.064850 0.759970 0.079840 -0.539425
O18   O     O_R   0.935150 0.259970 0.920160 -0.539423
C55   C     C_R   0.930483 0.417541 0.119075 0.742534
C56   C     C_R   0.069517 0.917541 0.880925 0.742536
O19   O     O_3   0.039850 0.428050 0.996240 -0.371657
O20   O     O_3   0.960150 0.928050 0.003760 -0.371657
V3    V     V_3+5 0.992610 0.701540 0.000700 1.427055
V4    V     V_3+5 0.007390 0.201540 0.999300 1.427058
N1    N     N_2   0.008039 0.883508 0.723997 -0.538983
H25   H     H_    0.989985 0.791648 0.679988 0.249831
C57   C     C_3   0.978529 0.067604 0.716556 -0.556700
H26   H     H_    0.991328 0.134962 0.658327 0.188966
H27   H     H_    0.994459 0.159560 0.768233 0.213694
H28   H     H_    0.925338 0.053033 0.717143 0.196439
N2    N     N_2   0.991961 0.383485 0.276002 -0.538982
H29   H     H_    0.010014 0.291623 0.320011 0.249833
C58   C     C_3   0.021474 0.567577 0.283443 -0.556713
H30   H     H_    0.008675 0.634937 0.341671 0.188970
H31   H     H_    0.005546 0.659534 0.231766 0.213696
H32   H     H_    0.074664 0.553001 0.282857 0.196438
N3    N     N_2   0.414333 0.903345 0.915452 -0.533915
H33   H     H_    0.456897 0.978158 0.915078 0.254754
C59   C     C_3   0.422298 0.725479 0.957701 -0.566228
H34   H     H_    0.454489 0.631099 0.923930 0.199591
H35   H     H_    0.374986 0.655414 0.964143 0.207972
H36   H     H_    0.444221 0.750457 0.019645 0.197558
N4    N     N_2   0.585667 0.403388 0.084549 -0.533914
H37   H     H_    0.543104 0.478206 0.084926 0.254753
C60   C     C_3   0.577698 0.225530 0.042295 -0.566233
H38   H     H_    0.545507 0.131148 0.076063 0.199592
H39   H     H_    0.625009 0.155461 0.035850 0.207973
H40   H     H_    0.555775 0.250522 0.980351 0.197559

loop_
_geom_bond_atom_site_label_1
_geom_bond_atom_site_label_2
_ccdc_geom_bond_type
C29   N1    S    
C35   C37   A    
C28   C48   A    
C15   C17   A    
C29   C51   A    
C1    C28   S    
N2    H29   S    
O1    C3    A    
C2    C27   S    
O2    C4    A    
C2    O7    A    
H13   C49   S    
C37   C45   A    
N4    H37   S    
O5    C3    A    
N1    C57   S    
C21   H3    S    
O11   C55   A    
C11   H9    S    
C36   C40   A    
N3    C59   S    
C27   C49   A    
O15   C55   A    
N4    C60   S    
C30   C32   A    
C38   C46   A    
C28   C50   A    
C32   C34   A    
C41   C43   A    
C45   H23   S    
C34   C36   A    
C25   N3    S    
C8    C12   A    
C60   H40   S    
C57   H26   S    
C20   H2    S    
C23   H7    S    
C13   H11   S    
C22   C24   A    
C14   H12   S    
C58   H32   S    
C27   C47   A    
O5    V1    S    
O6    V2    S    
C25   C41   A    
C17   C19   A    
C57   H27   S    
C5    C21   A    
H14   C50   S    
C26   C50   A    
O12   C56   A    
O15   V3    S    
C59   H35   S    
C35   C39   A    
C3    C8    S    
C31   C33   A    
C30   N2    S    
C51   C56   S    
C44   C46   A    
C33   H19   S    
C48   H18   S    
C43   C45   A    
C32   H22   S    
C47   H17   S    
C54   O17   A    
C15   C23   A    
C9    C17   A    
C19   H1    S    
C39   C41   A    
C36   C38   A    
O4    V2    S    
C7    C11   A    
C31   H21   S    
O13   C53   A    
O6    C4    A    
C37   C51   A    
O14   C54   A    
H16   C44   S    
N2    C58   S    
O1    V2    S    
O20   V4    S    
O2    V1    S    
C6    C22   A    
O17   V3    S    
C9    H5    S    
O4    C2    A    
O19   V4    S    
C9    C11   A    
O11   V4    S    
C60   H38   S    
C5    C19   A    
C57   H28   S    
C22   H4    S    
C24   H8    S    
C39   C47   A    
H15   C43   S    
O3    V1    S    
C58   H30   S    
C59   H36   S    
C6    C53   S    
C34   H20   S    
C10   C18   A    
C33   C35   A    
C26   N4    S    
O13   V3    S    
O3    C1    A    
C59   H34   S    
C30   C52   A    
C40   C48   A    
C38   C52   A    
N1    H25   S    
C14   C16   A    
C12   H10   S    
O16   V4    S    
C26   C42   A    
C1    O8    A    
C52   C55   S    
O8    V2    S    
N3    H33   S    
C18   C20   A    
C10   H6    S    
C8    C14   A    
O18   V4    S    
O16   C56   A    
C4    C7    S    
C16   C18   A    
C21   C23   A    
C25   C49   A    
C10   C12   A    
O7    V1    S    
O20   V3    S    
C7    C13   A    
O12   V3    S    
C29   C31   A    
O14   V4    S    
C6    C20   A    
C16   C24   A    
O19   V3    S    
O9    V2    S    
C60   H39   S    
C40   C42   A    
O10   V1    S    
C42   C44   A    
C5    C54   S    
C46   H24   S    
C53   O18   A    
C58   H31   S    
C13   C15   A    
