data_mof_unit_47128.cif
_audit_creation_date              2012-12-10T17:28:34-0500
_audit_creation_method            fapswitch 2.2
_symmetry_space_group_name_H-M    P1
_symmetry_Int_Tables_number       1
_space_group_crystal_system       triclinic
_cell_length_a                    10.542376
_cell_length_b                    11.956276
_cell_length_c                    12.883489
_cell_angle_alpha                 93.308122
_cell_angle_beta                  90.961791
_cell_angle_gamma                 84.831774
_cell_volume                      1614.52553211

loop_
_atom_site_label
_atom_site_type_symbol
_atom_type_description
_atom_site_fract_x
_atom_site_fract_y
_atom_site_fract_z
_atom_type_partial_charge
C1    C     C_R   0.498220 0.522000 0.700566 0.896767
C2    C     C_R   0.501779 0.478000 0.299434 0.896767
C3    C     C_R   0.504111 0.464857 0.188197 -0.038666
C4    C     C_R   0.495883 0.535143 0.811803 -0.038666
C5    C     C_R   0.447342 0.647446 0.969239 -0.217045
C6    C     C_R   0.552647 0.352555 0.030761 -0.217043
C7    C     C_R   0.455759 0.638952 0.861977 -0.175270
C8    C     C_R   0.544234 0.361048 0.138022 -0.175272
C9    C     C_R   0.530028 0.440492 0.868040 -0.275658
C10   C     C_R   0.469961 0.559508 0.131959 -0.275656
C11   C     C_R   0.520989 0.447894 0.974544 0.185364
C12   C     C_R   0.478998 0.552106 0.025455 0.185363
C13   C     C_R   0.408693 0.953585 0.384036 -0.340205
C14   C     C_R   0.591306 0.046415 0.615964 -0.340206
C15   C     C_R   0.414373 0.837578 0.397366 0.018243
C16   C     C_R   0.585626 0.162422 0.602634 0.018243
C17   C     C_R   0.533841 0.859234 0.553548 -0.047691
C18   C     C_R   0.466160 0.140766 0.446451 -0.047692
C19   C     C_R   0.531651 0.976200 0.543051 0.095775
C20   C     C_R   0.468349 0.023800 0.456949 0.095774
C21   C     C_R   0.740303 0.500332 0.516426 0.900923
C22   C     C_R   0.259696 0.499668 0.483575 0.900921
C23   C     C_R   0.916507 0.289125 0.537973 -0.114518
C24   C     C_R   0.083493 0.710875 0.462034 -0.114519
C25   C     C_R   0.981480 0.190202 0.496663 -0.171828
C26   C     C_R   0.018522 0.809798 0.503346 -0.171829
C27   C     C_R   0.080515 0.195728 0.427552 -0.180330
C28   C     C_R   0.919486 0.804271 0.572456 -0.180331
C29   C     C_R   0.122527 0.299976 0.407457 0.066397
C30   C     C_R   0.877472 0.700024 0.592548 0.066396
C31   C     C_R   0.067135 0.399460 0.460390 0.039233
C32   C     C_R   0.932864 0.600540 0.539614 0.039235
C33   C     C_R   0.952979 0.395284 0.513086 0.074952
C34   C     C_R   0.047021 0.604717 0.486919 0.074951
C35   C     C_R   0.122327 0.502610 0.463443 -0.246990
C36   C     C_R   0.877672 0.497390 0.536560 -0.246991
H1    H     H_    0.876512 0.881048 0.611021 0.132813
H2    H     H_    0.123489 0.118950 0.388988 0.132813
H3    H     H_    0.358761 0.987851 0.317171 0.144147
H4    H     H_    0.641238 0.012149 0.682829 0.144146
H5    H     H_    0.839072 0.281990 0.590519 0.143547
H6    H     H_    0.160927 0.718012 0.409488 0.143549
H7    H     H_    0.951203 0.109422 0.514639 0.138591
H8    H     H_    0.048799 0.890578 0.485372 0.138591
H9    H     H_    0.437356 0.639560 0.170952 0.150957
H10   H     H_    0.562632 0.360440 0.829047 0.150958
H11   H     H_    0.570858 0.287520 0.181577 0.163129
H12   H     H_    0.429139 0.712481 0.818423 0.163130
H13   H     H_    0.415438 0.727690 0.007993 0.139111
H14   H     H_    0.584551 0.272311 0.992007 0.139111
H15   H     H_    0.418854 0.178345 0.380496 0.136683
H16   H     H_    0.581147 0.821655 0.619503 0.136682
H17   H     H_    0.630517 0.216476 0.659604 0.116971
H18   H     H_    0.369480 0.783524 0.340397 0.116971
N1    N     N_R   0.523130 0.207800 0.519340 -0.097861
N2    N     N_R   0.476870 0.792200 0.480660 -0.097861
O1    O     O_R   0.506170 0.421700 0.658830 -0.636339
O2    O     O_R   0.493830 0.578300 0.341170 -0.636336
O3    O     O_R   0.491330 0.609310 0.646410 -0.621381
O4    O     O_R   0.508670 0.390690 0.353590 -0.621380
O5    O     O_R   0.690650 0.406190 0.506220 -0.624560
O6    O     O_R   0.309350 0.593810 0.493780 -0.624562
O7    O     O_R   0.675800 0.593810 0.493800 -0.598842
O8    O     O_R   0.324200 0.406190 0.506200 -0.598842
Zn1   Zn    Zn3+2 0.509910 0.374730 0.508290 0.951096
Zn2   Zn    Zn3+2 0.490090 0.625270 0.491710 0.951096
C37   C     C_1   0.206896 0.305141 0.321122 0.112464
N3    N     N_1   0.272843 0.309024 0.250803 -0.219978
C38   C     C_1   0.793102 0.694857 0.678881 0.112463
N4    N     N_1   0.727153 0.690974 0.749199 -0.219978

loop_
_geom_bond_atom_site_label_1
_geom_bond_atom_site_label_2
_ccdc_geom_bond_type
C8    H11   S    
C18   H15   S    
C11   C12   A    
C31   C33   A    
C2    O2    A    
C1    O1    A    
C22   O6    A    
C24   H6    S    
C21   O5    A    
C19   C20   A    
C23   H5    S    
C13   C15   A    
C1    C4    S    
C7    H12   S    
C25   H7    S    
C10   H9    S    
C1    O3    A    
C2    C3    S    
C4    C9    A    
O7    Zn2   S    
C26   H8    S    
C9    H10   S    
C29   C31   A    
C3    C10   A    
C6    H14   S    
C30   C32   A    
C22   C35   S    
C9    C11   A    
C17   N2    A    
C5    H13   S    
C30   C38   S    
C10   C12   A    
C28   H1    S    
C5    C12   A    
C4    C7    A    
N2    Zn2   S    
C32   C36   A    
C17   H16   S    
C28   C30   A    
N1    Zn1   S    
C14   H4    S    
C24   C26   A    
O4    Zn1   S    
C3    C8    A    
C18   N1    A    
C31   C35   A    
C23   C25   A    
O3    Zn2   S    
C38   N4    T    
C15   N2    A    
C2    O4    A    
C16   N1    A    
C13   H3    S    
O6    Zn2   S    
C27   H2    S    
C22   O8    A    
C37   N3    T    
C15   H18   S    
O5    Zn1   S    
C33   C36   A    
C27   C29   A    
C18   C20   A    
C5    C7    A    
C34   C35   A    
C6    C11   A    
C21   C36   S    
C25   C27   A    
C16   H17   S    
C6    C8    A    
C13   C20   A    
C17   C19   A    
C14   C16   A    
C29   C37   S    
C26   C28   A    
C14   C19   A    
O2    Zn2   S    
C24   C34   A    
C21   O7    A    
O1    Zn1   S    
C23   C33   A    
O8    Zn1   S    
C32   C34   A    
