data_mof_unit_19525.cif
_audit_creation_date              2012-12-10T17:43:51-0500
_audit_creation_method            fapswitch 2.2
_symmetry_space_group_name_H-M    P1
_symmetry_Int_Tables_number       1
_space_group_crystal_system       triclinic
_cell_length_a                    15.858931
_cell_length_b                    15.07781
_cell_length_c                    13.708677
_cell_angle_alpha                 90.061665
_cell_angle_beta                  89.815953
_cell_angle_gamma                 90.242704
_cell_volume                      3277.94254798

loop_
_atom_site_label
_atom_site_type_symbol
_atom_type_description
_atom_site_fract_x
_atom_site_fract_y
_atom_site_fract_z
_atom_type_partial_charge
C1    C     C_R   0.500578 0.329244 0.499994 0.835384
C2    C     C_R   0.499430 0.670756 0.500005 0.835382
C3    C     C_R   0.499539 0.766957 0.499917 -0.118978
C4    C     C_R   0.500468 0.233044 0.500077 -0.118984
C5    C     C_R   0.577259 0.812551 0.506634 0.063724
C6    C     C_R   0.422749 0.187452 0.493347 0.063731
C7    C     C_R   0.577370 0.906185 0.502428 0.088786
C8    C     C_R   0.422639 0.093817 0.497523 0.088789
C9    C     C_R   0.499921 0.952842 0.499906 0.009278
C10   C     C_R   0.500088 0.047160 0.500042 0.009276
C11   C     C_R   0.422308 0.905774 0.497028 0.088116
C12   C     C_R   0.577701 0.094228 0.502920 0.088111
C13   C     C_R   0.653206 0.954600 0.500214 -0.212546
C14   C     C_R   0.346802 0.045402 0.499697 -0.212537
C15   C     C_R   0.653364 0.046236 0.500593 -0.214418
C16   C     C_R   0.346645 0.953767 0.499316 -0.214417
C17   C     C_R   0.555029 0.446779 0.792533 0.006660
C18   C     C_R   0.444969 0.553220 0.207467 0.006647
C19   C     C_R   0.445075 0.552734 0.793669 0.033314
C20   C     C_R   0.554926 0.447268 0.206331 0.033317
C21   C     C_R   0.443900 0.553744 0.896478 -0.024616
C22   C     C_R   0.556100 0.446257 0.103522 -0.024613
C23   C     C_R   0.339729 0.499559 0.500145 0.831952
C24   C     C_R   0.660270 0.500441 0.499855 0.831996
C25   C     C_R   0.500411 0.499719 0.948181 0.042451
C26   C     C_R   0.499590 0.500282 0.051819 0.042457
C27   C     C_R   0.557550 0.445237 0.896085 -0.021241
C28   C     C_R   0.442449 0.554762 0.103915 -0.021254
C29   C     C_R   0.387221 0.607614 0.947932 -0.242129
C30   C     C_R   0.612780 0.392387 0.052068 -0.242141
C31   C     C_R   0.385361 0.608851 0.050846 0.167704
C32   C     C_R   0.614638 0.391148 0.949154 0.167700
C33   C     C_3   0.970199 0.469083 0.585804 -0.199882
C34   C     C_3   0.029799 0.530923 0.414200 -0.199879
C35   C     C_3   0.025420 0.417012 0.512780 0.218617
C36   C     C_3   0.974579 0.582994 0.487224 0.218619
C37   C     C_1   0.250085 0.498497 0.500552 -0.180169
C38   C     C_1   0.749914 0.501505 0.499449 -0.180192
C39   C     C_3   0.028795 0.551206 0.573657 -0.198074
C40   C     C_3   0.971204 0.448800 0.426348 -0.198072
C41   C     C_3   0.082916 0.498219 0.500763 0.108187
C42   C     C_3   0.917083 0.501787 0.499241 0.108194
C43   C     C_1   0.174560 0.497860 0.500846 -0.078070
C44   C     C_1   0.825439 0.502145 0.499156 -0.078092
C45   C     C_R   0.422045 0.812145 0.492414 0.057984
C46   C     C_R   0.577964 0.187855 0.507563 0.057984
Cu1   Cu    Cu3+1 0.500010 0.499990 0.597420 0.925537
Cu2   Cu    Cu3+1 0.499990 0.500010 0.402580 0.925526
H1    H     H_    0.343602 0.648653 0.907481 0.134095
H2    H     H_    0.656398 0.351348 0.092521 0.134098
H3    H     H_    0.944679 0.443292 0.655800 0.139305
H4    H     H_    0.055320 0.556714 0.344204 0.139303
H5    H     H_    0.946528 0.406692 0.366314 0.137064
H6    H     H_    0.053471 0.593314 0.633690 0.137066
H7    H     H_    0.714115 0.923085 0.496936 0.153979
H8    H     H_    0.285889 0.076916 0.502938 0.153973
H9    H     H_    0.596614 0.405825 0.749512 0.142830
H10   H     H_    0.403381 0.594171 0.250489 0.142845
N1    N     N_R   0.499960 0.499930 0.743810 -0.187999
N2    N     N_R   0.500040 0.500070 0.256190 -0.187998
O1    O     O_R   0.500020 0.370250 0.582280 -0.592164
O2    O     O_R   0.499980 0.629750 0.417720 -0.592175
O3    O     O_R   0.500010 0.370270 0.417740 -0.587902
O4    O     O_R   0.499990 0.629730 0.582260 -0.587895
O5    O     O_R   0.379080 0.499980 0.582260 -0.578443
O6    O     O_R   0.620920 0.500020 0.417740 -0.578462
O7    O     O_R   0.379070 0.500000 0.417710 -0.590616
O8    O     O_R   0.620930 0.500000 0.582290 -0.590611
C47   C     C_3   0.055914 0.322172 0.528117 -0.415483
C48   C     C_3   0.982188 0.256979 0.532910 -0.843290
H11   H     H_    0.939211 0.274328 0.594100 0.250078
H12   H     H_    0.946299 0.257754 0.463481 0.248470
H13   H     H_    0.006480 0.188925 0.544944 0.241477
H14   H     H_    0.098501 0.303420 0.467068 0.203488
H15   H     H_    0.091751 0.319051 0.597456 0.200920
C49   C     C_3   0.944084 0.677833 0.471890 -0.415478
C50   C     C_3   0.017809 0.743026 0.467081 -0.843352
H16   H     H_    0.053698 0.742263 0.536508 0.248473
H17   H     H_    0.060782 0.725669 0.405896 0.250088
H18   H     H_    0.993520 0.811077 0.455038 0.241485
H19   H     H_    0.908237 0.680954 0.402557 0.200928
H20   H     H_    0.901505 0.696587 0.532944 0.203496
C51   C     C_3   0.321625 0.668400 0.100760 -0.418759
C52   C     C_3   0.246052 0.615249 0.138443 -0.840158
H21   H     H_    0.213524 0.581958 0.076710 0.255483
H22   H     H_    0.265781 0.564256 0.191903 0.250127
H23   H     H_    0.200827 0.660639 0.174851 0.237185
H24   H     H_    0.351594 0.706178 0.161049 0.188658
H25   H     H_    0.297729 0.719075 0.048984 0.202131
C53   C     C_3   0.678372 0.331595 0.899241 -0.418756
C54   C     C_3   0.753946 0.384742 0.861555 -0.840167
H26   H     H_    0.734225 0.435691 0.808045 0.250122
H27   H     H_    0.786444 0.418086 0.923281 0.255483
H28   H     H_    0.799195 0.339342 0.825213 0.237196
H29   H     H_    0.702265 0.280922 0.951021 0.202131
H30   H     H_    0.648402 0.293816 0.838955 0.188659
C55   C     C_3   0.340038 0.759776 0.478286 -0.401603
C56   C     C_3   0.297295 0.739501 0.575756 -0.842624
H31   H     H_    0.237201 0.703370 0.562702 0.240256
H32   H     H_    0.338633 0.697243 0.621244 0.256441
H33   H     H_    0.283250 0.801528 0.616189 0.248644
H34   H     H_    0.296081 0.795167 0.429210 0.192240
H35   H     H_    0.351040 0.696348 0.439397 0.199322
C57   C     C_3   0.659967 0.240221 0.521723 -0.401657
C58   C     C_3   0.702705 0.260560 0.424266 -0.842690
H36   H     H_    0.661353 0.302809 0.378795 0.256468
H37   H     H_    0.762778 0.296721 0.437338 0.240272
H38   H     H_    0.716784 0.198559 0.383808 0.248637
H39   H     H_    0.648958 0.303626 0.560660 0.199324
H40   H     H_    0.703926 0.204811 0.570764 0.192285
C59   C     C_3   0.659250 0.760341 0.517426 -0.404434
C60   C     C_3   0.699016 0.741127 0.418123 -0.831328
H41   H     H_    0.757111 0.701590 0.428226 0.231736
H42   H     H_    0.654810 0.702374 0.371945 0.270465
H43   H     H_    0.715681 0.803682 0.379945 0.248646
H44   H     H_    0.704768 0.795141 0.565470 0.190928
H45   H     H_    0.648836 0.696506 0.555708 0.205607
C61   C     C_3   0.340755 0.239663 0.482574 -0.404364
C62   C     C_3   0.300968 0.258816 0.581885 -0.831342
H46   H     H_    0.345156 0.297573 0.628087 0.270447
H47   H     H_    0.242860 0.298323 0.571791 0.231747
H48   H     H_    0.284326 0.196233 0.620031 0.248651
H49   H     H_    0.351168 0.303527 0.444342 0.205592
H50   H     H_    0.295246 0.204887 0.434493 0.190902
H51   H     H_    0.714357 0.078168 0.497668 0.155521
H52   H     H_    0.285647 0.921838 0.502206 0.155516
H53   H     H_    0.402055 0.594159 0.753108 0.122179
H54   H     H_    0.597947 0.405844 0.246892 0.122178

loop_
_geom_bond_atom_site_label_1
_geom_bond_atom_site_label_2
_ccdc_geom_bond_type
C14   H8    S    
C36   C42   S    
C59   C60   S    
C52   H23   S    
C60   H42   S    
C55   C56   S    
C53   H29   S    
C39   C41   S    
C29   H1    S    
C50   H16   S    
C58   H37   S    
C33   C39   S    
C34   C40   S    
C33   C42   S    
C19   C21   A    
C52   H22   S    
C20   H54   S    
C57   H39   S    
C4    C46   A    
C62   H48   S    
C39   H6    S    
C31   C51   S    
C23   O7    A    
C61   C62   S    
C57   C58   S    
C36   C49   S    
C18   H10   S    
C32   C53   S    
C51   C52   S    
C24   C38   S    
C47   H15   S    
C59   H44   S    
C20   N2    A    
C9    C10   A    
C55   H34   S    
C24   O6    A    
C40   C42   S    
C51   H24   S    
C30   H2    S    
C41   C43   S    
C34   C41   S    
C42   C44   S    
C1    O3    A    
C60   H41   S    
C2    O4    A    
Cu2   N2    S    
C62   H47   S    
C51   H25   S    
C58   H38   S    
C17   C27   A    
C18   C28   A    
C52   H21   S    
C4    C6    A    
C49   H20   S    
C54   H26   S    
C5    C7    A    
Cu2   O3    S    
C6    C8    A    
C5    C59   S    
C19   N1    A    
C25   C26   A    
C23   C37   S    
C46   C57   S    
C3    C45   A    
C37   C43   T    
C28   C31   A    
C38   C44   T    
C54   H27   S    
C11   C16   A    
Cu2   O2    S    
Cu1   Cu2   S    
C12   C15   A    
C48   H13   S    
C50   H17   S    
C47   H14   S    
C61   H50   S    
C49   C50   S    
C9    C11   A    
C55   H35   S    
C10   C12   A    
C17   N1    A    
C12   C46   A    
C20   C22   A    
C40   H5    S    
C56   H32   S    
C13   C15   A    
C15   H51   S    
C14   C16   A    
C11   C45   A    
C33   H3    S    
Cu1   O8    S    
Cu1   O4    S    
C48   H11   S    
C57   H40   S    
C50   H18   S    
C18   N2    A    
C7    C9    A    
C21   C25   A    
C8    C14   A    
C22   C30   A    
C27   C32   A    
C34   H4    S    
C36   C39   S    
C3    C5    A    
C1    O1    A    
C49   H19   S    
Cu1   O1    S    
C62   H46   S    
C53   H30   S    
C25   C27   A    
C56   H33   S    
C58   H36   S    
C26   C28   A    
C59   H45   S    
C1    C4    S    
C23   O5    A    
C35   C40   S    
C29   C31   A    
C45   C55   S    
C54   H28   S    
C30   C32   A    
C53   C54   S    
C21   C29   A    
C19   H53   S    
C33   C35   S    
C6    C61   S    
C2    C3    S    
C34   C36   S    
C61   H49   S    
Cu2   O7    S    
C47   C48   S    
C35   C41   S    
C24   O8    A    
Cu1   N1    S    
C7    C13   A    
C35   C47   S    
C8    C10   A    
C56   H31   S    
C22   C26   A    
C48   H12   S    
Cu2   O6    S    
C16   H52   S    
Cu1   O5    S    
C60   H43   S    
C2    O2    A    
C17   H9    S    
C13   H7    S    
