data_mof_unit_5940.cif
_audit_creation_date              2012-12-10T18:02:14-0500
_audit_creation_method            fapswitch 2.2
_symmetry_space_group_name_H-M    P1
_symmetry_Int_Tables_number       1
_space_group_crystal_system       triclinic
_cell_length_a                    10.832772
_cell_length_b                    9.502935
_cell_length_c                    23.515014
_cell_angle_alpha                 89.999211
_cell_angle_beta                  90.169592
_cell_angle_gamma                 89.999212
_cell_volume                      2420.69849584

loop_
_atom_site_label
_atom_site_type_symbol
_atom_type_description
_atom_site_fract_x
_atom_site_fract_y
_atom_site_fract_z
_atom_type_partial_charge
C1    C     C_R   0.262009 0.500000 0.499962 0.797145
C2    C     C_R   0.737991 0.499999 0.500037 0.797201
C3    C     C_R   0.505831 0.370675 0.238589 0.400108
C4    C     C_R   0.494810 0.370612 0.761411 0.399913
C5    C     C_R   0.505963 0.372115 0.298130 -0.270310
C6    C     C_R   0.494547 0.372066 0.701870 -0.269617
C7    C     C_R   0.499435 0.499731 0.328180 -0.114422
C8    C     C_R   0.500634 0.499719 0.671821 -0.114667
C9    C     C_R   0.492631 0.626840 0.297947 -0.185079
C10   C     C_R   0.507099 0.626849 0.702056 -0.185148
C11   C     C_R   0.492414 0.626369 0.238749 -0.130142
C12   C     C_R   0.507362 0.626368 0.761253 -0.129662
C13   C     C_R   0.499126 0.499311 0.208837 0.229169
C14   C     C_R   0.501079 0.499277 0.791165 0.228549
C15   C     C_R   0.063851 0.372109 0.499977 -0.167753
C16   C     C_R   0.936149 0.627885 0.500019 -0.168008
C17   C     C_R   0.936153 0.372108 0.500037 -0.167725
C18   C     C_R   0.063846 0.627887 0.499958 -0.168073
C19   C     C_R   0.871805 0.499997 0.500044 -0.020906
C20   C     C_R   0.128195 0.499999 0.499953 -0.020914
C21   C     C_R   0.423482 0.074477 0.464484 -0.011239
C22   C     C_R   0.576522 0.925524 0.535514 -0.012600
C23   C     C_R   0.576517 0.074471 0.535516 -0.011193
C24   C     C_R   0.423478 0.925530 0.464486 -0.012633
C25   C     C_R   0.499789 0.499974 0.390833 0.833064
C26   C     C_R   0.500222 0.499972 0.609166 0.833110
C27   C     C_R   0.610920 0.506902 0.880688 0.597307
C28   C     C_R   0.389215 0.505430 0.119313 0.598650
C29   C     C_R   0.390279 0.504564 0.880181 0.627053
C30   C     C_R   0.609865 0.506073 0.119821 0.626601
C31   C     C_R   0.387655 0.506189 0.939806 -0.020498
C32   C     C_R   0.612473 0.507728 0.060197 -0.020495
C33   C     C_R   0.500196 0.507178 0.969999 -0.007061
C34   C     C_R   0.499930 0.507184 0.030004 -0.007399
C35   C     C_R   0.613000 0.508209 0.940325 -0.003573
C36   C     C_R   0.387122 0.506691 0.059678 -0.003901
C37   C     C_R   0.275713 0.506339 0.969817 -0.129685
C38   C     C_R   0.724407 0.509381 0.030185 -0.129491
C39   C     C_R   0.275449 0.506687 0.029151 -0.132793
C40   C     C_R   0.724665 0.509720 0.970851 -0.133003
Cu1   Cu    Cu3+1 0.500000 0.640660 0.500000 0.957687
Cu2   Cu    Cu3+1 0.500000 0.359340 0.500000 0.958639
H1    H     H_    0.187998 0.505755 0.947588 0.193119
H2    H     H_    0.812121 0.509985 0.052414 0.193090
H3    H     H_    0.187540 0.506352 0.050976 0.192098
H4    H     H_    0.812573 0.510566 0.949026 0.192052
H5    H     H_    0.511644 0.273594 0.321095 0.199677
H6    H     H_    0.489144 0.273524 0.678909 0.199621
H7    H     H_    0.487356 0.726733 0.319979 0.182988
H8    H     H_    0.512046 0.726769 0.680021 0.183145
H9    H     H_    0.487245 0.725151 0.215888 0.192647
H10   H     H_    0.512223 0.725167 0.784108 0.192914
H11   H     H_    0.111896 0.272132 0.499955 0.152642
H12   H     H_    0.888105 0.727863 0.500042 0.152644
H13   H     H_    0.888112 0.272130 0.500073 0.152651
H14   H     H_    0.111887 0.727865 0.499921 0.152620
H15   H     H_    0.362235 0.130734 0.436056 0.125428
H16   H     H_    0.637776 0.869269 0.563939 0.123944
H17   H     H_    0.637765 0.130722 0.563945 0.125528
H18   H     H_    0.362223 0.869281 0.436060 0.123795
N1    N     N_R   0.500744 0.502764 0.852082 -0.453042
N2    N     N_R   0.499426 0.502793 0.147920 -0.453178
N3    N     N_R   0.500000 0.852070 0.500000 -0.162120
N4    N     N_R   0.500000 0.147930 0.500000 -0.162547
O1    O     O_R   0.319640 0.618740 0.500000 -0.588277
O2    O     O_R   0.680360 0.381260 0.500000 -0.588159
O3    O     O_R   0.680360 0.618740 0.500000 -0.588250
O4    O     O_R   0.319640 0.381260 0.500000 -0.588160
O5    O     O_R   0.499960 0.618810 0.417880 -0.582542
O6    O     O_R   0.500040 0.381190 0.582120 -0.582336
O7    O     O_R   0.500040 0.618810 0.582120 -0.582561
O8    O     O_R   0.499960 0.381190 0.417880 -0.582344
O9    O     O_2   0.717890 0.508600 0.851434 -0.525215
O10   O     O_2   0.282232 0.505725 0.148568 -0.524970
O11   O     O_2   0.283557 0.504520 0.850437 -0.493851
O12   O     O_2   0.716583 0.507419 0.149566 -0.493839
S1    S     S_3+6 0.515340 0.207862 0.202254 0.036537
O13   O     O_2   0.637010 0.199631 0.171950 -0.206214
O14   O     O_2   0.506094 0.086643 0.243118 -0.308199
O15   O     O_3   0.401244 0.195298 0.153930 -0.491906
H19   H     H_    0.324088 0.202035 0.176264 0.361993
S2    S     S_3+6 0.486064 0.207730 0.797733 0.036640
O16   O     O_2   0.363741 0.197967 0.827401 -0.205878
O17   O     O_2   0.497486 0.086625 0.756937 -0.308231
O18   O     O_3   0.599097 0.196616 0.846647 -0.492198
H20   H     H_    0.676722 0.204842 0.824739 0.362037

loop_
_geom_bond_atom_site_label_1
_geom_bond_atom_site_label_2
_ccdc_geom_bond_type
C30   C32   A    
C8    C26   S    
Cu1   Cu2   S    
C28   O10   S    
Cu1   O3    S    
C10   H8    S    
O18   H20   S    
C23   H17   S    
C5    H5    S    
C6    H6    S    
C15   H11   S    
C8    C10   A    
Cu2   O6    S    
C1    O4    A    
C7    C9    A    
C21   N4    A    
C27   N1    A    
C17   C19   A    
C22   N3    A    
C13   N2    S    
C1    O1    A    
C31   C33   A    
C32   C38   A    
C17   H13   S    
C18   C20   A    
C3    C13   A    
C18   H14   S    
Cu1   O7    S    
Cu2   O4    S    
C26   O7    A    
C12   H10   S    
S1    O14   D    
C15   C20   A    
C29   N1    A    
C9    H7    S    
C4    C6    A    
C2    O3    A    
C5    C7    A    
C6    C8    A    
C27   C35   A    
S1    O13   D    
C14   N1    S    
C31   C37   A    
C32   C34   A    
C37   H1    S    
C40   H4    S    
C38   H2    S    
C30   O12   S    
C24   H18   S    
C3    C5    A    
Cu2   O8    S    
C33   C34   A    
C25   O8    A    
C9    C11   A    
C10   C12   A    
C16   C18   A    
C23   N4    A    
C12   C14   A    
C24   N3    A    
S2    O17   D    
C30   N2    A    
C26   O6    A    
C25   O5    A    
Cu1   N3    S    
C3    S1    S    
Cu2   N4    S    
Cu1   O5    S    
S1    O15   S    
C15   C17   A    
C1    C20   S    
C2    C19   S    
C36   C39   A    
O15   H19   S    
C2    O2    A    
C22   H16   S    
Cu1   O1    S    
C29   O11   S    
S2    O18   S    
C21   H15   S    
C7    C25   S    
C39   H3    S    
C35   C40   A    
C37   C39   A    
C38   C40   A    
C11   C13   A    
C16   C19   A    
C33   C35   A    
C34   C36   A    
C4    C14   A    
C16   H12   S    
C11   H9    S    
C4    S2    S    
C28   C36   A    
C29   C31   A    
S2    O16   D    
C21   C24   A    
Cu2   O2    S    
C22   C23   A    
C27   O9    S    
C28   N2    A    
