data_mof_unit_40877.cif
_audit_creation_date              2012-12-10T17:31:55-0500
_audit_creation_method            fapswitch 2.2
_symmetry_space_group_name_H-M    P1
_symmetry_Int_Tables_number       1
_space_group_crystal_system       triclinic
_cell_length_a                    11.981683
_cell_length_b                    11.528892
_cell_length_c                    12.826263
_cell_angle_alpha                 89.885572
_cell_angle_beta                  94.381551
_cell_angle_gamma                 86.531065
_cell_volume                      1763.30865313

loop_
_atom_site_label
_atom_site_type_symbol
_atom_type_description
_atom_site_fract_x
_atom_site_fract_y
_atom_site_fract_z
_atom_type_partial_charge
C1    C     C_R   0.476721 0.504668 0.299502 0.945387
C2    C     C_R   0.523234 0.495485 0.700634 0.938670
C3    C     C_R   0.044788 0.627771 0.576472 0.403482
C4    C     C_R   0.955150 0.370583 0.421931 0.430400
C5    C     C_R   0.161965 0.611268 0.572610 -0.102117
C6    C     C_R   0.837104 0.387805 0.427860 -0.114097
C7    C     C_R   0.142170 0.442495 0.469439 0.007486
C8    C     C_R   0.858049 0.557296 0.530053 0.006306
C9    C     C_R   0.024170 0.452471 0.472124 -0.075025
C10   C     C_R   0.975447 0.546498 0.526883 -0.094661
C11   C     C_R   0.499624 0.281912 0.499819 0.906129
C12   C     C_R   0.500366 0.718094 0.499851 0.915920
C13   C     C_1   0.499113 0.161542 0.499373 -0.172710
C14   C     C_1   0.500958 0.838469 0.499327 -0.168433
C15   C     C_1   0.499656 0.059333 0.499059 0.005016
C16   C     C_1   0.500600 0.940675 0.499032 0.005366
C17   C     C_R   0.538232 0.486363 0.812561 -0.195347
C18   C     C_R   0.460023 0.508894 0.187727 -0.196890
C19   C     C_R   0.367133 0.585363 0.026268 0.469649
C20   C     C_R   0.619716 0.393370 0.971952 0.471191
C21   C     C_R   0.373610 0.579754 0.135326 0.159212
C22   C     C_R   0.622617 0.412261 0.864449 0.158535
C23   C     C_R   0.538559 0.445122 0.133366 -0.283559
C24   C     C_R   0.456070 0.544719 0.866834 -0.278838
C25   C     C_R   0.536789 0.454229 0.026128 -0.031862
C26   C     C_R   0.452625 0.528039 0.972775 -0.035337
H1    H     H_    0.393708 0.603295 0.825172 0.209002
H2    H     H_    0.604234 0.391602 0.176098 0.206801
H3    H     H_    0.818384 0.627669 0.572228 0.179320
H4    H     H_    0.182526 0.372717 0.427114 0.186591
H5    H     H_    0.779038 0.328697 0.392905 0.140771
H6    H     H_    0.216930 0.670845 0.612112 0.138069
N1    N     N_R   0.792200 0.479100 0.480660 -0.119530
N2    N     N_R   0.207800 0.520900 0.519340 -0.125070
O1    O     O_R   0.578300 0.494420 0.341180 -0.627189
O2    O     O_R   0.421700 0.505580 0.658820 -0.637755
O3    O     O_R   0.390690 0.507830 0.353590 -0.578199
O4    O     O_R   0.609310 0.492170 0.646410 -0.568357
O5    O     O_R   0.593810 0.327740 0.493800 -0.609865
O6    O     O_R   0.406190 0.672260 0.506200 -0.604339
O7    O     O_R   0.406190 0.341150 0.506220 -0.621759
O8    O     O_R   0.593810 0.658850 0.493780 -0.624586
Zn1   Zn    Zn3+2 0.625270 0.491050 0.491710 0.976255
Zn2   Zn    Zn3+2 0.374730 0.508950 0.508290 0.970647
Br1   Br    Br    0.740616 0.333297 0.792288 -0.519761
Br2   Br    Br    0.271840 0.680220 0.208986 -0.497031
O9    O     O_3   0.284449 0.656585 0.972691 -0.631079
C27   C     C_3   0.181821 0.600890 0.963544 0.114707
H7    H     H_    0.113130 0.668894 0.970848 0.194514
H8    H     H_    0.173593 0.535317 0.026321 0.143818
C28   C     C_3   0.165173 0.544134 0.856129 -0.436282
H9    H     H_    0.175927 0.609440 0.794585 0.244670
H10   H     H_    0.229197 0.471167 0.849834 0.226411
C29   C     C_3   0.048748 0.497500 0.838221 -0.796709
H11   H     H_    0.035733 0.432300 0.899329 0.267267
H12   H     H_    0.040507 0.455099 0.760566 0.269515
H13   H     H_    0.983058 0.569607 0.839862 0.280547
O10   O     O_3   0.702422 0.322169 0.025568 -0.632817
C30   C     C_3   0.678620 0.203743 0.012844 0.124318
H14   H     H_    0.759447 0.153830 0.003414 0.192821
H15   H     H_    0.622418 0.186226 0.941803 0.138521
C31   C     C_3   0.628078 0.158411 0.110030 -0.431605
H16   H     H_    0.679950 0.182767 0.181147 0.226209
H17   H     H_    0.541914 0.198555 0.114157 0.224311
C32   C     C_3   0.622382 0.026567 0.107757 -0.894236
H18   H     H_    0.570186 0.000067 0.037543 0.272616
H19   H     H_    0.584226 0.997053 0.178671 0.274293
H20   H     H_    0.707917 0.983858 0.106819 0.262798
O11   O     O_3   0.997957 0.716016 0.635694 -0.657981
C33   C     C_3   0.025622 0.826930 0.601471 0.054288
H21   H     H_    0.945838 0.878607 0.580080 0.172476
H22   H     H_    0.074339 0.825859 0.530548 0.136592
C34   C     C_3   0.089679 0.888092 0.691099 -0.329215
H23   H     H_    0.038610 0.892951 0.759941 0.243193
H24   H     H_    0.169592 0.837434 0.714149 0.217566
C35   C     C_3   0.115636 0.010832 0.659811 -0.921914
H25   H     H_    0.167047 0.008205 0.591244 0.266579
H26   H     H_    0.163376 0.052042 0.725948 0.273493
H27   H     H_    0.036642 0.064528 0.640267 0.267648
O12   O     O_3   0.008667 0.277804 0.370890 -0.661399
C36   C     C_3   0.938191 0.193572 0.326961 0.106541
H28   H     H_    0.986823 0.142685 0.270444 0.179034
H29   H     H_    0.864677 0.232823 0.278532 0.130124
C37   C     C_3   0.907323 0.108115 0.410750 -0.394727
H30   H     H_    0.984350 0.056513 0.441099 0.229353
H31   H     H_    0.872700 0.155328 0.477593 0.232876
C38   C     C_3   0.821217 0.025530 0.366290 -0.932474
H32   H     H_    0.740881 0.074760 0.342092 0.267853
H33   H     H_    0.805233 0.961219 0.427114 0.266319
H34   H     H_    0.852614 0.978171 0.298005 0.271279

loop_
_geom_bond_atom_site_label_1
_geom_bond_atom_site_label_2
_ccdc_geom_bond_type
C38   H32   S    
C18   C21   A    
C34   H23   S    
C35   H27   S    
C36   H28   S    
C1    C18   S    
C8    H3    S    
C3    O11   S    
C24   C26   A    
C4    O12   S    
C19   O9    S    
C20   C25   A    
C15   C16   S    
C19   C26   A    
C31   H17   S    
C27   C28   S    
C32   H19   S    
C12   O8    A    
C24   H1    S    
C33   H21   S    
O1    Zn1   S    
C9    C10   A    
C1    O3    A    
C5    H6    S    
C27   H8    S    
C6    H5    S    
C30   H14   S    
C7    H4    S    
C2    C17   S    
C34   H24   S    
C36   H29   S    
C29   H12   S    
C30   H15   S    
C17   C24   A    
C28   H9    S    
N1    Zn1   S    
N2    Zn2   S    
C37   H30   S    
C4    C6    A    
O5    Zn1   S    
C25   C26   A    
C18   C23   A    
C28   H10   S    
C12   O6    A    
C31   H16   S    
C2    O4    A    
O9    C27   S    
C32   H20   S    
C5    N2    A    
C33   C34   S    
C23   H2    S    
C35   H25   S    
C11   O5    A    
C27   H7    S    
C12   C14   S    
C13   C15   T    
C34   C35   S    
C14   C16   T    
O2    Zn2   S    
O8    Zn1   S    
C20   C22   A    
C20   O10   S    
C36   C37   S    
C7    N2    A    
C1    O1    A    
C21   Br2   S    
C2    O2    A    
C7    C9    A    
C29   H11   S    
C30   C31   S    
C31   C32   S    
C19   C21   A    
C35   H26   S    
O12   C36   S    
C3    C5    A    
C37   C38   S    
C17   C22   A    
C6    N1    A    
C28   C29   S    
O3    Zn2   S    
C38   H33   S    
O10   C30   S    
O4    Zn1   S    
C3    C10   A    
C11   C13   S    
O7    Zn2   S    
C11   O7    A    
C8    N1    A    
C23   C25   A    
O11   C33   S    
O6    Zn2   S    
C22   Br1   S    
C8    C10   A    
C32   H18   S    
C38   H34   S    
C37   H31   S    
C33   H22   S    
C4    C9    A    
C29   H13   S    
