data_mof_unit_63467.cif
_audit_creation_date              2012-12-10T16:35:05-0500
_audit_creation_method            fapswitch 2.2
_symmetry_space_group_name_H-M    P1
_symmetry_Int_Tables_number       1
_space_group_crystal_system       triclinic
_cell_length_a                    10.868053
_cell_length_b                    10.830696
_cell_length_c                    10.881846
_cell_angle_alpha                 80.779055
_cell_angle_beta                  97.780974
_cell_angle_gamma                 90.314288
_cell_volume                      1252.52170154

loop_
_atom_site_label
_atom_site_type_symbol
_atom_type_description
_atom_site_fract_x
_atom_site_fract_y
_atom_site_fract_z
_atom_type_partial_charge
C1    C     C_R   0.834392 0.472488 0.526928 0.475523
C2    C     C_2   0.467513 0.028966 0.533339 -0.118712
C3    C     C_2   0.532752 0.968439 0.465689 -0.103779
C4    C     C_2   0.029949 0.536370 0.467733 -0.076177
C5    C     C_3   0.961106 0.300395 0.718016 -0.001380
C6    C     C_3   0.042093 0.202292 0.808422 -0.358748
C7    C     C_3   0.685272 0.281865 0.990303 -0.290448
C8    C     C_2   0.967461 0.454969 0.542170 0.271647
C9    C     C_2   0.472784 0.536608 0.025002 -0.095227
C10   C     C_2   0.533170 0.454305 0.972882 0.144528
C11   C     C_R   0.164058 0.526590 0.473247 0.525107
C12   C     C_R   0.522309 0.472745 0.838222 0.509059
C13   C     C_R   0.476754 0.526523 0.160446 0.511785
C14   C     C_R   0.524053 0.835004 0.475512 0.494795
C15   C     C_R   0.476353 0.163902 0.523737 0.502534
H1    H     H_    0.407560 0.978528 0.595885 0.105975
H2    H     H_    0.531213 0.281033 0.086420 0.260284
H3    H     H_    0.732074 0.205879 0.061720 0.142479
H4    H     H_    0.756545 0.350182 0.960881 0.154737
H5    H     H_    0.641702 0.240398 0.908260 0.133416
H6    H     H_    0.592840 0.016639 0.402125 0.123084
H7    H     H_    0.981179 0.613115 0.402966 0.054699
H8    H     H_    0.421456 0.615249 0.965753 0.072184
H9    H     H_    0.874974 0.254476 0.681535 0.133285
H10   H     H_    0.937388 0.374680 0.771292 0.130778
H11   H     H_    0.128833 0.245373 0.847085 0.170494
H12   H     H_    0.991210 0.162523 0.887193 0.089688
H13   H     H_    0.066350 0.125701 0.758798 0.167916
N1    N     N_2   0.591871 0.342353 0.044362 -0.483096
O1    O     O_3   0.500000 0.500000 0.500000 -0.448724
O2    O     O_R   0.597340 0.765700 0.560080 -0.532119
O3    O     O_R   0.548200 0.222430 0.451790 -0.545661
O4    O     O_R   0.441590 0.789440 0.401000 -0.533495
O5    O     O_R   0.412860 0.222430 0.587130 -0.532365
O6    O     O_3   0.027057 0.350078 0.618359 -0.533988
O7    O     O_R   0.441590 0.410520 0.779910 -0.548980
O8    O     O_R   0.548210 0.443940 0.230290 -0.513371
O9    O     O_R   0.787780 0.544200 0.591150 -0.562995
O10   O     O_R   0.222430 0.601350 0.398650 -0.549706
O11   O     O_R   0.767360 0.410530 0.454140 -0.539382
O12   O     O_R   0.222430 0.443930 0.556060 -0.475273
O13   O     O_R   0.597340 0.544190 0.781580 -0.546739
O14   O     O_R   0.412870 0.601350 0.208220 -0.541216
Zn1   Zn    Zn3+2 0.396020 0.396030 0.603970 0.955381
Zn2   Zn    Zn3+2 0.618560 0.587010 0.606350 0.922267
Zn3   Zn    Zn3+2 0.396030 0.620930 0.379070 0.940870
Zn4   Zn    Zn3+2 0.589390 0.396030 0.410610 0.939064

loop_
_geom_bond_atom_site_label_1
_geom_bond_atom_site_label_2
_ccdc_geom_bond_type
O11   Zn4   S    
C7    N1    S    
C2    H1    S    
C12   O7    A    
C1    C8    S    
H2    N1    S    
C9    C10   D    
C15   O5    A    
C13   O8    A    
C6    H12   S    
O8    Zn4   S    
C14   O2    A    
C4    C8    D    
C7    H3    S    
O12   Zn1   S    
C14   O4    A    
C2    C3    D    
O5    Zn1   S    
C15   O3    A    
C4    C11   S    
C11   O10   A    
C2    C15   S    
C3    C14   S    
C10   N1    S    
O1    Zn1   S    
C6    H11   S    
C5    H9    S    
C10   C12   S    
C1    O9    A    
O10   Zn3   S    
C5    H10   S    
C5    O6    S    
O14   Zn3   S    
C11   O12   A    
C7    H4    S    
C5    C6    S    
O3    Zn4   S    
C3    H6    S    
O7    Zn1   S    
O13   Zn2   S    
O1    Zn4   S    
C13   O14   A    
C4    H7    S    
C7    H5    S    
O2    Zn2   S    
C9    C13   S    
C9    H8    S    
O9    Zn2   S    
C12   O13   A    
O1    Zn2   S    
C1    O11   A    
O1    Zn3   S    
C6    H13   S    
O4    Zn3   S    
C8    O6    S    
