data_mof_unit_61545.cif
_audit_creation_date              2012-12-10T16:42:41-0500
_audit_creation_method            fapswitch 2.2
_symmetry_space_group_name_H-M    P1
_symmetry_Int_Tables_number       1
_space_group_crystal_system       triclinic
_cell_length_a                    18.746221
_cell_length_b                    19.047048
_cell_length_c                    18.937509
_cell_angle_alpha                 109.230052
_cell_angle_beta                  108.853449
_cell_angle_gamma                 108.959851
_cell_volume                      5291.4111282

loop_
_atom_site_label
_atom_site_type_symbol
_atom_type_description
_atom_site_fract_x
_atom_site_fract_y
_atom_site_fract_z
_atom_type_partial_charge
C1    C     C_R   0.384560 0.383432 0.502911 0.835619
C2    C     C_R   0.757912 0.577490 0.750433 0.070148
C3    C     C_R   0.812235 0.499515 0.811724 -0.177648
C4    C     C_R   0.742671 0.421131 0.740740 0.075601
C5    C     C_R   0.675127 0.421464 0.680200 0.072623
C6    C     C_R   0.684838 0.499513 0.683353 -0.174542
C7    C     C_R   0.738128 0.341830 0.728519 -0.152342
C8    C     C_R   0.664903 0.265627 0.663830 -0.136589
C9    C     C_R   0.594714 0.266381 0.610084 -0.144107
C10   C     C_R   0.599336 0.343202 0.617890 -0.142668
C11   C     C_2   0.258969 0.185409 0.509526 -0.152496
C12   C     C_R   0.618074 0.499857 0.617553 0.787890
C13   C     C_2   0.181050 0.178582 0.492075 -0.311119
C14   C     C_2   0.320040 0.246249 0.497754 -0.159496
C15   C     C_2   0.322793 0.320920 0.511015 -0.310071
C16   C     C_2   0.171554 0.432445 0.193378 -0.163664
C17   C     C_2   0.183623 0.486802 0.162946 -0.318631
C18   C     C_2   0.246452 0.433413 0.252481 -0.161592
C19   C     C_2   0.315113 0.505790 0.320860 0.046833
C20   C     C_2   0.736760 0.807727 0.480033 -0.162402
C21   C     C_2   0.821308 0.836465 0.521904 -0.312627
C22   C     C_2   0.678485 0.747656 0.494584 -0.169177
C23   C     C_R   0.617327 0.616321 0.498552 0.815925
C24   C     C_2   0.682697 0.677457 0.492069 0.039928
C25   C     C_R   0.000180 0.383821 0.882088 0.857659
C26   C     C_R   0.878880 0.499717 0.878475 0.787407
C27   C     C_R   0.997539 0.616544 0.115853 0.845787
C28   C     C_R   0.114997 0.496218 0.110538 0.839295
C29   C     C_R   0.996929 0.115069 0.615638 0.849812
C30   C     C_R   0.117164 0.115819 0.498057 0.840524
C31   C     C_R   0.002095 0.883884 0.383300 0.847660
C32   C     C_R   0.883281 0.888230 0.505519 0.843729
C33   C     C_2   0.005355 0.249972 0.685794 -0.156774
C34   C     C_R   0.381822 0.500916 0.382677 0.824111
C35   C     C_2   0.987650 0.173391 0.678179 -0.342272
C36   C     C_2   0.992372 0.310072 0.745877 0.139146
C37   C     C_2   0.013861 0.321875 0.826504 0.023748
C38   C     C_2   0.072366 0.811469 0.322870 -0.159139
C39   C     C_2   0.002472 0.819992 0.315074 -0.309965
C40   C     C_2   0.071266 0.751128 0.248953 -0.152972
C41   C     C_2   0.999120 0.678683 0.187251 -0.316263
C42   C     C_R   0.772761 0.655779 0.751419 -0.193519
C43   C     C_R   0.838943 0.732628 0.822590 -0.138654
C44   C     C_R   0.891840 0.733648 0.894695 0.227076
C45   C     C_R   0.881071 0.656776 0.892791 -0.152874
C46   C     C_R   0.817611 0.577765 0.818786 0.029264
Cu1   Cu    Cu3+1 0.500390 0.438990 0.439360 0.944824
Cu2   Cu    Cu3+1 0.499610 0.561010 0.560640 0.945016
Cu3   Cu    Cu3+1 0.935830 0.439030 0.996840 0.942494
Cu4   Cu    Cu3+1 0.057850 0.561040 0.996790 0.938857
Cu5   Cu    Cu3+1 0.061410 0.000010 0.561410 0.947854
Cu6   Cu    Cu3+1 0.938590 0.999990 0.438590 0.949748
H1    H     H_    0.536824 0.207205 0.561402 0.128740
H2    H     H_    0.160200 0.215164 0.465166 0.153545
H3    H     H_    0.366023 0.231170 0.482266 0.153152
H4    H     H_    0.283499 0.340141 0.535687 0.154508
H5    H     H_    0.107193 0.387111 0.175218 0.168271
H6    H     H_    0.247610 0.524805 0.174259 0.172234
H7    H     H_    0.241482 0.372464 0.244147 0.133755
H8    H     H_    0.709916 0.827345 0.434868 0.169249
H9    H     H_    0.847194 0.823004 0.572999 0.166354
H10   H     H_    0.626280 0.757542 0.500391 0.134719
H11   H     H_    0.734063 0.658890 0.697301 0.156337
H12   H     H_    0.025018 0.267227 0.643171 0.155622
H13   H     H_    0.961611 0.150823 0.714451 0.134100
H14   H     H_    0.132743 0.853285 0.382153 0.159333
H15   H     H_    0.944998 0.784707 0.253233 0.154830
H16   H     H_    0.131556 0.764798 0.247468 0.161219
H17   H     H_    0.941040 0.660130 0.193227 0.154000
H18   H     H_    0.847760 0.791387 0.821753 0.135780
H19   H     H_    0.922258 0.660198 0.950437 0.157007
H20   H     H_    0.790704 0.337023 0.767846 0.147079
H21   H     H_    0.662200 0.205795 0.656258 0.134576
H22   H     H_    0.542467 0.339993 0.574947 0.140833
H23   H     H_    0.276332 0.142400 0.527594 0.159767
O1    O     O_R   0.411310 0.359450 0.448800 -0.587273
O2    O     O_R   0.048900 0.462510 0.908320 -0.589422
O3    O     O_R   0.855710 0.448510 0.907250 -0.587825
O4    O     O_R   0.958760 0.551540 0.907200 -0.588043
O5    O     O_R   0.944780 0.537560 0.085320 -0.581551
O6    O     O_R   0.047820 0.640590 0.085270 -0.585866
O7    O     O_R   0.034920 0.448530 0.086440 -0.585412
O8    O     O_R   0.137970 0.551560 0.086390 -0.592185
O9    O     O_R   0.051300 0.089020 0.640330 -0.585864
O10   O     O_R   0.947570 0.089010 0.536620 -0.581322
O11   O     O_R   0.140880 0.089030 0.551840 -0.582357
O12   O     O_R   0.410660 0.462490 0.551220 -0.582515
O13   O     O_R   0.037150 0.089020 0.448130 -0.589246
O14   O     O_R   0.052430 0.910990 0.463380 -0.581567
O15   O     O_R   0.948700 0.910980 0.359670 -0.586470
O16   O     O_R   0.962850 0.910980 0.551870 -0.591520
O17   O     O_R   0.859120 0.910970 0.448160 -0.584945
O18   O     O_R   0.589930 0.448490 0.538390 -0.590663
O19   O     O_R   0.589280 0.551530 0.640800 -0.583474
O20   O     O_R   0.589340 0.537510 0.448780 -0.579946
O21   O     O_R   0.588690 0.640550 0.551200 -0.604815
O22   O     O_R   0.410720 0.448470 0.359200 -0.593440
O23   O     O_R   0.410070 0.551510 0.461610 -0.585385
O24   O     O_R   0.945860 0.359480 0.908360 -0.601232
C47   C     C_3   0.319098 0.592241 0.345752 -0.836831
H24   H     H_    0.367541 0.639672 0.413231 0.235293
H25   H     H_    0.339015 0.619211 0.307417 0.217930
H26   H     H_    0.256203 0.587557 0.338258 0.248614
C48   C     C_3   0.743716 0.651269 0.467995 -0.825926
H27   H     H_    0.724435 0.583527 0.448737 0.238085
H28   H     H_    0.745008 0.660054 0.413195 0.247339
H29   H     H_    0.809373 0.687790 0.523310 0.220080
C49   C     C_3   0.954627 0.359358 0.713245 -0.856235
H30   H     H_    0.937600 0.338579 0.645218 0.235264
H31   H     H_    0.895009 0.349043 0.717939 0.212769
H32   H     H_    0.001824 0.428146 0.750740 0.245744
C50   C     C_3   0.063025 0.282575 0.866266 -0.457801
C51   C     C_3   0.122789 0.337047 0.962548 -0.824717
H33   H     H_    0.166212 0.402509 0.979072 0.254151
H34   H     H_    0.084163 0.338587 0.996135 0.253970
H35   H     H_    0.162792 0.308765 0.984464 0.245487
H36   H     H_    0.016303 0.220767 0.854413 0.209171
H37   H     H_    0.104633 0.272442 0.837953 0.237489
C52   C     C_3   0.960721 0.816045 0.973543 -0.883957
H38   H     H_    0.961659 0.871454 0.965438 0.230074
H39   H     H_    0.949177 0.819633 0.028261 0.236450
H40   H     H_    0.024614 0.819832 0.988133 0.237911

loop_
_geom_bond_atom_site_label_1
_geom_bond_atom_site_label_2
_ccdc_geom_bond_type
C1    O12   A    
C50   H37   S    
C36   C49   S    
C10   H22   S    
Cu6   O15   S    
Cu4   O4    S    
C33   C36   S    
C48   H28   S    
C7    C8    A    
C45   C46   A    
Cu3   O3    S    
C26   O3    A    
Cu2   O19   S    
C25   O2    A    
C36   C37   D    
Cu1   O1    S    
C51   H33   S    
C6    C12   S    
C5    C6    A    
C33   C35   D    
C11   C14   S    
C32   O16   A    
C45   H19   S    
C35   H13   S    
C34   O22   A    
C49   H30   S    
C18   C19   D    
C48   H27   S    
C37   C50   S    
Cu5   O16   S    
C25   O24   A    
C23   O21   A    
C38   H14   S    
C23   O20   A    
C8    C9    A    
C31   O14   A    
C23   C24   S    
C1    C15   S    
C30   O11   A    
C9    C10   A    
C29   O10   A    
C17   H6    S    
C51   H35   S    
C25   C37   S    
C14   H3    S    
C28   O8    A    
C1    O1    A    
C12   O19   A    
C2    C6    A    
C4    C7    A    
Cu5   O11   S    
C50   C51   S    
Cu4   O8    S    
C52   H39   S    
C38   C39   D    
C21   C32   S    
C28   O7    A    
Cu5   Cu6   S    
C13   C30   S    
C27   O6    A    
C29   O9    A    
C27   O5    A    
C7    H20   S    
C16   C17   D    
C44   C52   S    
C47   H26   S    
C2    C46   A    
C24   C48   S    
Cu3   O7    S    
C43   C44   A    
C22   H10   S    
C27   C41   S    
Cu1   Cu2   S    
Cu6   O13   S    
C19   C47   S    
C31   O15   A    
C47   H25   S    
Cu1   O18   S    
Cu2   O12   S    
C40   C41   D    
C20   C22   S    
C43   H18   S    
C22   C24   D    
C12   O18   A    
Cu6   O17   S    
C20   H8    S    
C42   C43   A    
C30   O13   A    
C3    C4    A    
Cu4   O2    S    
C44   C45   A    
C41   H17   S    
C13   H2    S    
C52   H40   S    
C21   H9    S    
Cu6   O10   S    
Cu2   O21   S    
C17   C28   S    
C39   H15   S    
C3    C26   S    
C4    C5    A    
C19   C34   S    
C52   H38   S    
C49   H32   S    
Cu2   O23   S    
C29   C35   S    
C3    C46   A    
C26   O4    A    
Cu1   O22   S    
Cu3   O5    S    
C50   H36   S    
C15   H4    S    
C5    C10   A    
C11   H23   S    
Cu5   O14   S    
C38   C40   S    
C11   C13   D    
Cu3   O24   S    
C32   O17   A    
C2    C42   A    
C33   H12   S    
C42   H11   S    
C8    H21   S    
C34   O23   A    
C49   H31   S    
C16   H5    S    
C18   H7    S    
C9    H1    S    
C20   C21   D    
C16   C18   S    
Cu3   Cu4   S    
C40   H16   S    
C31   C39   S    
Cu1   O20   S    
C14   C15   D    
C47   H24   S    
Cu5   O9    S    
C48   H29   S    
Cu4   O6    S    
C51   H34   S    
