data_mof_unit_45176.cif
_audit_creation_date              2012-12-11T14:06:35-0500
_audit_creation_method            fapswitch 2.2
_symmetry_space_group_name_H-M    P1
_symmetry_Int_Tables_number       1
_space_group_crystal_system       triclinic
_cell_length_a                    6.92735
_cell_length_b                    17.28552
_cell_length_c                    24.096668
_cell_angle_alpha                 104.510175
_cell_angle_beta                  90.404148
_cell_angle_gamma                 89.993615
_cell_volume                      2793.2947956

loop_
_atom_site_label
_atom_site_type_symbol
_atom_type_description
_atom_site_fract_x
_atom_site_fract_y
_atom_site_fract_z
_atom_type_partial_charge
O1    O     O_R   0.494290 0.391990 0.999150 -0.535077
O2    O     O_R   0.827170 0.534410 0.082350 -0.542633
O3    O     O_R   0.994360 0.608010 0.000850 -0.535598
C1    C     C_R   0.658602 0.549977 0.106141 0.709639
O4    O     O_R   0.824210 0.388010 0.004470 -0.545307
O5    O     O_R   0.991370 0.460560 0.922410 -0.540896
C2    C     C_R   0.654529 0.354884 0.001479 0.777843
O6    O     O_R   0.497270 0.539440 0.077590 -0.540635
O7    O     O_3   0.659770 0.523970 0.973170 -0.372504
V1    V     V_3+5 0.935840 0.495550 0.004980 1.418044
O8    O     O_R   0.320910 0.465590 0.917650 -0.543711
C3    C     C_R   0.151423 0.450047 0.893854 0.705667
O9    O     O_R   0.323870 0.611990 0.995530 -0.546105
C4    C     C_R   0.154409 0.645125 0.998531 0.774751
V2    V     V_3+5 0.435470 0.504450 0.995020 1.415823
O10   O     O_3   0.161670 0.476030 0.026830 -0.370298
C5    C     C_2   0.142764 0.730291 0.998122 -0.339318
H1    H     H_    0.277124 0.761167 0.994756 0.150437
C6    C     C_2   0.972797 0.769764 0.002045 -0.337193
H2    H     H_    0.838438 0.738890 0.005416 0.150477
C7    C     C_R   0.013070 0.252738 0.626681 0.577093
N1    N     N_R   0.100754 0.325472 0.648235 -0.559440
C8    C     C_R   0.174221 0.368084 0.612103 0.577618
C9    C     C_R   0.160902 0.338015 0.552120 -0.024871
C10   C     C_R   0.070260 0.263730 0.529548 -0.009699
C11   C     C_R   0.995540 0.220586 0.567013 -0.026089
C12   C     C_R   0.234906 0.380582 0.514260 -0.147550
C13   C     C_R   0.219051 0.349831 0.454910 -0.115826
C14   C     C_R   0.128605 0.275776 0.431897 -0.040016
C15   C     C_R   0.054052 0.232563 0.469374 -0.018781
C16   C     C_R   0.963115 0.158301 0.446817 -0.033579
C17   C     C_R   0.889351 0.115691 0.484647 -0.135776
C18   C     C_R   0.905419 0.146427 0.543985 -0.138602
C19   C     C_R   0.110378 0.243724 0.372253 0.679966
N2    N     N_R   0.021698 0.171298 0.350893 -0.548066
C20   C     C_R   0.948496 0.128551 0.386870 0.654966
O11   O     O_2   0.944321 0.211189 0.662820 -0.514070
O12   O     O_2   0.257969 0.439798 0.634040 -0.515191
H3    H     H_    0.305223 0.437876 0.530337 0.163038
H4    H     H_    0.277755 0.384364 0.427146 0.185630
O13   O     O_2   0.180440 0.284645 0.335906 -0.474066
O14   O     O_2   0.862234 0.057447 0.364732 -0.488230
H5    H     H_    0.818867 0.058436 0.468554 0.164479
H6    H     H_    0.846722 0.111870 0.571732 0.177804
C21   C     C_R   0.144455 0.086062 0.259569 0.201419
C22   C     C_R   0.131219 0.057612 0.199845 -0.215326
H7    H     H_    0.240668 0.017083 0.177440 0.156497
C23   C     C_R   0.976239 0.079758 0.169220 -0.134552
C24   C     C_R   0.835108 0.131738 0.199367 -0.214780
H8    H     H_    0.715405 0.150071 0.176471 0.160522
C25   C     C_R   0.850774 0.162652 0.258885 0.311422
C26   C     C_R   0.005228 0.139647 0.289557 0.271380
C27   C     C_R   0.946321 0.375571 0.742756 -0.080966
H9    H     H_    0.805759 0.365943 0.722239 0.123932
C28   C     C_R   0.958541 0.405783 0.802298 -0.195164
H10   H     H_    0.825973 0.418516 0.826382 0.130468
C29   C     C_R   0.139260 0.419209 0.830295 -0.058343
C30   C     C_R   0.307365 0.401814 0.796913 -0.194997
H11   H     H_    0.448858 0.411111 0.816842 0.128316
C31   C     C_R   0.294793 0.371376 0.737308 -0.076104
H12   H     H_    0.425856 0.357691 0.712583 0.127020
C32   C     C_R   0.114154 0.357796 0.709705 0.373577
C33   C     C_R   0.602761 0.872357 0.616209 0.575623
N3    N     N_R   0.506899 0.829005 0.648077 -0.559285
C34   C     C_R   0.429239 0.755520 0.622441 0.579114
C35   C     C_R   0.447362 0.722888 0.562896 -0.025957
C36   C     C_R   0.546745 0.766498 0.529864 -0.015324
C37   C     C_R   0.624975 0.841939 0.556586 -0.024532
C38   C     C_R   0.370152 0.647528 0.535741 -0.138210
C39   C     C_R   0.391246 0.616023 0.476701 -0.145037
C40   C     C_R   0.489987 0.659089 0.443272 -0.026999
C41   C     C_R   0.568128 0.734552 0.469983 -0.017238
C42   C     C_R   0.667478 0.778165 0.436945 -0.027498
C43   C     C_R   0.744655 0.853533 0.464098 -0.129593
C44   C     C_R   0.723668 0.885014 0.523149 -0.149203
C45   C     C_R   0.512372 0.628623 0.383667 0.582967
N4    N     N_R   0.608195 0.671970 0.351793 -0.562168
C46   C     C_R   0.685659 0.745503 0.377401 0.586348
O15   O     O_2   0.675653 0.944933 0.642018 -0.516593
O16   O     O_2   0.337093 0.713510 0.654506 -0.513428
H13   H     H_    0.293324 0.612521 0.560014 0.178507
H14   H     H_    0.329762 0.557801 0.457377 0.164692
O17   O     O_2   0.439694 0.555998 0.357879 -0.505627
O18   O     O_2   0.777695 0.787514 0.345316 -0.504968
H15   H     H_    0.821457 0.888539 0.439819 0.181422
H16   H     H_    0.785219 0.943219 0.542477 0.161825
C47   C     C_R   0.802887 0.622975 0.263872 -0.067485
H17   H     H_    0.933590 0.631962 0.289610 0.129167
C48   C     C_R   0.815538 0.593237 0.204197 -0.188179
H18   H     H_    0.956685 0.580175 0.185141 0.129916
C49   C     C_R   0.647707 0.580714 0.169702 -0.059358
C50   C     C_R   0.467363 0.598677 0.196596 -0.187407
H19   H     H_    0.334882 0.590155 0.171680 0.131012
C51   C     C_R   0.455106 0.628343 0.256074 -0.074413
H20   H     H_    0.314839 0.642172 0.275599 0.124301
C52   C     C_R   0.622443 0.640800 0.290303 0.372904
C53   C     C_R   0.312404 0.877659 0.736086 -0.075704
H21   H     H_    0.181642 0.868699 0.710376 0.128900
C54   C     C_R   0.299841 0.907071 0.795789 -0.195276
H22   H     H_    0.158711 0.919947 0.814887 0.129379
C55   C     C_R   0.467721 0.919506 0.830260 -0.058285
C56   C     C_R   0.648041 0.901821 0.803305 -0.194112
H23   H     H_    0.780558 0.910315 0.828200 0.130891
C57   C     C_R   0.660215 0.872476 0.743792 -0.083118
H24   H     H_    0.800460 0.858817 0.724225 0.124189
C58   C     C_R   0.492812 0.860073 0.709588 0.373731
C59   C     C_2   0.642853 0.269714 0.001907 -0.336017
H25   H     H_    0.777364 0.238824 0.005285 0.150288
C60   C     C_2   0.472656 0.230252 0.997982 -0.335912
H26   H     H_    0.338143 0.261143 0.994610 0.150582
O19   O     O_R   0.618210 0.960470 0.922400 -0.541788
O20   O     O_R   0.291310 0.111960 0.995450 -0.545481
O21   O     O_R   0.124210 0.039530 0.077580 -0.537718
C61   C     C_R   0.460986 0.145088 0.998427 0.778706
O22   O     O_R   0.288310 0.965490 0.917650 -0.543699
O23   O     O_R   0.121180 0.892010 0.999220 -0.536770
C62   C     C_R   0.456874 0.949995 0.893846 0.703579
O24   O     O_R   0.621230 0.107990 0.000760 -0.536372
O25   O     O_3   0.455770 0.976060 0.026840 -0.369508
V3    V     V_3+5 0.179680 0.004440 0.995020 1.419973
O26   O     O_R   0.791670 0.888040 0.004570 -0.546323
C63   C     C_R   0.961139 0.854914 0.001591 0.771626
O27   O     O_R   0.794680 0.034510 0.082370 -0.539683
C64   C     C_R   0.964151 0.049817 0.105967 0.738235
V4    V     V_3+5 0.680070 0.995560 0.005010 1.425394
O28   O     O_3   0.953840 0.023940 0.973160 -0.374178
Br1   Br    Br    0.661202 0.237633 0.297139 -0.439888
I1    I     I_    0.376314 0.045877 0.302822 -0.253407

loop_
_geom_bond_atom_site_label_1
_geom_bond_atom_site_label_2
_ccdc_geom_bond_type
C28   H10   S    
C6    C63   S    
C55   C56   A    
C42   C43   A    
C20   O14   S    
N2    C20   A    
C9    C12   A    
C1    O6    A    
C57   C58   A    
C53   H21   S    
O27   C64   A    
C33   O15   S    
N4    C46   A    
C37   C44   A    
O23   C63   A    
C13   C14   A    
C36   C41   A    
C16   C20   A    
O5    C3    A    
C15   C16   A    
C56   C57   A    
V3    O28   S    
O27   V4    S    
C35   C38   A    
C13   H4    S    
C21   I1    S    
C30   C31   A    
V2    O10   S    
C31   C32   A    
C19   N2    A    
C44   H16   S    
C33   C37   A    
O8    V2    S    
C16   C17   A    
C27   H9    S    
C12   H3    S    
C24   C25   A    
O19   V4    S    
C59   H25   S    
C39   C40   A    
O1    V2    S    
O24   V4    S    
C48   C49   A    
O7    V1    S    
C1    C49   S    
C35   C36   A    
C34   O16   S    
O9    C4    A    
C59   C60   D    
C4    C5    S    
C38   C39   A    
C19   O13   S    
C45   O17   S    
O20   C61   A    
C57   H24   S    
C53   C54   A    
C7    C11   A    
C27   C28   A    
C22   C23   A    
C43   C44   A    
C36   C37   A    
C45   N4    A    
C49   C50   A    
O20   V3    S    
C21   C26   A    
O22   C62   A    
C10   C11   A    
C21   C22   A    
C42   C46   A    
C14   C19   A    
O23   V3    S    
C31   H12   S    
O2    C1    A    
O26   V4    S    
C14   C15   A    
N1    C32   S    
O21   V3    S    
C27   C32   A    
C11   C18   A    
C54   H22   S    
C8    C9    A    
C47   C52   A    
C50   C51   A    
C5    H1    S    
C7    O11   S    
C51   H20   S    
C9    C10   A    
C51   C52   A    
O26   C63   A    
C61   O24   A    
O3    C4    A    
C60   C61   S    
C3    C29   S    
O25   V4    S    
C23   C24   A    
C54   C55   A    
O22   V3    S    
O6    V2    S    
O9    V2    S    
V4    O28   S    
C2    C59   S    
C53   C58   A    
O2    V1    S    
C12   C13   A    
O4    C2    A    
C10   C15   A    
C22   H7    S    
O1    C2    A    
C18   H6    S    
C41   C42   A    
C23   C64   S    
O25   V3    S    
N3    C58   S    
C8    O12   S    
N4    C52   S    
O19   C62   A    
C55   C62   S    
C17   C18   A    
C6    H2    S    
C28   C29   A    
C30   H11   S    
C25   Br1   S    
C25   C26   A    
O3    V1    S    
V1    O10   S    
C60   H26   S    
N3    C34   A    
C29   C30   A    
C40   C45   A    
O21   C64   A    
C50   H19   S    
C5    C6    D    
C17   H5    S    
C34   C35   A    
C43   H15   S    
O7    V2    S    
C56   H23   S    
C39   H14   S    
C38   H13   S    
O5    V1    S    
C33   N3    A    
C46   O18   S    
O4    V1    S    
C40   C41   A    
C47   H17   S    
C24   H8    S    
N2    C26   S    
C47   C48   A    
N1    C8    A    
C48   H18   S    
C7    N1    A    
O8    C3    A    
