data_mof_unit_50064.cif
_audit_creation_date              2012-12-11T14:05:38-0500
_audit_creation_method            fapswitch 2.2
_symmetry_space_group_name_H-M    P1
_symmetry_Int_Tables_number       1
_space_group_crystal_system       triclinic
_cell_length_a                    17.562229
_cell_length_b                    17.560945
_cell_length_c                    17.473151
_cell_angle_alpha                 90.107601
_cell_angle_beta                  90.093261
_cell_angle_gamma                 90.399521
_cell_volume                      5388.73515886

loop_
_atom_site_label
_atom_site_type_symbol
_atom_type_description
_atom_site_fract_x
_atom_site_fract_y
_atom_site_fract_z
_atom_type_partial_charge
C1    C     C_R   0.679249 0.776589 0.223036 -0.000932
C2    C     C_R   0.321330 0.777384 0.224746 0.038591
C3    C     C_R   0.903925 0.816057 0.616041 -0.122362
C4    C     C_R   0.087973 0.374264 0.819129 -0.114855
C5    C     C_R   0.904576 0.616505 0.184122 -0.130946
C6    C     C_R   0.095934 0.816278 0.616056 -0.115346
C7    C     C_R   0.904722 0.183919 0.384115 -0.133497
C8    C     C_R   0.816088 0.903811 0.615987 -0.120007
C9    C     C_R   0.183935 0.095739 0.383824 -0.132158
C10   C     C_R   0.616534 0.904251 0.184002 -0.122172
C11   C     C_R   0.376159 0.087872 0.818127 -0.129436
C12   C     C_R   0.183801 0.904020 0.384169 -0.112948
C13   C     C_R   0.198135 0.291807 0.789089 0.034889
C14   C     C_R   0.816209 0.095559 0.616083 -0.121893
C15   C     C_R   0.385680 0.902882 0.815263 -0.124652
C16   C     C_R   0.616281 0.095839 0.184246 -0.120329
C17   C     C_R   0.184889 0.097947 0.613873 -0.115875
C18   C     C_R   0.815953 0.903829 0.383962 -0.122257
C19   C     C_R   0.383616 0.096233 0.183915 -0.112041
C20   C     C_R   0.616445 0.904536 0.815917 -0.131156
C21   C     C_R   0.816188 0.095990 0.383950 -0.115091
C22   C     C_R   0.183819 0.904922 0.616463 -0.130441
C23   C     C_R   0.616073 0.096009 0.815840 -0.114112
C24   C     C_R   0.777113 0.679088 0.223456 0.040172
C25   C     C_R   0.383890 0.904721 0.184295 -0.134099
C26   C     C_R   0.322321 0.775898 0.775488 0.080440
C27   C     C_R   0.678863 0.223635 0.224499 -0.000122
C28   C     C_R   0.776779 0.679472 0.776841 0.000240
C29   C     C_R   0.222740 0.320745 0.223440 0.039556
C30   C     C_R   0.226430 0.228398 0.670114 0.039166
C31   C     C_R   0.776051 0.776115 0.322145 0.083015
C32   C     C_R   0.222930 0.776430 0.322161 0.039282
C33   C     C_R   0.294108 0.197705 0.786201 0.041441
C34   C     C_R   0.776633 0.223168 0.678346 0.001120
C35   C     C_R   0.777472 0.223844 0.322090 0.037699
C36   C     C_R   0.223517 0.777358 0.678382 0.039087
C37   C     C_R   0.776465 0.776421 0.678139 0.083295
C38   C     C_R   0.224067 0.223124 0.321488 0.039669
C39   C     C_R   0.637383 0.829500 0.828619 0.075740
C40   C     C_R   0.362555 0.171300 0.170443 0.074312
C41   C     C_R   0.170894 0.637363 0.828520 0.070733
C42   C     C_R   0.829091 0.363049 0.171495 0.077973
C43   C     C_R   0.351100 0.159298 0.831217 0.075352
C44   C     C_R   0.224073 0.678590 0.223975 0.039928
C45   C     C_R   0.637467 0.829083 0.170930 0.071565
C46   C     C_R   0.828320 0.363814 0.828243 0.078737
C47   C     C_R   0.171524 0.637120 0.171265 0.074475
C48   C     C_R   0.637355 0.171073 0.171686 0.070891
C49   C     C_R   0.364060 0.828053 0.828305 0.078130
C50   C     C_R   0.170494 0.362613 0.171296 0.077031
C51   C     C_R   0.829138 0.637557 0.829013 0.072183
C52   C     C_R   0.362827 0.829546 0.171916 0.075275
C53   C     C_R   0.637149 0.171272 0.828875 0.072881
C54   C     C_R   0.829465 0.637321 0.171318 0.075892
C55   C     C_R   0.776029 0.322146 0.775517 0.077611
C56   C     C_R   0.158377 0.347026 0.834716 0.084023
C57   C     C_R   0.829113 0.170796 0.637140 0.071707
C58   C     C_R   0.170549 0.828743 0.363296 0.075362
C59   C     C_R   0.828570 0.828698 0.363387 0.079086
C60   C     C_R   0.172117 0.173453 0.633707 0.078685
C61   C     C_R   0.171568 0.170760 0.362998 0.075887
C62   C     C_R   0.828874 0.828766 0.636717 0.079600
C63   C     C_R   0.171142 0.829675 0.637183 0.075575
C64   C     C_R   0.829546 0.171264 0.363238 0.075037
C65   C     C_R   0.708012 0.707141 0.194501 -0.018143
C66   C     C_R   0.320701 0.223688 0.222453 0.038826
C67   C     C_R   0.237566 0.234690 0.826717 -0.045861
C68   C     C_R   0.293832 0.707611 0.196372 -0.035824
C69   C     C_R   0.706781 0.293905 0.803888 -0.050012
C70   C     C_R   0.291830 0.293083 0.194444 -0.035979
C71   C     C_R   0.707290 0.708155 0.805148 -0.018626
C72   C     C_R   0.707287 0.293467 0.196355 -0.034494
C73   C     C_R   0.293644 0.706666 0.803606 -0.035823
C74   C     C_R   0.195055 0.707753 0.706053 -0.019038
C75   C     C_R   0.805573 0.293608 0.293625 -0.049294
C76   C     C_R   0.194965 0.291220 0.708529 -0.048294
C77   C     C_R   0.679289 0.777290 0.776413 0.040277
C78   C     C_R   0.804295 0.707080 0.294011 -0.053481
C79   C     C_R   0.195643 0.292298 0.293753 -0.036363
C80   C     C_R   0.804436 0.707353 0.706484 -0.036739
C81   C     C_R   0.195460 0.706350 0.293505 -0.035938
C82   C     C_R   0.804447 0.293482 0.706252 -0.034200
C83   C     C_R   0.706730 0.195093 0.706826 -0.019826
C84   C     C_R   0.292405 0.805235 0.294567 -0.033610
C85   C     C_R   0.707673 0.195660 0.294366 -0.019101
C86   C     C_R   0.293846 0.804734 0.706373 -0.051146
C87   C     C_R   0.293509 0.195627 0.292466 -0.035573
C88   C     C_R   0.776976 0.321563 0.224229 0.079606
C89   C     C_R   0.707400 0.804630 0.706130 -0.053066
C90   C     C_R   0.290567 0.196464 0.705144 -0.047531
C91   C     C_R   0.707016 0.804115 0.293655 -0.035006
C92   C     C_R   0.615995 0.816345 0.903889 -0.110632
C93   C     C_R   0.383809 0.183762 0.095188 -0.137267
C94   C     C_R   0.183844 0.616363 0.903968 -0.119080
C95   C     C_R   0.816018 0.383824 0.096087 -0.122238
C96   C     C_R   0.378507 0.180303 0.903207 -0.119218
C97   C     C_R   0.615914 0.816279 0.095629 -0.121958
C98   C     C_R   0.815868 0.383906 0.903911 -0.122962
C99   C     C_R   0.223319 0.678792 0.775759 0.000319
C100  C     C_R   0.184059 0.616185 0.095883 -0.129074
C101  C     C_R   0.616285 0.183902 0.096240 -0.121135
C102  C     C_R   0.383880 0.815795 0.904033 -0.121341
C103  C     C_R   0.183603 0.383871 0.095937 -0.123062
C104  C     C_R   0.816325 0.616043 0.904250 -0.121660
C105  C     C_R   0.383749 0.816176 0.096426 -0.113963
C106  C     C_R   0.616265 0.183973 0.904273 -0.130962
C107  C     C_R   0.816316 0.615884 0.095985 -0.110821
C108  C     C_R   0.179769 0.376614 0.905251 -0.165070
C109  C     C_R   0.904225 0.616502 0.816044 -0.119821
C110  C     C_R   0.678572 0.223723 0.776276 0.038666
C111  C     C_R   0.095512 0.383634 0.184090 -0.131699
C112  C     C_R   0.904357 0.183789 0.616210 -0.123316
C113  C     C_R   0.095356 0.816029 0.383972 -0.131460
C114  C     C_R   0.904282 0.384026 0.184262 -0.123230
C115  C     C_R   0.095669 0.616155 0.815834 -0.119709
C116  C     C_R   0.903680 0.815978 0.384037 -0.119219
C117  C     C_R   0.096361 0.184818 0.615110 -0.128567
C118  C     C_R   0.096240 0.616179 0.184213 -0.112883
C119  C     C_R   0.903235 0.385223 0.815320 -0.130875
C120  C     C_R   0.096470 0.183785 0.383893 -0.112155
H1    H     H_    0.614380 0.763229 0.933793 0.090903
H2    H     H_    0.384413 0.762885 0.934426 0.091500
H3    H     H_    0.236533 0.385057 0.065594 0.092385
H4    H     H_    0.763643 0.614026 0.934604 0.083342
H5    H     H_    0.384640 0.762863 0.066573 0.090465
H6    H     H_    0.615002 0.236723 0.934778 0.085229
H7    H     H_    0.763183 0.614029 0.065944 0.090925
H8    H     H_    0.235715 0.375727 0.931054 0.089073
H9    H     H_    0.934534 0.615705 0.763096 0.083558
H10   H     H_    0.065108 0.384641 0.236978 0.085414
H11   H     H_    0.934947 0.236557 0.615001 0.084020
H12   H     H_    0.385391 0.236118 0.064160 0.085364
H13   H     H_    0.064633 0.763319 0.385259 0.085530
H14   H     H_    0.934411 0.385492 0.237572 0.092454
H15   H     H_    0.065236 0.614430 0.762881 0.083541
H16   H     H_    0.933354 0.762910 0.385184 0.092730
H17   H     H_    0.066295 0.237936 0.615241 0.084832
H18   H     H_    0.066375 0.615089 0.237598 0.090680
H19   H     H_    0.931656 0.389167 0.761341 0.091876
H20   H     H_    0.066861 0.236884 0.384871 0.090492
H21   H     H_    0.933790 0.763091 0.615037 0.092392
H22   H     H_    0.056522 0.368969 0.766304 0.096759
H23   H     H_    0.236692 0.615205 0.934284 0.083293
H24   H     H_    0.935201 0.615882 0.237004 0.085400
H25   H     H_    0.065836 0.763039 0.614810 0.090411
H26   H     H_    0.935494 0.236584 0.385780 0.084911
H27   H     H_    0.763068 0.933557 0.614900 0.092836
H28   H     H_    0.236432 0.065399 0.385068 0.085495
H29   H     H_    0.615889 0.934644 0.237022 0.083106
H30   H     H_    0.369050 0.053607 0.767730 0.086642
H31   H     H_    0.237039 0.934100 0.385517 0.090506
H32   H     H_    0.763456 0.064942 0.614555 0.083716
H33   H     H_    0.390595 0.930666 0.761055 0.091180
H34   H     H_    0.762794 0.384839 0.066104 0.091999
H35   H     H_    0.614849 0.065491 0.237160 0.083323
H36   H     H_    0.239308 0.070091 0.611444 0.088855
H37   H     H_    0.762975 0.933681 0.384979 0.092247
H38   H     H_    0.384227 0.066539 0.237394 0.090224
H39   H     H_    0.615619 0.935056 0.763094 0.085486
H40   H     H_    0.762930 0.065894 0.384843 0.090073
H41   H     H_    0.236250 0.936164 0.615829 0.086298
H42   H     H_    0.614691 0.066032 0.762429 0.090479
H43   H     H_    0.385570 0.935449 0.237095 0.084823
H44   H     H_    0.658332 0.661155 0.098435 0.076356
H45   H     H_    0.375332 0.235861 0.929690 0.082650
H46   H     H_    0.601854 0.661839 0.176660 0.110682
H47   H     H_    0.158923 0.205468 0.907702 0.132528
H48   H     H_    0.238438 0.248949 0.943619 0.102306
H49   H     H_    0.340521 0.656266 0.101923 0.076516
H50   H     H_    0.339729 0.601961 0.181602 0.111513
H51   H     H_    0.656206 0.340689 0.898683 0.076797
H52   H     H_    0.600537 0.338034 0.819778 0.108899
H53   H     H_    0.397671 0.339240 0.177672 0.106417
H54   H     H_    0.341906 0.338758 0.098755 0.074901
H55   H     H_    0.661990 0.601947 0.822184 0.111752
H56   H     H_    0.613620 0.763566 0.065155 0.083230
H57   H     H_    0.661132 0.658276 0.900702 0.076215
H58   H     H_    0.600864 0.337416 0.180536 0.107093
H59   H     H_    0.656604 0.340835 0.101938 0.076430
H60   H     H_    0.336607 0.599973 0.820032 0.109485
H61   H     H_    0.340830 0.656410 0.898333 0.076846
H62   H     H_    0.100207 0.656985 0.659033 0.076206
H63   H     H_    0.178578 0.601775 0.659967 0.108237
H64   H     H_    0.900720 0.340229 0.344168 0.076491
H65   H     H_    0.822612 0.338410 0.400447 0.107132
H66   H     H_    0.129018 0.342448 0.627331 0.086239
H67   H     H_    0.762882 0.384613 0.934163 0.091862
H68   H     H_    0.217370 0.378378 0.636866 0.111893
H69   H     H_    0.898133 0.656029 0.341206 0.076835
H70   H     H_    0.819016 0.600802 0.338999 0.115710
H71   H     H_    0.181300 0.398240 0.339949 0.111487
H72   H     H_    0.101823 0.343487 0.340699 0.076114
H73   H     H_    0.819868 0.600701 0.662150 0.113554
H74   H     H_    0.898319 0.656810 0.658990 0.076467
H75   H     H_    0.180050 0.660822 0.399975 0.111512
H76   H     H_    0.100977 0.659645 0.344807 0.076521
H77   H     H_    0.821313 0.336740 0.598965 0.106415
H78   H     H_    0.236773 0.614664 0.065525 0.085228
H79   H     H_    0.899210 0.340290 0.655747 0.076804
H80   H     H_    0.662034 0.178379 0.599919 0.110092
H81   H     H_    0.659928 0.100156 0.656013 0.076348
H82   H     H_    0.398146 0.821626 0.341081 0.106171
H83   H     H_    0.343338 0.900301 0.340981 0.076113
H84   H     H_    0.656594 0.101266 0.341496 0.075955
H85   H     H_    0.601649 0.179796 0.340085 0.109657
H86   H     H_    0.339958 0.899704 0.655626 0.076599
H87   H     H_    0.337844 0.821338 0.599395 0.113280
H88   H     H_    0.340193 0.101916 0.344172 0.076106
H89   H     H_    0.614905 0.236729 0.066077 0.082980
H90   H     H_    0.339954 0.181367 0.398788 0.111483
H91   H     H_    0.656552 0.898570 0.659084 0.076802
H92   H     H_    0.601140 0.819570 0.660835 0.115526
H93   H     H_    0.402618 0.190732 0.678071 0.112855
H94   H     H_    0.352855 0.109298 0.660672 0.081407
H95   H     H_    0.600346 0.819420 0.337635 0.107939
H96   H     H_    0.656346 0.897940 0.341312 0.076379
N1    N     N_R   0.584840 0.879720 0.932190 -0.043151
N2    N     N_R   0.415160 0.879720 0.932190 -0.042571
N3    N     N_R   0.120280 0.415160 0.067810 -0.041762
N4    N     N_R   0.879720 0.584840 0.932190 -0.041426
N5    N     N_R   0.415160 0.879720 0.067810 -0.043110
N6    N     N_R   0.584840 0.120280 0.932190 -0.040642
N7    N     N_R   0.879720 0.584840 0.067810 -0.043179
N8    N     N_R   0.120280 0.415160 0.932190 -0.038411
N9    N     N_R   0.932190 0.584840 0.879720 -0.041320
N10   N     N_R   0.067810 0.415160 0.120280 -0.040819
N11   N     N_R   0.932190 0.120280 0.584840 -0.040895
N12   N     N_R   0.415160 0.120280 0.067810 -0.039211
N13   N     N_R   0.067810 0.879720 0.415160 -0.040794
N14   N     N_R   0.932190 0.415160 0.120280 -0.042694
N15   N     N_R   0.067810 0.584840 0.879720 -0.041436
N16   N     N_R   0.932190 0.879720 0.415160 -0.042696
N17   N     N_R   0.067810 0.120280 0.584840 -0.040797
N18   N     N_R   0.067810 0.584840 0.120280 -0.043079
N19   N     N_R   0.932190 0.415160 0.879720 -0.042780
N20   N     N_R   0.067810 0.120280 0.415160 -0.042872
N21   N     N_R   0.932190 0.879720 0.584840 -0.043001
N22   N     N_R   0.067810 0.415160 0.879720 -0.042801
N23   N     N_R   0.120280 0.584840 0.932190 -0.040727
N24   N     N_R   0.932190 0.584840 0.120280 -0.041061
N25   N     N_R   0.067810 0.879720 0.584840 -0.043085
N26   N     N_R   0.932190 0.120280 0.415160 -0.040691
N27   N     N_R   0.879720 0.932190 0.584840 -0.042941
N28   N     N_R   0.120280 0.067810 0.415160 -0.040950
N29   N     N_R   0.584840 0.932190 0.120280 -0.041092
N30   N     N_R   0.415160 0.067810 0.879720 -0.040148
N31   N     N_R   0.120280 0.932190 0.415160 -0.042875
N32   N     N_R   0.879720 0.067810 0.584840 -0.041380
N33   N     N_R   0.415160 0.932190 0.879720 -0.041758
N34   N     N_R   0.879720 0.415160 0.067810 -0.042959
N35   N     N_R   0.584840 0.067810 0.120280 -0.041357
N36   N     N_R   0.120280 0.067810 0.584840 -0.042390
N37   N     N_R   0.879720 0.932190 0.415160 -0.043020
N38   N     N_R   0.415160 0.067810 0.120280 -0.042658
N39   N     N_R   0.584840 0.932190 0.879720 -0.040926
N40   N     N_R   0.879720 0.067810 0.415160 -0.042938
N41   N     N_R   0.120280 0.932190 0.584840 -0.040959
N42   N     N_R   0.584840 0.067810 0.879720 -0.042842
N43   N     N_R   0.415160 0.932190 0.120280 -0.040703
N44   N     N_3   0.657582 0.653790 0.157354 -0.216264
N45   N     N_R   0.415160 0.120280 0.932190 -0.040457
N46   N     N_3   0.218110 0.210276 0.903037 -0.198936
N47   N     N_3   0.347619 0.657309 0.160895 -0.218916
N48   N     N_3   0.656086 0.347144 0.839650 -0.218197
N49   N     N_3   0.342045 0.346617 0.157638 -0.218270
N50   N     N_3   0.653886 0.657642 0.841742 -0.216129
N51   N     N_3   0.656426 0.346839 0.161045 -0.215381
N52   N     N_3   0.346622 0.655616 0.839230 -0.215547
N53   N     N_3   0.158877 0.657287 0.651989 -0.219211
N54   N     N_3   0.842060 0.347017 0.344545 -0.217746
N55   N     N_3   0.170545 0.357311 0.667302 -0.220844
N56   N     N_R   0.584840 0.879720 0.067810 -0.041360
N57   N     N_3   0.839413 0.656254 0.347775 -0.214326
N58   N     N_3   0.160491 0.342847 0.347826 -0.218555
N59   N     N_3   0.839526 0.656286 0.652847 -0.214537
N60   N     N_3   0.159607 0.652676 0.344267 -0.218909
N61   N     N_3   0.840478 0.346457 0.654883 -0.218754
N62   N     N_3   0.653305 0.158838 0.655767 -0.219387
N63   N     N_3   0.342704 0.841699 0.348581 -0.218808
N64   N     N_3   0.657093 0.159987 0.348356 -0.219314
N65   N     N_3   0.346844 0.841050 0.655240 -0.218346
N66   N     N_3   0.347464 0.160605 0.343172 -0.219144
N67   N     N_R   0.879720 0.415160 0.932190 -0.042599
N68   N     N_3   0.656632 0.839842 0.652317 -0.214417
N69   N     N_3   0.350972 0.168436 0.657957 -0.218028
N70   N     N_3   0.655902 0.839141 0.347233 -0.214490
N71   N     N_R   0.120280 0.584840 0.067810 -0.040491
N72   N     N_R   0.584840 0.120280 0.067810 -0.040737
Ni1   Ni    Ni4+2 0.500000 0.880920 0.000000 0.207182
Ni2   Ni    Ni4+2 0.119080 1.000000 0.500000 0.205621
Ni3   Ni    Ni4+2 0.500000 1.000000 0.119080 0.203688
Ni4   Ni    Ni4+2 0.500000 0.000000 0.880920 0.206607
Ni5   Ni    Ni4+2 0.500000 0.119080 0.000000 0.203674
Ni6   Ni    Ni4+2 0.119080 0.500000 0.000000 0.205958
Ni7   Ni    Ni4+2 0.880920 0.500000 0.000000 0.207275
Ni8   Ni    Ni4+2 1.000000 0.500000 0.880920 0.206304
Ni9   Ni    Ni4+2 1.000000 0.500000 0.119080 0.206461
Ni10  Ni    Ni4+2 1.000000 0.119080 0.500000 0.204276
Ni11  Ni    Ni4+2 0.000000 0.880920 0.500000 0.208449
Ni12  Ni    Ni4+2 0.880920 1.000000 0.500000 0.207763

loop_
_geom_bond_atom_site_label_1
_geom_bond_atom_site_label_2
_ccdc_geom_bond_type
C27   C48   S    
N35   Ni3   S    
C40   C93   A    
C103  H3    S    
H92   N68   S    
C32   C81   A    
C100  N71   A    
C77   C89   A    
C54   C107  A    
C4    H22   S    
C108  N8    A    
C24   C54   S    
C84   N63   S    
C95   N34   A    
C31   C59   S    
N37   Ni12  S    
H72   N58   S    
N11   N32   A    
N22   Ni8   S    
C53   C106  A    
N27   Ni12  S    
H70   N57   S    
N7    Ni7   S    
C46   C55   S    
C58   C113  A    
C6    N25   A    
H96   N70   S    
N8    N22   A    
H71   N58   S    
C107  N7    A    
C7    H26   S    
C46   C98   A    
C50   C103  A    
C1    C91   A    
C113  H13   S    
C4    C56   A    
C111  N10   A    
C92   H1    S    
C22   N41   A    
H94   N69   S    
C42   C95   A    
C44   C81   A    
C49   C102  A    
C22   H41   S    
C98   N67   A    
C15   N33   A    
C36   C86   A    
C51   C104  A    
N19   N67   A    
H47   N46   S    
C33   C43   S    
C6    C63   A    
H52   N48   S    
C98   H67   S    
N20   Ni10  S    
H81   N62   S    
C30   C76   A    
C111  H10   S    
N24   Ni9   S    
C16   H35   S    
C43   C96   A    
C60   C117  A    
N30   N45   A    
C2    C52   S    
H65   N54   S    
N16   Ni11  S    
C119  N19   A    
C79   N58   S    
C28   C71   A    
C20   N39   A    
C14   C57   A    
H69   N57   S    
N34   Ni7   S    
N16   N37   A    
C97   N56   A    
C12   N31   A    
C17   N36   A    
C105  H5    S    
C107  H7    S    
C18   H37   S    
C21   N40   A    
C66   C70   A    
H93   N69   S    
C48   C101  A    
N31   Ni2   S    
C15   C49   A    
C112  H11   S    
C92   N1    A    
C94   N23   A    
H62   N53   S    
C118  H18   S    
H48   N46   S    
N17   N36   A    
C8    C62   A    
C100  H78   S    
C5    N24   A    
N45   Ni5   S    
C3    H21   S    
N29   Ni3   S    
N30   Ni4   S    
C9    C61   A    
C2    C68   A    
C10   H29   S    
H82   N63   S    
N18   N71   A    
C76   N55   S    
H49   N47   S    
C7    N26   A    
C56   C108  A    
C21   C64   A    
N3    Ni6   S    
C22   C63   A    
H66   N55   S    
C42   C114  A    
N67   Ni7   S    
C1    C65   A    
C120  H20   S    
N5    Ni1   S    
C93   H12   S    
C13   C56   S    
H77   N61   S    
C116  N16   A    
C61   C120  A    
C41   C115  A    
H55   N50   S    
H60   N52   S    
C23   C53   A    
C37   C80   A    
C5    C54   A    
C101  H89   S    
H46   N44   S    
C73   N52   S    
N56   Ni1   S    
H87   N65   S    
H61   N52   S    
C69   C110  A    
C117  N17   A    
C10   C45   A    
C114  H14   S    
C83   C110  A    
N11   Ni10  S    
C108  H8    S    
C55   C69   A    
H54   N49   S    
C52   C105  A    
C71   N50   S    
H80   N62   S    
C109  H9    S    
C71   C77   A    
C3    C62   A    
N42   Ni4   S    
C89   N68   S    
C19   H38   S    
C113  N13   A    
C104  H4    S    
C75   N54   S    
N9    Ni8   S    
C9    H28   S    
C31   C91   A    
C81   N60   S    
H64   N54   S    
N14   Ni9   S    
C87   N66   S    
N15   Ni8   S    
C35   C85   A    
C1    C45   S    
C115  H15   S    
C25   H43   S    
C105  N5    A    
C50   C111  A    
N36   Ni2   S    
N3    N10   A    
C15   H33   S    
C19   C40   A    
C102  N2    A    
C17   C60   A    
C25   N43   A    
C18   C59   A    
C51   C109  A    
C14   H32   S    
C4    N22   A    
C96   H45   S    
N32   Ni12  S    
C34   C82   A    
H63   N53   S    
C2    C84   A    
C32   C58   S    
C30   C90   A    
H53   N49   S    
C37   C62   S    
N23   Ni6   S    
H74   N59   S    
N40   Ni12  S    
C28   C51   S    
C38   C79   A    
C26   C73   A    
C73   C99   A    
C27   C85   A    
N19   Ni8   S    
C47   C118  A    
C23   N42   A    
H83   N63   S    
C59   C116  A    
C41   C99   S    
H76   N60   S    
C23   H42   S    
C112  N11   A    
C40   C66   S    
N1    Ni1   S    
C16   N35   A    
C32   C84   A    
N17   Ni10  S    
N21   N27   A    
N29   N56   A    
C26   C49   S    
C20   C39   A    
C5    H24   S    
C8    N27   A    
C80   N59   S    
N12   Ni5   S    
C29   C79   A    
C10   N29   A    
N72   Ni5   S    
C36   C74   A    
C24   C78   A    
C21   H40   S    
N35   N72   A    
N38   Ni3   S    
C39   C92   A    
C31   C78   A    
C29   C70   A    
C6    H25   S    
C11   N30   A    
H95   N70   S    
H88   N66   S    
C74   C99   A    
C116  H16   S    
C106  H6    S    
C37   C89   A    
C38   C87   A    
C95   H34   S    
C119  H19   S    
H57   N50   S    
H79   N61   S    
N6    Ni5   S    
H51   N48   S    
C25   C52   A    
N2    Ni1   S    
C91   N70   S    
H91   N68   S    
C102  H2    S    
C17   H36   S    
C27   C72   A    
N21   Ni11  S    
C103  N3    A    
H59   N51   S    
C53   C110  S    
C96   N45   A    
N26   N40   A    
N4    Ni7   S    
C83   N62   S    
C16   C48   A    
N25   Ni11  S    
C35   C75   A    
N25   N41   A    
C94   H23   S    
C39   C77   S    
N7    N24   A    
C57   C112  A    
H84   N64   S    
N15   N23   A    
N1    N39   A    
C104  N4    A    
C11   H30   S    
C41   C94   A    
C20   H39   S    
C30   C60   S    
C46   C119  A    
C34   C57   S    
N5    N43   A    
H86   N65   S    
C11   C43   A    
C35   C64   S    
C36   C63   S    
C115  N15   A    
C44   C47   S    
C38   C61   S    
C12   C58   A    
C97   H56   S    
C12   H31   S    
C72   C88   A    
C74   N53   S    
N41   Ni2   S    
C69   N48   S    
C14   N32   A    
C29   C50   S    
C18   N37   A    
H90   N66   S    
C65   N44   S    
C66   C87   A    
C109  N9    A    
H58   N51   S    
N33   Ni4   S    
C72   N51   S    
C47   C100  A    
C101  N72   A    
H50   N47   S    
N13   N31   A    
N39   Ni4   S    
C118  N18   A    
C19   N38   A    
C13   C76   A    
N43   Ni3   S    
C26   C86   A    
C90   N69   S    
C85   N64   S    
C55   C82   A    
N6    N42   A    
C3    N21   A    
N12   N38   A    
C24   C65   A    
H44   N44   S    
H68   N55   S    
N18   Ni9   S    
N8    Ni6   S    
C44   C68   A    
C82   N61   S    
C42   C88   S    
C34   C83   A    
C67   N46   S    
C33   C67   A    
C70   N49   S    
C13   C67   A    
N28   Ni2   S    
N26   Ni10  S    
N10   Ni9   S    
C117  H17   S    
C114  N14   A    
H73   N59   S    
N71   Ni6   S    
N20   N28   A    
C45   C97   A    
C33   C90   A    
C120  N20   A    
C93   N12   A    
C106  N6    A    
H85   N64   S    
N2    N33   A    
C86   N65   S    
N4    N9    A    
N13   Ni11  S    
C28   C80   A    
C7    C64   A    
C8    H27   S    
C75   C88   A    
H75   N60   S    
C78   N57   S    
N14   N34   A    
C9    N28   A    
C68   N47   S    
