data_mof_unit_46784.cif
_audit_creation_date              2012-12-10T20:25:43-0500
_audit_creation_method            fapswitch 2.2
_symmetry_space_group_name_H-M    P1
_symmetry_Int_Tables_number       1
_space_group_crystal_system       triclinic
_cell_length_a                    8.662701
_cell_length_b                    10.720772
_cell_length_c                    9.952598
_cell_angle_alpha                 87.870887
_cell_angle_beta                  96.216761
_cell_angle_gamma                 92.662476
_cell_volume                      917.398408091

loop_
_atom_site_label
_atom_site_type_symbol
_atom_type_description
_atom_site_fract_x
_atom_site_fract_y
_atom_site_fract_z
_atom_type_partial_charge
Br1   Br    Br    0.112299 0.300019 0.134734 -0.397388
Br2   Br    Br    0.720324 0.159199 0.281959 -0.369855
Br3   Br    Br    0.398433 0.114414 0.880012 -0.456210
Br4   Br    Br    0.704375 0.716302 0.165256 -0.554119
C1    C     C_R   0.506440 0.260576 0.502834 0.914649
C2    C     C_R   0.403394 0.419309 0.922944 0.174390
C3    C     C_3   0.232001 0.413863 0.894315 -0.505630
C4    C     C_R   0.203197 0.500043 0.467048 1.003533
C5    C     C_3   0.224291 0.433306 0.042718 0.271665
C6    C     C_R   0.500691 0.739615 0.498484 0.895974
C7    C     C_R   0.797000 0.498039 0.532852 0.902026
C8    C     C_2   0.045392 0.524341 0.454207 -0.093775
C9    C     C_2   0.955690 0.471701 0.544271 -0.114791
C10   C     C_R   0.475219 0.056986 0.617334 0.035312
C11   C     C_R   0.527567 0.129447 0.510362 -0.195342
C12   C     C_R   0.593084 0.941542 0.407392 -0.203011
C13   C     C_R   0.602918 0.070907 0.411932 0.279804
C14   C     C_R   0.512203 0.871832 0.500516 -0.156825
C15   C     C_R   0.465927 0.930137 0.610857 0.080371
C16   C     C_3   0.322793 0.915235 0.683202 0.108315
C17   C     C_3   0.337242 0.058030 0.696996 0.295961
C18   C     C_R   0.398309 0.423738 0.064369 0.211739
C19   C     C_R   0.594740 0.580587 0.075397 0.231661
C20   C     C_R   0.598241 0.577698 0.932299 0.110822
H1    H     H_    0.189380 0.493292 0.827660 0.214614
H2    H     H_    0.950720 0.288560 0.595523 0.201182
H3    H     H_    0.965635 0.382316 0.727170 0.213603
H4    H     H_    0.088238 0.874206 0.649282 0.188205
H5    H     H_    0.197142 0.776618 0.576420 0.180656
H6    H     H_    0.343019 0.748499 0.792304 0.205285
H7    H     H_    0.253040 0.857139 0.866376 0.219244
H8    H     H_    0.111428 0.106337 0.681275 0.199844
H9    H     H_    0.233401 0.219158 0.630787 0.218765
H10   H     H_    0.187832 0.319948 0.861348 0.238941
H11   H     H_    0.647083 0.896923 0.330922 0.237898
H12   H     H_    0.932590 0.683494 0.395092 0.221738
H13   H     H_    0.930557 0.570227 0.274639 0.266059
H14   H     H_    0.672752 0.752683 0.878678 0.233105
H15   H     H_    0.814534 0.647325 0.906580 0.193517
H16   H     H_    0.051091 0.552599 0.068599 0.219128
H17   H     H_    0.226466 0.599206 0.146845 0.244894
N1    N     N_R   0.498950 0.499140 0.142680 -0.155142
N2    N     N_R   0.498950 0.499180 0.857030 -0.128136
N3    N     N_3   0.995758 0.616733 0.353190 -0.452683
N4    N     N_3   0.700517 0.660663 0.864120 -0.377715
N5    N     N_3   0.170408 0.558903 0.060279 -0.476856
N6    N     N_3   0.006729 0.370290 0.633813 -0.471336
N7    N     N_3   0.185309 0.870653 0.595800 -0.432302
N8    N     N_3   0.347127 0.843705 0.811737 -0.400262
N9    N     N_3   0.206666 0.123513 0.626097 -0.434680
O1    O     O_R   0.500020 0.316790 0.614690 -0.609935
O2    O     O_R   0.500000 0.316760 0.385350 -0.557017
O3    O     O_R   0.271760 0.500010 0.587850 -0.644979
O4    O     O_R   0.271740 0.499970 0.358500 -0.616012
O5    O     O_R   0.500000 0.683240 0.614650 -0.628867
O6    O     O_R   0.499980 0.683210 0.385310 -0.583215
O7    O     O_R   0.728260 0.500030 0.641500 -0.606892
O8    O     O_R   0.728240 0.499990 0.412150 -0.590303
Zn1   Zn    Zn3+2 0.500010 0.500020 0.653130 0.968147
Zn2   Zn    Zn3+2 0.499990 0.499980 0.346870 1.032231

loop_
_geom_bond_atom_site_label_1
_geom_bond_atom_site_label_2
_ccdc_geom_bond_type
C4    O3    A    
H17   N5    S    
C1    O2    A    
C11   C13   A    
C16   N8    S    
O5    Zn1   S    
C7    O8    A    
C6    O6    A    
O8    Zn2   S    
C15   C16   S    
C3    H1    S    
Br3   C17   S    
N2    Zn1   S    
C4    C8    S    
H13   N3    S    
O3    Zn1   S    
C5    N5    S    
C8    N3    S    
C18   N1    A    
C8    C9    D    
Br2   C13   S    
H16   N5    S    
C6    O5    A    
C7    C9    S    
H8    N9    S    
C16   N7    S    
C19   N1    A    
H2    N6    S    
H7    N8    S    
C20   N4    S    
C10   C17   S    
C4    O4    A    
C17   N9    S    
H6    N8    S    
C6    C14   S    
Br4   C19   S    
C2    C3    S    
C2    N2    A    
C12   H11   S    
C3    H10   S    
C5    C18   S    
H12   N3    S    
O7    Zn1   S    
C1    C11   S    
C19   C20   A    
N1    Zn2   S    
C2    C18   A    
Br1   C5    S    
C16   C17   S    
C12   C14   A    
C14   C15   A    
H3    N6    S    
C3    C5    S    
C20   N2    A    
C10   C11   A    
H4    N7    S    
H14   N4    S    
O4    Zn2   S    
H5    N7    S    
O2    Zn2   S    
H9    N9    S    
C7    O7    A    
C9    N6    S    
C10   C15   A    
O1    Zn1   S    
C1    O1    A    
H15   N4    S    
O6    Zn2   S    
C12   C13   A    
