data_mof_unit_59261.cif
_audit_creation_date              2012-12-11T14:40:17-0500
_audit_creation_method            fapswitch 2.2
_symmetry_space_group_name_H-M    P1
_symmetry_Int_Tables_number       1
_space_group_crystal_system       triclinic
_cell_length_a                    19.619839
_cell_length_b                    10.838133
_cell_length_c                    19.494845
_cell_angle_alpha                 90.091588
_cell_angle_beta                  97.661625
_cell_angle_gamma                 89.980039
_cell_volume                      4108.41838409

loop_
_atom_site_label
_atom_site_type_symbol
_atom_type_description
_atom_site_fract_x
_atom_site_fract_y
_atom_site_fract_z
_atom_type_partial_charge
C1    C     C_R   0.710204 0.993144 0.367501 0.536639
C2    C     C_R   0.293180 0.002071 0.633802 0.562807
C3    C     C_R   0.206706 0.502554 0.365912 0.559174
C4    C     C_R   0.790216 0.493955 0.632512 0.532449
C5    C     C_3   0.686586 0.379159 0.489774 -0.134014
C6    C     C_3   0.302724 0.420655 0.519420 -0.120022
C7    C     C_3   0.227504 0.846469 0.487158 -0.118230
C8    C     C_3   0.789845 0.813376 0.499988 -0.149047
C9    C     C_3   0.738454 0.365324 0.438219 0.057109
C10   C     C_3   0.247981 0.414465 0.568649 0.057409
C11   C     C_3   0.253548 0.920723 0.429079 0.056695
C12   C     C_3   0.760372 0.867804 0.562076 0.060619
C13   C     C_3   0.767510 0.494661 0.454926 -0.112359
C14   C     C_3   0.217887 0.539084 0.543669 -0.145105
C15   C     C_3   0.230747 0.041643 0.459340 -0.135781
C16   C     C_3   0.775358 0.999572 0.540436 -0.117580
C17   C     C_3   0.821103 0.436969 0.510831 -0.124335
C18   C     C_3   0.167984 0.470167 0.488186 -0.131022
C19   C     C_3   0.303401 0.052519 0.502098 -0.147340
C20   C     C_3   0.702327 0.004628 0.499194 -0.147095
C21   C     C_3   0.791782 0.307127 0.493336 -0.114058
C22   C     C_3   0.198460 0.345105 0.513863 -0.101959
C23   C     C_3   0.325619 0.930649 0.470255 -0.114369
C24   C     C_3   0.687559 0.872360 0.521749 -0.102619
C25   C     C_3   0.740238 0.321783 0.545993 -0.112312
C26   C     C_3   0.253102 0.352521 0.464241 -0.114049
C27   C     C_3   0.299776 0.856020 0.528768 -0.112799
C28   C     C_3   0.716919 0.818089 0.459000 -0.115660
C29   C     C_3   0.769617 0.450887 0.562647 0.056824
C30   C     C_3   0.222489 0.476294 0.439131 0.051824
C31   C     C_3   0.277711 0.976767 0.559868 0.053084
C32   C     C_3   0.731363 0.949930 0.436977 0.060779
C33   C     C_3   0.518986 0.276710 0.970379 -0.103450
C34   C     C_3   0.476710 0.272389 0.031222 -0.104311
C35   C     C_3   0.019006 0.776694 0.970373 -0.103604
C36   C     C_3   0.976729 0.772407 0.031216 -0.104184
C37   C     C_3   0.568521 0.177120 0.004177 -0.144911
C38   C     C_3   0.430733 0.169046 0.995870 -0.145634
C39   C     C_3   0.068527 0.677088 0.004176 -0.144941
C40   C     C_3   0.930738 0.669078 0.995869 -0.145565
C41   C     C_3   0.526245 0.173203 0.064462 0.056875
C42   C     C_3   0.473043 0.173714 0.935613 0.057144
C43   C     C_3   0.026250 0.673204 0.064461 0.057286
C44   C     C_3   0.973048 0.673712 0.935612 0.056788
C45   C     C_R   0.535075 0.179955 0.338047 0.539826
C46   C     C_R   0.464944 0.179828 0.661958 0.546231
C47   C     C_R   0.034843 0.680001 0.337879 0.546940
C48   C     C_R   0.964776 0.679868 0.661832 0.540916
C49   C     C_3   0.480554 0.069490 0.030263 -0.106875
C50   C     C_3   0.522303 0.073798 0.968338 -0.106341
C51   C     C_3   0.980545 0.569506 0.030267 -0.106564
C52   C     C_3   0.022294 0.573780 0.968341 -0.106638
C53   C     C_1   0.763155 0.425318 0.904330 -0.006063
C54   C     C_1   0.236817 0.425050 0.095679 -0.005875
C55   C     C_1   0.263157 0.925324 0.904331 -0.006012
C56   C     C_1   0.736818 0.925048 0.095680 -0.006204
C57   C     C_1   0.747468 0.408020 0.034586 -0.048716
C58   C     C_1   0.252582 0.408030 0.965453 -0.048346
C59   C     C_1   0.247470 0.908025 0.034586 -0.048481
C60   C     C_1   0.752582 0.908028 0.965453 -0.048559
C61   C     C_1   0.754488 0.415308 0.963913 -0.047324
C62   C     C_1   0.245518 0.415115 0.036103 -0.047638
C63   C     C_1   0.254490 0.915314 0.963914 -0.047711
C64   C     C_1   0.745519 0.915113 0.036103 -0.047339
C65   C     C_1   0.742429 0.394882 0.094872 -0.008246
C66   C     C_1   0.257625 0.395022 0.905156 -0.006168
C67   C     C_1   0.242429 0.894883 0.094871 -0.005897
C68   C     C_1   0.757625 0.895023 0.905155 -0.008305
C69   C     C_R   0.726432 0.316134 0.368662 0.533426
C70   C     C_R   0.259998 0.365350 0.638558 0.542591
C71   C     C_R   0.240854 0.868594 0.359935 0.538450
C72   C     C_R   0.772965 0.817938 0.631230 0.536675
C73   C     C_R   0.721807 0.952442 0.163634 0.549514
C74   C     C_R   0.278197 0.952576 0.836384 0.547838
C75   C     C_R   0.221806 0.452443 0.163633 0.547382
C76   C     C_R   0.778195 0.452572 0.836382 0.549005
C77   C     C_R   0.557987 0.181767 0.135378 0.557706
C78   C     C_R   0.441675 0.182001 0.864556 0.557967
C79   C     C_R   0.057989 0.681767 0.135378 0.557834
C80   C     C_R   0.941677 0.682001 0.864556 0.557891
C81   C     C_R   0.735784 0.360471 0.164249 0.550099
C82   C     C_R   0.264212 0.360595 0.835745 0.541156
C83   C     C_R   0.235783 0.860465 0.164244 0.539736
C84   C     C_R   0.764211 0.860600 0.835741 0.550134
C85   C     C_1   0.485939 0.171634 0.594746 -0.015285
C86   C     C_1   0.514062 0.171941 0.405243 -0.020949
C87   C     C_1   0.985212 0.671890 0.594372 -0.018594
C88   C     C_1   0.013195 0.672334 0.404812 -0.017068
C89   C     C_1   0.504117 0.168319 0.464717 -0.064981
C90   C     C_1   0.495879 0.168179 0.535261 -0.060801
C91   C     C_1   0.002913 0.669050 0.464196 -0.062806
C92   C     C_1   0.994774 0.668751 0.534770 -0.062922
C93   C     C_3   0.716046 0.509455 0.507998 -0.127073
C94   C     C_3   0.272398 0.545855 0.492798 -0.130701
C95   C     C_3   0.205394 0.967637 0.518806 -0.104838
C96   C     C_3   0.804382 0.946036 0.476670 -0.108207
Cr1   Cr    Cr6+3 0.765830 0.160660 0.268180 1.020808
Cr2   Cr    Cr6+3 0.234170 0.160660 0.731820 1.022047
Cr3   Cr    Cr6+3 0.265830 0.660660 0.268180 1.022710
Cr4   Cr    Cr6+3 0.734170 0.660660 0.731820 1.021460
Cr5   Cr    Cr6+3 0.612110 0.009150 0.248770 1.020481
Cr6   Cr    Cr6+3 0.387890 0.009150 0.751230 1.023961
Cr7   Cr    Cr6+3 0.112110 0.509150 0.248770 1.022706
Cr8   Cr    Cr6+3 0.887890 0.509150 0.751230 1.020719
Cr9   Cr    Cr6+3 0.615930 0.324050 0.248450 1.022704
Cr10  Cr    Cr6+3 0.384070 0.324050 0.751550 1.021369
Cr11  Cr    Cr6+3 0.115930 0.824050 0.248450 1.022512
Cr12  Cr    Cr6+3 0.884070 0.824050 0.751550 1.022967
H1    H     H_    0.631327 0.354134 0.479197 0.121222
H2    H     H_    0.358195 0.399797 0.533848 0.126878
H3    H     H_    0.193969 0.764150 0.478257 0.107961
H4    H     H_    0.826478 0.734930 0.502686 0.100702
H5    H     H_    0.684946 0.591800 0.517122 0.119659
H6    H     H_    0.303949 0.624231 0.479003 0.129441
H7    H     H_    0.156282 0.982698 0.540037 0.129864
H8    H     H_    0.851678 0.977538 0.456394 0.129035
H9    H     H_    0.822944 0.224215 0.485325 0.120495
H10   H     H_    0.167819 0.261974 0.522866 0.131826
H11   H     H_    0.374712 0.915751 0.448942 0.130261
H12   H     H_    0.639252 0.841602 0.540355 0.137454
H13   H     H_    0.729092 0.253669 0.585454 0.126952
H14   H     H_    0.268931 0.282076 0.428284 0.123307
H15   H     H_    0.328482 0.781210 0.558849 0.132746
H16   H     H_    0.692536 0.744884 0.424134 0.134688
H17   H     H_    0.625565 0.180345 0.009521 0.111472
H18   H     H_    0.373689 0.165756 0.990478 0.111670
H19   H     H_    0.125571 0.680287 0.009520 0.111622
H20   H     H_    0.873694 0.665813 0.990478 0.111633
O1    O     O_R   0.783230 0.287800 0.346510 -0.513030
O2    O     O_R   0.216770 0.287800 0.653490 -0.526498
O3    O     O_R   0.283230 0.787800 0.346510 -0.528433
O4    O     O_R   0.716770 0.787800 0.653490 -0.522041
O5    O     O_R   0.554500 0.081650 0.170370 -0.497840
O6    O     O_R   0.445500 0.081650 0.829630 -0.498665
O7    O     O_R   0.054500 0.581650 0.170370 -0.498598
O8    O     O_R   0.945500 0.581650 0.829630 -0.497411
O9    O     O_R   0.545430 0.285140 0.163100 -0.513930
O10   O     O_R   0.454570 0.285140 0.836900 -0.513996
O11   O     O_R   0.045430 0.785140 0.163100 -0.514326
O12   O     O_R   0.954570 0.785140 0.836900 -0.514357
O13   O     O_R   0.677850 0.374730 0.185500 -0.501681
O14   O     O_R   0.322150 0.374730 0.814500 -0.506302
O15   O     O_R   0.177850 0.874730 0.185500 -0.507268
O16   O     O_R   0.822150 0.874730 0.814500 -0.501961
O17   O     O_3   0.664630 0.164620 0.255130 -0.303567
O18   O     O_3   0.335370 0.164620 0.744870 -0.292566
O19   O     O_3   0.164630 0.664620 0.255130 -0.292301
O20   O     O_3   0.835370 0.664620 0.744870 -0.303517
O21   O     O_R   0.760130 0.037060 0.338610 -0.513200
O22   O     O_R   0.239870 0.037060 0.661390 -0.501787
O23   O     O_R   0.260130 0.537060 0.338610 -0.496604
O24   O     O_R   0.739870 0.537060 0.661390 -0.506367
O25   O     O_R   0.666620 0.921370 0.332440 -0.509448
O26   O     O_R   0.333380 0.921370 0.667560 -0.515216
O27   O     O_R   0.166620 0.421370 0.332440 -0.513157
O28   O     O_R   0.833380 0.421370 0.667560 -0.506339
O29   O     O_R   0.557170 0.082420 0.312350 -0.504278
O30   O     O_R   0.442830 0.082420 0.687650 -0.505773
O31   O     O_R   0.057170 0.582420 0.312350 -0.509473
O32   O     O_R   0.942830 0.582420 0.687650 -0.507031
O33   O     O_R   0.548310 0.285980 0.316250 -0.509050
O34   O     O_R   0.451690 0.285980 0.683750 -0.504580
O35   O     O_R   0.048310 0.785980 0.316250 -0.499835
O36   O     O_R   0.951690 0.785980 0.683750 -0.506124
O37   O     O_R   0.680520 0.375500 0.327470 -0.493466
O38   O     O_R   0.319480 0.375500 0.672530 -0.502986
O39   O     O_R   0.180520 0.875500 0.327470 -0.499966
O40   O     O_R   0.819480 0.875500 0.672530 -0.494503
O41   O     O_R   0.780350 0.286970 0.193350 -0.500132
O42   O     O_R   0.219650 0.286970 0.806650 -0.504537
O43   O     O_R   0.280350 0.786970 0.193350 -0.505517
O44   O     O_R   0.719650 0.786970 0.806650 -0.500089
O45   O     O_R   0.757460 0.036290 0.196640 -0.490166
O46   O     O_R   0.242540 0.036290 0.803360 -0.490467
O47   O     O_R   0.257460 0.536290 0.196640 -0.490450
O48   O     O_R   0.742540 0.536290 0.803360 -0.490098
O49   O     O_R   0.663740 0.920540 0.179290 -0.507366
O50   O     O_R   0.336260 0.920540 0.820710 -0.509020
O51   O     O_R   0.163740 0.420540 0.179290 -0.509461
O52   O     O_R   0.836260 0.420540 0.820710 -0.507444
H21   H     H_    0.778188 0.563447 0.415602 0.126685
H22   H     H_    0.204215 0.614269 0.578085 0.119814
H23   H     H_    0.200072 0.112262 0.427837 0.118863
H24   H     H_    0.800471 0.070508 0.576337 0.127063
H25   H     H_    0.335493 0.136785 0.510806 0.105621
H26   H     H_    0.666031 0.083592 0.496863 0.100585
H27   H     H_    0.876415 0.461876 0.521086 0.119380
H28   H     H_    0.112491 0.489631 0.473530 0.123887
H29   H     H_    0.534901 0.362099 0.945403 0.143612
H30   H     H_    0.457842 0.354085 0.057543 0.143434
H31   H     H_    0.034932 0.862070 0.945392 0.143583
H32   H     H_    0.957873 0.854118 0.057532 0.143400
H33   H     H_    0.465561 0.984948 0.056633 0.135354
H34   H     H_    0.540256 0.992799 0.940764 0.135597
H35   H     H_    0.965539 0.484976 0.056641 0.135648
H36   H     H_    0.040235 0.492767 0.940771 0.135423

loop_
_geom_bond_atom_site_label_1
_geom_bond_atom_site_label_2
_ccdc_geom_bond_type
C58   C62   S    
C79   O11   A    
C82   O42   A    
C67   C83   S    
Cr4   O44   S    
C17   C29   S    
C14   C18   S    
C19   C23   S    
C35   C36   S    
C8    C96   S    
C82   O14   A    
C44   C80   S    
C19   C31   S    
Cr6   O30   S    
C94   H6    S    
Cr7   O19   S    
C38   C49   S    
C47   O31   A    
Cr4   O24   S    
C15   C19   S    
Cr12  O36   S    
C69   O37   A    
Cr5   O17   S    
C21   C25   S    
C2    O22   A    
C33   C42   S    
Cr10  O38   S    
C9    C69   S    
C74   O46   A    
C8    H4    S    
C15   C95   S    
Cr2   O46   S    
C9    C13   S    
C11   C71   S    
Cr10  O10   S    
C20   H26   S    
Cr3   O43   S    
C83   O43   A    
C84   O16   A    
C43   C79   S    
C46   O30   A    
C70   O2    A    
C7    C27   S    
C33   H29   S    
C18   H28   S    
C57   C61   S    
C45   O33   A    
C36   C40   S    
C21   H9    S    
C59   C67   T    
C55   C74   S    
C11   C15   S    
C58   C66   T    
C28   H16   S    
C20   C24   S    
C95   H7    S    
C6    C94   S    
C15   H23   S    
Cr4   O48   S    
C35   H31   S    
C56   C64   T    
Cr10  O14   S    
C18   C30   S    
C81   O41   A    
Cr1   O1    S    
C3    O23   A    
C75   O51   A    
Cr6   O26   S    
C4    C29   S    
C16   C20   S    
C46   C85   S    
C47   O35   A    
C44   C52   S    
C81   O13   A    
C39   C52   S    
Cr12  O40   S    
Cr5   O29   S    
C2    O26   A    
C36   H32   S    
C87   C92   T    
C17   H27   S    
C73   O45   A    
C72   O40   A    
C34   C41   S    
C77   O5    A    
Cr8   O32   S    
C78   O10   A    
C41   C49   S    
C96   H8    S    
C38   H18   S    
C72   O4    A    
C37   H17   S    
C25   C29   S    
C4    O24   A    
Cr11  O39   S    
C16   C96   S    
C39   H19   S    
C24   H12   S    
C27   C31   S    
C51   C52   S    
C68   C84   S    
C12   C16   S    
C28   C32   S    
C76   O48   A    
C45   O29   A    
C10   C14   S    
C57   C65   T    
C91   C92   S    
Cr12  O12   S    
C29   C93   S    
C39   C43   S    
Cr2   O18   S    
C76   O52   A    
Cr5   O25   S    
C80   O12   A    
C75   O47   A    
C1    C32   S    
C10   C22   S    
Cr4   O20   S    
C55   C63   T    
C2    C31   S    
C49   H33   S    
C6    H2    S    
C3    C30   S    
C35   C39   S    
C17   C21   S    
Cr6   O6    S    
C5    C9    S    
C66   C82   S    
Cr11  O19   S    
C7    C11   S    
C74   O50   A    
C88   C91   T    
C34   H30   S    
C8    C12   S    
Cr9   O17   S    
Cr2   O2    S    
C3    O27   A    
C33   C34   S    
C36   C43   S    
C48   C87   S    
C93   H5    S    
Cr8   O28   S    
C1    O25   A    
C35   C44   S    
C78   O6    A    
C14   H22   S    
C42   C50   S    
C5    C25   S    
C10   C70   S    
Cr7   O27   S    
C4    O28   A    
Cr11  O35   S    
C26   C30   S    
Cr2   O22   S    
C23   C27   S    
C25   H13   S    
C46   O34   A    
Cr6   O50   S    
Cr9   O33   S    
C59   C63   S    
C53   C76   S    
C53   C61   T    
C9    C21   S    
Cr12  O16   S    
C79   O7    A    
C20   C32   S    
C22   H10   S    
Cr1   O21   S    
Cr3   O19   S    
C27   H15   S    
C56   C73   S    
Cr8   O8    S    
C32   C96   S    
C34   C38   S    
Cr1   O17   S    
Cr3   O23   S    
Cr8   O52   S    
C24   C28   S    
C77   O9    A    
C52   H36   S    
C84   O44   A    
C86   C89   T    
Cr10  O18   S    
C6    C10   S    
C5    C93   S    
C85   C90   T    
C16   H24   S    
C42   C78   S    
C48   O36   A    
Cr5   O5    S    
C40   C51   S    
C7    C95   S    
C12   C24   S    
C13   H21   S    
C83   O15   A    
C80   O8    A    
Cr3   O3    S    
Cr7   O7    S    
C60   C64   S    
C47   C88   S    
C48   O32   A    
C18   C22   S    
C45   C86   S    
Cr1   O41   S    
C73   O49   A    
Cr8   O20   S    
C30   C94   S    
C51   H35   S    
Cr4   O4    S    
C19   H25   S    
C41   C77   S    
C37   C50   S    
C50   H34   S    
Cr7   O31   S    
C6    C26   S    
C5    H1    S    
C43   C51   S    
C8    C28   S    
C11   C23   S    
C7    H3    S    
Cr7   O51   S    
Cr10  O34   S    
C37   C41   S    
C12   C72   S    
Cr9   O13   S    
C33   C37   S    
C70   O38   A    
Cr5   O49   S    
C31   C95   S    
Cr9   O9    S    
C13   C17   S    
Cr2   O42   S    
C38   C42   S    
C40   C44   S    
Cr3   O47   S    
C23   H11   S    
C60   C68   T    
C71   O3    A    
C69   O1    A    
C49   C50   S    
C22   C26   S    
C13   C93   S    
Cr9   O37   S    
C65   C81   S    
C54   C62   T    
C1    O21   A    
C71   O39   A    
C26   H14   S    
C89   C90   S    
Cr11  O15   S    
C14   C94   S    
Cr11  O11   S    
Cr6   O18   S    
Cr1   O45   S    
C54   C75   S    
Cr12  O20   S    
C40   H20   S    
