data_mof_unit_19513.cif
_audit_creation_date              2012-12-10T18:54:25-0500
_audit_creation_method            fapswitch 2.2
_symmetry_space_group_name_H-M    P1
_symmetry_Int_Tables_number       1
_space_group_crystal_system       triclinic
_cell_length_a                    10.735294
_cell_length_b                    10.0
_cell_length_c                    23.422471
_cell_angle_alpha                 89.994376
_cell_angle_beta                  90.372959
_cell_angle_gamma                 90.03312
_cell_volume                      2514.41742148

loop_
_atom_site_label
_atom_site_type_symbol
_atom_type_description
_atom_site_fract_x
_atom_site_fract_y
_atom_site_fract_z
_atom_type_partial_charge
C1    C     C_R   0.260339 0.499976 0.499983 0.850255
C2    C     C_R   0.558463 0.606457 0.701914 -0.235375
C3    C     C_R   0.434146 0.604058 0.239193 -0.156946
C4    C     C_R   0.561386 0.605938 0.761054 -0.160653
C5    C     C_R   0.484489 0.496330 0.209122 0.288855
C6    C     C_R   0.514111 0.496390 0.791075 0.306382
C7    C     C_R   0.063791 0.378092 0.500758 -0.192677
C8    C     C_R   0.936207 0.621902 0.499153 -0.192065
C9    C     C_R   0.936096 0.378115 0.500767 -0.191933
C10   C     C_R   0.063911 0.621880 0.499187 -0.192032
C11   C     C_R   0.872410 0.500021 0.499976 -0.008501
C12   C     C_R   0.739662 0.500020 0.500003 0.850360
C13   C     C_R   0.127591 0.499970 0.499976 -0.008641
C14   C     C_R   0.512677 0.071371 0.549734 0.164398
C15   C     C_R   0.500010 0.929050 0.449937 0.163169
C16   C     C_R   0.487351 0.071393 0.450247 0.163864
C17   C     C_R   0.499881 0.929043 0.550043 0.164171
C18   C     C_R   0.499009 0.499914 0.389719 0.886415
C19   C     C_R   0.500935 0.499900 0.610312 0.886726
C20   C     C_R   0.619183 0.503487 0.881919 0.486311
C21   C     C_R   0.379311 0.493763 0.118297 0.506766
C22   C     C_R   0.397004 0.507566 0.877737 0.543673
C23   C     C_R   0.537968 0.387366 0.238385 0.274434
C24   C     C_R   0.600103 0.517664 0.122433 0.560406
C25   C     C_R   0.388629 0.504910 0.937627 -0.062369
C26   C     C_R   0.607954 0.517795 0.062530 -0.056668
C27   C     C_R   0.501111 0.508324 0.969891 -0.065282
C28   C     C_R   0.496440 0.508467 0.030182 -0.101341
C29   C     C_R   0.618256 0.511332 0.941947 -0.053680
C30   C     C_R   0.380259 0.499099 0.058254 -0.051588
C31   C     C_R   0.272501 0.498331 0.966273 0.043650
C32   C     C_R   0.723604 0.526236 0.034541 0.127568
C33   C     C_R   0.269066 0.494308 0.025926 0.135284
C34   C     C_R   0.464505 0.385456 0.761641 0.275388
C35   C     C_R   0.729482 0.521441 0.974927 0.045288
C36   C     C_3   0.496243 0.181453 0.188425 -0.781991
C37   C     C_3   0.513625 0.182449 0.812438 -0.790547
C38   C     C_3   0.670679 0.151523 0.614389 -0.748122
C39   C     C_3   0.643348 0.851641 0.379027 -0.738190
C40   C     C_3   0.329645 0.152283 0.385585 -0.743340
C41   C     C_3   0.355736 0.851707 0.620630 -0.742763
C42   C     C_R   0.544551 0.390798 0.297782 -0.291108
C43   C     C_R   0.457782 0.389149 0.702246 -0.294893
C44   C     C_R   0.494559 0.499087 0.327763 -0.057279
C45   C     C_R   0.505042 0.499037 0.672331 -0.057146
C46   C     C_R   0.438034 0.604863 0.298329 -0.231010
H1    H     H_    0.589325 0.309410 0.320401 0.155190
H2    H     H_    0.112222 0.717024 0.498566 0.154764
H3    H     H_    0.152679 0.408253 0.910113 0.239851
H4    H     H_    0.141275 0.580541 0.913433 0.242686
H5    H     H_    0.883374 0.624472 0.054256 0.195476
H6    H     H_    0.892588 0.454299 0.057465 0.199048
H7    H     H_    0.105163 0.399915 0.039653 0.195364
H8    H     H_    0.098115 0.569976 0.041314 0.192693
H9    H     H_    0.870190 0.440373 0.928056 0.244513
H10   H     H_    0.855506 0.611989 0.922632 0.235727
H11   H     H_    0.661606 0.230621 0.228928 0.232258
H12   H     H_    0.415121 0.306572 0.679584 0.155769
H13   H     H_    0.542690 0.101477 0.163520 0.244027
H14   H     H_    0.426499 0.230674 0.160281 0.263811
H15   H     H_    0.448240 0.135174 0.225431 0.234423
H16   H     H_    0.347734 0.222225 0.770500 0.228517
H17   H     H_    0.469853 0.100306 0.837124 0.242285
H18   H     H_    0.579855 0.235642 0.841069 0.262978
H19   H     H_    0.565223 0.138470 0.775971 0.234988
H20   H     H_    0.487556 0.109185 0.636041 0.204722
H21   H     H_    0.712217 0.051440 0.622298 0.203604
H22   H     H_    0.683566 0.213895 0.653210 0.241115
H23   H     H_    0.396153 0.687424 0.320978 0.165358
H24   H     H_    0.720183 0.200415 0.578548 0.258848
H25   H     H_    0.455664 0.892225 0.365037 0.203057
H26   H     H_    0.682680 0.952379 0.370440 0.203023
H27   H     H_    0.648132 0.791391 0.339287 0.243766
H28   H     H_    0.700544 0.801206 0.412346 0.258113
H29   H     H_    0.512613 0.109353 0.363898 0.205540
H30   H     H_    0.287738 0.052498 0.377321 0.203622
H31   H     H_    0.317108 0.215447 0.346972 0.242361
H32   H     H_    0.280199 0.200604 0.421568 0.258684
H33   H     H_    0.543250 0.892485 0.635026 0.202289
H34   H     H_    0.598623 0.690198 0.679407 0.166409
H35   H     H_    0.316410 0.952476 0.629056 0.202650
H36   H     H_    0.350443 0.791605 0.660400 0.242491
H37   H     H_    0.298862 0.801146 0.587216 0.259116
H38   H     H_    0.393089 0.687709 0.216535 0.154799
H39   H     H_    0.599623 0.691094 0.783747 0.154085
H40   H     H_    0.111989 0.282943 0.501413 0.152770
H41   H     H_    0.887990 0.717048 0.498468 0.154434
H42   H     H_    0.887817 0.282966 0.501398 0.152419
N1    N     N_R   0.510149 0.501951 0.851950 -0.338138
N2    N     N_2   0.418087 0.272442 0.791737 -0.293243
N3    N     N_2   0.539186 0.139458 0.601470 -0.260312
N4    N     N_2   0.515072 0.861882 0.397211 -0.263485
N5    N     N_2   0.461072 0.139551 0.398499 -0.260867
N6    N     N_2   0.484224 0.861923 0.602742 -0.263158
N7    N     N_R   0.487921 0.502165 0.148319 -0.356164
N8    N     N_R   0.500000 0.857200 0.500000 -0.123459
N9    N     N_R   0.500000 0.142800 0.500000 -0.123623
N10   N     N_3   0.155131 0.492387 0.936573 -0.468212
N11   N     N_3   0.837236 0.537250 0.066733 -0.363409
N12   N     N_3   0.150517 0.486651 0.053576 -0.370687
N13   N     N_3   0.850946 0.529188 0.949776 -0.471636
N14   N     N_2   0.588352 0.276752 0.208095 -0.293017
O1    O     O_R   0.316770 0.614620 0.500000 -0.627029
O2    O     O_2   0.271651 0.478664 0.147031 -0.531461
O3    O     O_2   0.294002 0.516394 0.844707 -0.587412
O4    O     O_2   0.703023 0.532931 0.155211 -0.528244
O5    O     O_R   0.683230 0.385380 0.500000 -0.627344
O6    O     O_R   0.683230 0.614620 0.500000 -0.626947
O7    O     O_R   0.316770 0.385380 0.500000 -0.627765
O8    O     O_R   0.499970 0.614690 0.416160 -0.586157
O9    O     O_R   0.500030 0.385310 0.583840 -0.585438
O10   O     O_R   0.500030 0.614690 0.583840 -0.586011
O11   O     O_R   0.499970 0.385310 0.416160 -0.585242
O12   O     O_2   0.727052 0.495614 0.852972 -0.590641
Zn1   Zn    Zn3+2 0.500000 0.653120 0.500000 0.966750
Zn2   Zn    Zn3+2 0.500000 0.346880 0.500000 0.967487

loop_
_geom_bond_atom_site_label_1
_geom_bond_atom_site_label_2
_ccdc_geom_bond_type
C25   C31   A    
C38   H24   S    
C26   C32   A    
C27   C29   A    
O1    Zn1   S    
C40   N5    S    
C36   H13   S    
C19   O10   A    
H11   N14   S    
C16   N5    S    
C23   C42   A    
C37   N2    S    
O6    Zn1   S    
C24   C26   A    
H10   N13   S    
C9    H42   S    
C16   N9    A    
C39   H28   S    
C7    H40   S    
C15   C16   A    
C41   H37   S    
C36   N14   S    
C31   N10   S    
C46   H23   S    
C43   H12   S    
C37   H17   S    
H3    N10   S    
C21   O2    S    
H25   N4    S    
C22   C25   A    
C37   H19   S    
C39   H26   S    
C31   C33   A    
N8    Zn1   S    
O9    Zn2   S    
C1    O1    A    
O7    Zn2   S    
O11   Zn2   S    
C1    O7    A    
C15   N4    S    
H7    N12   S    
C14   C17   A    
H8    N12   S    
C42   C44   A    
C18   O11   A    
C5    N7    S    
C44   C46   A    
C20   C29   A    
C2    C45   A    
H5    N11   S    
O5    Zn2   S    
H4    N10   S    
C32   C35   A    
H33   N6    S    
C4    C6    A    
C24   N7    A    
C15   N8    A    
C12   O6    A    
C4    H39   S    
C21   N7    A    
C35   N13   S    
C38   N3    S    
C6    C34   A    
C2    C4    A    
C34   N2    S    
C18   C44   S    
C43   C45   A    
C41   N6    S    
C5    C23   A    
C41   H35   S    
C17   N8    A    
N9    Zn2   S    
C9    C11   A    
C38   H22   S    
C10   H2    S    
C40   H32   S    
C24   O4    S    
C36   H15   S    
C22   O3    S    
C3    C5    A    
C39   N4    S    
C3    H38   S    
C37   H18   S    
H29   N5    S    
C14   N9    A    
C20   N1    A    
C7    C9    A    
C29   C35   A    
C3    C46   A    
C30   C33   A    
C34   C43   A    
C18   O8    A    
C36   H14   S    
C10   C13   A    
C12   O5    A    
C11   C12   S    
C19   C45   S    
H20   N3    S    
C19   O9    A    
C25   C27   A    
C6    N1    S    
C21   C30   A    
H9    N13   S    
H6    N11   S    
C26   C28   A    
C32   N11   S    
C33   N12   S    
C8    H41   S    
C28   C30   A    
C20   O12   S    
C8    C11   A    
C41   H36   S    
H16   N2    S    
C22   N1    A    
C42   H1    S    
C39   H27   S    
C14   N3    S    
C2    H34   S    
C23   N14   S    
C40   H30   S    
C7    C13   A    
C1    C13   S    
C38   H21   S    
C8    C10   A    
C27   C28   A    
C40   H31   S    
C17   N6    S    
O8    Zn1   S    
O10   Zn1   S    
