data_mof_unit_50086.cif
_audit_creation_date              2013-03-05T16:11:20-0500
_audit_creation_method            fapswitch 2.2
_symmetry_space_group_name_H-M    P1
_symmetry_Int_Tables_number       1
_space_group_crystal_system       triclinic
_cell_length_a                    10.814879
_cell_length_b                    10.037917
_cell_length_c                    11.14357
_cell_angle_alpha                 91.168378
_cell_angle_beta                  93.693832
_cell_angle_gamma                 89.62777
_cell_volume                      1206.95280242

loop_
_atom_site_label
_atom_site_type_symbol
_atom_site_description
_atom_site_fract_x
_atom_site_fract_y
_atom_site_fract_z
_atom_type_partial_charge
O1    O     O_R   0.316750 0.614620 0.499990 -0.554568
O2    O     O_R   0.316750 0.385380 0.499990 -0.568216
C1    C     C_R   0.260044 0.500636 0.506844 0.952446
O3    O     O_R   0.499970 0.614670 0.314790 -0.546370
O4    O     O_R   0.499970 0.385330 0.314790 -0.586459
C2    C     C_R   0.502045 0.499455 0.257669 0.848557
Zn1   Zn    Zn3+2 0.499980 0.653120 0.500000 1.128684
Zn2   Zn    Zn3+2 0.499980 0.346880 0.500000 1.129888
O5    O     O_R   0.683220 0.614710 0.500010 -0.602637
O6    O     O_R   0.683220 0.385290 0.500010 -0.604969
O7    O     O_R   0.500010 0.614660 0.685200 -0.579523
O8    O     O_R   0.500010 0.385340 0.685200 -0.556884
C3    C     C_R   0.738314 0.499536 0.492440 0.921146
C4    C     C_R   0.508411 0.499867 0.741892 1.026718
C5    C     C_3   0.421222 0.625440 0.062075 0.219280
C6    C     C_3   0.454700 0.354900 0.062774 0.176554
C7    C     C_3   0.423667 0.613836 0.920187 0.046474
C8    C     C_3   0.457552 0.363159 0.922381 0.058528
H1    H     H_    0.471472 0.700738 0.887738 0.225926
H2    H     H_    0.530396 0.296841 0.896441 0.230160
C9    C     C_3   0.650497 0.518274 0.085684 0.077888
C10   C     C_3   0.507692 0.499780 0.120482 -0.173598
C11   C     C_3   0.509322 0.498180 0.878239 -0.469335
C12   C     C_3   0.651103 0.522184 0.938950 0.328027
C13   C     C_R   0.060180 0.378626 0.515439 0.300332
C14   C     C_R   0.057582 0.624302 0.512308 0.301384
C15   C     C_R   0.933479 0.380034 0.495982 -0.163307
C16   C     C_R   0.932134 0.618150 0.480300 -0.182263
H3    H     H_    0.883833 0.287431 0.495887 0.244857
H4    H     H_    0.880784 0.708666 0.462058 0.237643
C17   C     C_R   0.869808 0.498740 0.484012 -0.179229
C18   C     C_R   0.125874 0.501759 0.517301 -0.238926
C19   C     C_R   0.594007 0.071747 0.557419 0.230903
C20   C     C_R   0.590749 0.930099 0.562051 0.191449
N1    N     N_R   0.499970 0.857200 0.499970 -0.215797
N2    N     N_R   0.499970 0.142800 0.499970 -0.212415
C21   C     C_R   0.406250 0.929305 0.440918 0.301818
C22   C     C_R   0.413086 0.070394 0.432453 0.291378
N3    N     N_R   0.462596 0.766214 0.092671 0.245521
O9    O     O_R   0.426041 0.861190 0.020270 -0.222586
O10   O     O_R   0.492854 0.807976 0.201289 -0.310879
N4    N     N_R   0.526413 0.229954 0.095803 0.231934
O11   O     O_R   0.514544 0.125490 0.024549 -0.224631
O12   O     O_R   0.573004 0.205335 0.203407 -0.338230
N5    N     N_R   0.296843 0.866123 0.387388 0.261021
O13   O     O_R   0.304911 0.757081 0.325706 -0.369033
O14   O     O_R   0.192710 0.931501 0.376790 -0.252236
N6    N     N_R   0.346006 0.129255 0.332580 0.241931
O15   O     O_R   0.249303 0.201940 0.350322 -0.359307
O16   O     O_R   0.351688 0.069458 0.228430 -0.281864
C23   C     C_3   0.284985 0.622092 0.102799 -0.614163
H5    H     H_    0.247101 0.724393 0.113914 0.310831
H6    H     H_    0.215554 0.577800 0.037475 0.235212
H7    H     H_    0.277805 0.570985 0.188971 0.198911
C24   C     C_3   0.322034 0.323843 0.100597 -0.580954
H8    H     H_    0.295580 0.220587 0.073455 0.315592
H9    H     H_    0.314832 0.337643 0.197515 0.238742
H10   H     H_    0.246210 0.381389 0.060158 0.219524
N7    N     N_R   0.300707 0.629762 0.855665 0.243379
O17   O     O_R   0.238447 0.739114 0.873537 -0.241464
O18   O     O_R   0.266364 0.556897 0.762266 -0.331027
N8    N     N_R   0.349983 0.301568 0.853826 0.265535
O19   O     O_R   0.364955 0.184105 0.804628 -0.240841
O20   O     O_R   0.237307 0.345403 0.860514 -0.281499
C25   C     C_3   0.717895 0.640207 0.152219 -0.624911
H11   H     H_    0.677675 0.738613 0.142272 0.307273
H12   H     H_    0.727833 0.627064 0.251147 0.193579
H13   H     H_    0.813144 0.650637 0.121409 0.251298
C26   C     C_3   0.738206 0.405419 0.140548 -0.646788
H14   H     H_    0.837585 0.427664 0.130083 0.244397
H15   H     H_    0.729045 0.395679 0.238607 0.215156
H16   H     H_    0.728727 0.305942 0.100420 0.305615
N9    N     N_R   0.694229 0.651981 0.895071 0.211073
O21   O     O_R   0.668873 0.766213 0.944592 -0.320030
O22   O     O_R   0.746354 0.653728 0.793096 -0.262716
N10   N     N_R   0.744979 0.422695 0.898130 0.213749
O23   O     O_R   0.859882 0.460417 0.894989 -0.269467
O24   O     O_R   0.728555 0.294820 0.898969 -0.322674
N11   N     N_R   0.116362 0.252073 0.543569 0.268920
O25   O     O_R   0.192002 0.241930 0.637842 -0.225722
O26   O     O_R   0.067690 0.143288 0.496401 -0.230250
N12   N     N_R   0.106595 0.753436 0.550609 0.267911
O27   O     O_R   0.198745 0.763757 0.630675 -0.244411
O28   O     O_R   0.038055 0.859300 0.533289 -0.222897
N13   N     N_R   0.702517 0.138069 0.607050 0.246411
O29   O     O_R   0.692643 0.236302 0.682346 -0.270058
O30   O     O_R   0.811880 0.088923 0.590731 -0.275024
N14   N     N_R   0.672608 0.868658 0.649047 0.277112
O31   O     O_R   0.778108 0.823995 0.615845 -0.272199
O32   O     O_R   0.667494 0.912018 0.759239 -0.210309

loop_
_geom_bond_atom_site_label_1
_geom_bond_atom_site_label_2
_geom_bond_distance
_ccdc_geom_bond_type
C24   H8    1.107935 S    
C14   C18   1.430862 A    
C15   H3    1.076429 S    
N9    O21   1.297750 A    
N3    O10   1.295342 A    
N5    O13   1.286051 A    
Zn1   O7    2.107290 S    
C7    C11   1.563370 S    
N1    C21   1.381361 A    
C21   C22   1.424012 A    
N10   O24   1.297277 A    
O4    C2    1.322856 A    
O7    C4    1.325162 A    
C12   N9    1.489096 S    
C2    C10   1.533969 S    
C19   N2    1.370448 A    
O5    C3    1.300870 A    
Zn1   O5    2.016410 S    
C20   N1    1.370800 A    
Zn2   N2    2.048532 S    
C26   H15   1.109886 S    
C19   N13   1.427493 S    
N8    O20   1.299039 A    
C5    C10   1.681933 S    
C25   H12   1.111194 S    
C11   C12   1.652695 S    
C5    C23   1.570143 S    
C22   N6    1.425216 S    
C13   C18   1.428764 A    
N6    O16   1.300535 A    
N7    O17   1.302564 A    
C14   N12   1.449331 S    
C13   N11   1.436257 S    
C9    C10   1.629075 S    
N9    O22   1.301113 A    
C26   H14   1.113071 S    
N4    O12   1.298237 A    
O3    Zn1   2.091922 S    
N5    O14   1.299744 A    
N7    O18   1.295709 A    
N13   O30   1.300704 A    
C15   C17   1.376867 A    
C8    C11   1.569994 S    
N10   O23   1.304253 A    
O3    C2    1.309461 A    
N3    O9    1.304419 A    
N11   O26   1.301609 A    
C12   N10   1.504257 S    
N13   O29   1.290021 A    
C23   H5    1.110671 S    
C9    C26   1.580005 S    
C23   H6    1.100960 S    
C4    C11   1.519228 S    
C26   H16   1.088473 S    
N8    O19   1.303695 A    
Zn2   O8    2.091815 S    
C25   H13   1.112832 S    
C19   C20   1.424589 A    
C20   N14   1.417974 S    
C5    N3    1.510692 S    
C7    N7    1.479729 S    
Zn2   O6    2.021326 S    
N6    O15   1.294609 A    
N14   O32   1.298827 A    
C25   H11   1.081617 S    
N12   O28   1.302159 A    
C24   H9    1.093751 S    
C9    C12   1.636849 S    
N4    O11   1.304290 A    
C21   N5    1.435774 S    
C6    N4    1.509766 S    
C5    C7    1.584966 S    
C6    C10   1.667972 S    
C9    C25   1.576077 S    
O1    Zn1   2.021398 S    
Zn1   N1    2.048544 S    
C3    C17   1.431168 S    
C16   C17   1.381617 A    
O2    Zn2   2.016470 S    
O8    C4    1.301279 A    
O6    C3    1.302531 A    
O4    Zn2   2.107393 S    
C13   C15   1.373467 A    
C14   C16   1.381854 A    
C23   H7    1.105240 S    
N2    C22   1.368477 A    
O2    C1    1.309057 A    
C6    C24   1.556430 S    
C16   H4    1.077826 S    
C7    H1    1.096260 S    
C8    H2    1.077971 S    
C1    C18   1.463118 S    
N11   O25   1.294499 A    
N14   O31   1.296405 A    
C6    C8    1.570654 S    
N12   O27   1.297304 A    
C24   H10   1.079828 S    
C8    N8    1.481482 S    
O1    C1    1.307577 A    
