data_mof_unit_23105.cif
_audit_creation_date              2012-12-10T19:45:01-0500
_audit_creation_method            fapswitch 2.2
_symmetry_space_group_name_H-M    P1
_symmetry_Int_Tables_number       1
_space_group_crystal_system       triclinic
_cell_length_a                    15.07905
_cell_length_b                    10.826708
_cell_length_c                    13.684005
_cell_angle_alpha                 90.263478
_cell_angle_beta                  89.844726
_cell_angle_gamma                 89.853371
_cell_volume                      2233.96315759

loop_
_atom_site_label
_atom_site_type_symbol
_atom_type_description
_atom_site_fract_x
_atom_site_fract_y
_atom_site_fract_z
_atom_type_partial_charge
C1    C     C_R   0.497524 0.262158 0.499632 0.798174
C2    C     C_R   0.581965 0.881089 0.666332 0.115960
C3    C     C_R   0.452220 0.100351 0.239053 -0.124743
C4    C     C_R   0.547780 0.899649 0.760947 -0.124742
C5    C     C_R   0.411671 0.156173 0.158733 -0.082939
C6    C     C_R   0.588329 0.843827 0.841266 -0.082939
C7    C     C_R   0.336711 0.230533 0.172168 -0.098855
C8    C     C_R   0.663289 0.769467 0.827832 -0.098854
C9    C     C_R   0.467448 0.932666 0.420721 -0.218085
C10   C     C_R   0.532552 0.067334 0.579279 -0.218085
C11   C     C_R   0.504318 0.871710 0.500979 -0.090434
C12   C     C_R   0.502476 0.737842 0.500368 0.798174
C13   C     C_R   0.495682 0.128290 0.499021 -0.090434
C14   C     C_R   0.538157 0.939463 0.581129 -0.003097
C15   C     C_R   0.461843 0.060537 0.418871 -0.003097
C16   C     C_R   0.328457 0.500157 0.500104 0.813661
C17   C     C_R   0.671543 0.499843 0.499896 0.813662
C18   C     C_R   0.548719 0.413498 0.792524 0.047591
C19   C     C_R   0.451281 0.586502 0.207476 0.047592
C20   C     C_R   0.451400 0.586125 0.793726 0.049975
C21   C     C_R   0.548600 0.413875 0.206274 0.049975
C22   C     C_R   0.450714 0.588451 0.896667 -0.052813
C23   C     C_R   0.045717 0.477466 0.677158 -0.201179
C24   C     C_R   0.549286 0.411549 0.103333 -0.052813
C25   C     C_R   0.500158 0.499654 0.948143 0.026664
C26   C     C_R   0.499842 0.500345 0.051857 0.026664
C27   C     C_R   0.549761 0.410208 0.895890 -0.072316
C28   C     C_R   0.450239 0.589791 0.104110 -0.072316
C29   C     C_R   0.402009 0.677728 0.948794 -0.255101
C30   C     C_R   0.597991 0.322272 0.051206 -0.255101
C31   C     C_R   0.401600 0.679260 0.051477 0.362872
C32   C     C_R   0.598400 0.320740 0.948523 0.362872
C33   C     C_R   0.814932 0.510905 0.411420 -0.239861
C34   C     C_R   0.954283 0.522534 0.322842 -0.201179
C35   C     C_R   0.185068 0.489095 0.588580 -0.239861
C36   C     C_R   0.768362 0.499563 0.499796 -0.079456
C37   C     C_R   0.231638 0.500437 0.500204 -0.079456
C38   C     C_R   0.814481 0.487882 0.588181 -0.246585
C39   C     C_R   0.185519 0.512118 0.411819 -0.246585
C40   C     C_R   0.906840 0.488255 0.588916 0.104515
C41   C     C_R   0.093160 0.511745 0.411084 0.104515
C42   C     C_R   0.953519 0.499863 0.499949 0.065099
C43   C     C_R   0.046481 0.500136 0.500051 0.065099
C44   C     C_R   0.907333 0.511127 0.410875 0.105458
C45   C     C_R   0.301514 0.248005 0.265818 -0.108345
C46   C     C_R   0.092667 0.488873 0.589125 0.105458
C47   C     C_R   0.953256 0.477153 0.677053 -0.198434
C48   C     C_R   0.046744 0.522847 0.322947 -0.198434
C49   C     C_R   0.698486 0.751995 0.734182 -0.108345
C50   C     C_R   0.341670 0.192092 0.346368 -0.083674
C51   C     C_R   0.658330 0.807908 0.653632 -0.083674
C52   C     C_R   0.418035 0.118911 0.333668 0.115960
Cl1   Cl    Cl    0.339868 0.796050 0.110893 -0.675772
Cl2   Cl    Cl    0.660132 0.203950 0.889107 -0.675772
Cu1   Cu    Cu3+1 0.500010 0.499980 0.597420 0.947397
Cu2   Cu    Cu3+1 0.499990 0.500020 0.402580 0.947397
H1    H     H_    0.779406 0.519935 0.343020 0.159038
H2    H     H_    0.635610 0.252995 0.090362 0.173166
H3    H     H_    0.778621 0.478072 0.656486 0.162457
H4    H     H_    0.221379 0.521928 0.343513 0.162457
H5    H     H_    0.918052 0.468279 0.745805 0.155548
H6    H     H_    0.081947 0.531721 0.254195 0.155548
H7    H     H_    0.080498 0.468780 0.745991 0.150559
H8    H     H_    0.919502 0.531221 0.254009 0.150559
H9    H     H_    0.305764 0.274313 0.109977 0.132693
H10   H     H_    0.694236 0.725687 0.890023 0.132693
H11   H     H_    0.243002 0.304692 0.275936 0.127415
H12   H     H_    0.220594 0.480065 0.656980 0.159039
H13   H     H_    0.756998 0.695307 0.724064 0.127415
H14   H     H_    0.313751 0.206406 0.418569 0.105813
H15   H     H_    0.686249 0.793594 0.581431 0.105813
H16   H     H_    0.510764 0.043854 0.227713 0.135160
H17   H     H_    0.489236 0.956146 0.772287 0.135160
H18   H     H_    0.438685 0.142373 0.086122 0.151291
H19   H     H_    0.561315 0.857627 0.913878 0.151291
H20   H     H_    0.440011 0.880252 0.360211 0.177409
H21   H     H_    0.559989 0.119748 0.639789 0.177409
H22   H     H_    0.586591 0.347338 0.750139 0.177131
H23   H     H_    0.413409 0.652662 0.249860 0.177131
H24   H     H_    0.413438 0.653551 0.753168 0.129048
H25   H     H_    0.586562 0.346449 0.246832 0.129048
H26   H     H_    0.364390 0.747005 0.909638 0.173165
N1    N     N_R   0.499960 0.499900 0.743810 -0.195644
N2    N     N_R   0.500040 0.500100 0.256190 -0.195644
O1    O     O_R   0.500000 0.319630 0.582270 -0.590663
O2    O     O_R   0.500000 0.680370 0.417730 -0.590663
O3    O     O_R   0.499990 0.319660 0.417730 -0.581099
O4    O     O_R   0.500010 0.680340 0.582270 -0.581099
O5    O     O_R   0.370260 0.499960 0.582280 -0.587828
O6    O     O_R   0.629740 0.500040 0.417720 -0.587828
O7    O     O_R   0.370250 0.499990 0.417740 -0.587174
O8    O     O_R   0.629750 0.500010 0.582260 -0.587173

loop_
_geom_bond_atom_site_label_1
_geom_bond_atom_site_label_2
_ccdc_geom_bond_type
C1    O3    A    
C40   C47   A    
C38   C40   A    
Cu1   Cu2   S    
C8    H10   S    
C22   C29   A    
C6    H19   S    
C39   C41   A    
C42   C44   A    
C7    C45   A    
C35   C37   A    
C24   C26   A    
C11   C14   A    
C5    H18   S    
C33   C36   A    
Cu1   O4    S    
C48   H6    S    
Cu2   O7    S    
C49   C51   A    
C22   C25   A    
C45   H11   S    
C50   C52   A    
C9    H20   S    
C16   C37   S    
C23   H7    S    
C16   O5    A    
C23   C46   A    
C49   H13   S    
C41   C43   A    
C17   O8    A    
C51   H15   S    
C32   Cl2   S    
C10   H21   S    
Cu2   N2    S    
C1    O1    A    
C37   C39   A    
C23   C47   A    
C20   H24   S    
C34   C44   A    
Cu2   O6    S    
C4    C6    A    
C10   C14   A    
C5    C7    A    
C12   O4    A    
Cu2   O3    S    
C6    C8    A    
C25   C26   A    
Cu1   O1    S    
C2    C4    A    
Cu1   O8    S    
C7    H9    S    
Cu2   O2    S    
C21   N2    A    
C18   H22   S    
C34   H8    S    
C18   N1    A    
C15   C52   S    
C31   Cl1   S    
C19   H23   S    
C19   C28   A    
C9    C11   A    
C4    H17   S    
C17   C36   S    
C21   H25   S    
C13   C15   A    
C21   C24   A    
C1    C13   S    
C42   C43   A    
Cu1   N1    S    
C19   N2    A    
C33   H1    S    
C27   C32   A    
C33   C44   A    
C28   C31   A    
C18   C27   A    
C20   C22   A    
C3    C5    A    
C10   C13   A    
C47   H5    S    
C3    C52   A    
C25   C27   A    
C26   C28   A    
C12   O2    A    
C36   C38   A    
C3    H16   S    
C9    C15   A    
C29   H26   S    
C29   C31   A    
C30   C32   A    
C35   H12   S    
C39   H4    S    
C30   H2    S    
C40   C42   A    
C41   C48   A    
C50   H14   S    
C2    C14   S    
C43   C46   A    
C24   C30   A    
C2    C51   A    
C38   H3    S    
C17   O6    A    
C34   C48   A    
C16   O7    A    
Cu1   O5    S    
C20   N1    A    
C45   C50   A    
C35   C46   A    
C8    C49   A    
C11   C12   S    
