data_mof_unit_17657.cif
_audit_creation_date              2012-12-11T16:08:33-0500
_audit_creation_method            fapswitch 2.2
_symmetry_space_group_name_H-M    P1
_symmetry_Int_Tables_number       1
_space_group_crystal_system       triclinic
_cell_length_a                    12.97692
_cell_length_b                    13.278553
_cell_length_c                    27.734666
_cell_angle_alpha                 95.165668
_cell_angle_beta                  89.72508
_cell_angle_gamma                 119.268526
_cell_volume                      4147.81752536

loop_
_atom_site_label
_atom_site_type_symbol
_atom_type_description
_atom_site_fract_x
_atom_site_fract_y
_atom_site_fract_z
_atom_type_partial_charge
C1    C     C_R   0.628392 0.895591 0.427339 0.567304
C2    C     C_R   0.572654 0.303310 0.225186 0.288879
C3    C     C_R   0.563462 0.287564 0.274773 -0.090943
C4    C     C_R   0.664790 0.320651 0.304073 -0.005206
C5    C     C_R   0.683811 0.348319 0.204639 0.048478
C6    C     C_1   0.694866 0.370300 0.154372 -0.012982
C7    C     C_1   0.652184 0.297931 0.354225 -0.045005
C8    C     C_1   0.703695 0.396439 0.113421 -0.003320
C9    C     C_R   0.211179 0.759536 0.346824 -0.125687
C10   C     C_R   0.196429 0.753664 0.297224 0.008219
C11   C     C_R   0.179276 0.749907 0.197001 0.013039
C12   C     C_R   0.601225 0.221942 0.440539 0.545585
C13   C     C_R   0.205133 0.671386 0.217056 -0.127639
C14   C     C_R   0.211558 0.671911 0.267021 -0.128704
C15   C     C_R   0.163957 0.743796 0.147207 -0.127208
C16   C     C_R   0.122258 0.811178 0.127428 -0.000894
C17   C     C_R   0.183082 0.928257 0.358117 -0.129079
C18   C     C_R   0.159465 0.918189 0.308179 0.015977
C19   C     C_R   0.171967 0.834073 0.277572 0.062087
C20   C     C_R   0.127905 0.992848 0.287971 -0.129643
C21   C     C_R   0.110326 0.984885 0.237811 -0.134168
C22   C     C_R   0.129283 0.906005 0.207235 0.019750
C23   C     C_R   0.269611 0.875782 0.425508 0.548516
C24   C     C_R   0.160976 0.830639 0.227245 0.064823
C25   C     C_R   0.110635 0.896288 0.157162 -0.124592
C26   C     C_R   0.213482 0.851504 0.377157 -0.002605
C27   C     C_R   0.754709 0.939245 0.356628 0.363039
C28   C     C_R   0.757231 0.931695 0.306408 0.030748
C29   C     C_R   0.755800 0.921086 0.205527 0.015028
C30   C     C_R   0.845857 0.016996 0.233245 -0.155806
C31   C     C_R   0.848133 0.021086 0.283419 -0.102689
C32   C     C_R   0.759992 0.911666 0.155597 -0.123961
C33   C     C_R   0.682299 0.807281 0.128102 -0.004919
C34   C     C_R   0.627138 0.898610 0.564870 0.544981
C35   C     C_R   0.564230 0.761634 0.351764 -0.193092
C36   C     C_R   0.569980 0.748535 0.301506 -0.000127
C37   C     C_R   0.664036 0.836549 0.278687 0.008941
C38   C     C_R   0.480284 0.652472 0.273458 -0.121730
C39   C     C_R   0.484036 0.643419 0.222977 -0.137064
C40   C     C_R   0.576388 0.731294 0.200014 0.021209
C41   C     C_R   0.664898 0.829879 0.228064 0.069977
C42   C     C_R   0.586340 0.719713 0.149840 -0.138231
C43   C     C_R   0.653049 0.860281 0.379096 0.004793
C44   C     C_R   0.734388 0.302694 0.653370 -0.135294
C45   C     C_R   0.599742 0.222376 0.579562 0.540586
C46   C     C_R   0.747968 0.319448 0.703880 0.017388
C47   C     C_R   0.774160 0.355279 0.805163 0.017982
C48   C     C_R   0.872670 0.380382 0.777220 -0.132545
C49   C     C_R   0.859511 0.361960 0.726809 -0.128357
C50   C     C_R   0.787950 0.383591 0.855112 -0.133899
C51   C     C_R   0.690286 0.368235 0.882100 0.001207
C52   C     C_R   0.524430 0.237107 0.659332 -0.112563
C53   C     C_R   0.534920 0.248986 0.709548 0.012744
C54   C     C_R   0.647799 0.291731 0.731986 0.016761
C55   C     C_R   0.434270 0.217728 0.737391 0.252814
C56   C     C_R   0.271775 0.879657 0.563488 0.545788
C57   C     C_R   0.448435 0.231709 0.788094 -0.129235
C58   C     C_R   0.561068 0.280913 0.810513 -0.034588
C59   C     C_R   0.660803 0.308059 0.782548 0.047151
C60   C     C_R   0.576369 0.309834 0.860378 -0.130839
C61   C     C_R   0.622712 0.261566 0.631118 -0.016339
C62   C     C_1   0.223840 0.864512 0.610600 -0.008881
C63   C     C_R   0.063707 0.786093 0.719813 -0.124704
C64   C     C_R   0.047545 0.776226 0.769393 -0.120619
C65   C     C_R   0.258357 0.900433 0.786238 -0.112561
C66   C     C_R   0.274619 0.909569 0.736637 -0.067800
C67   C     C_1   0.633966 0.269890 0.394931 -0.000802
C68   C     C_R   0.177477 0.852112 0.703323 0.046294
C69   C     C_R   0.144858 0.832801 0.802658 0.023696
C70   C     C_1   0.126794 0.817512 0.853263 -0.065000
C71   C     C_1   0.197227 0.857223 0.652324 -0.043346
C72   C     C_1   0.102169 0.798298 0.894603 -0.018105
C73   C     C_1   0.647153 0.860378 0.608993 -0.012267
C74   C     C_R   0.787368 0.856371 0.718867 -0.109685
C75   C     C_R   0.799569 0.841744 0.767483 -0.117475
C76   C     C_R   0.586363 0.730885 0.771311 -0.104770
C77   C     C_R   0.574130 0.745592 0.722714 -0.107137
C78   C     C_R   0.775717 0.367572 0.283593 -0.117845
C79   C     C_R   0.674523 0.809071 0.696431 0.038740
C80   C     C_R   0.699087 0.779984 0.793990 0.037689
C81   C     C_1   0.712055 0.769549 0.844638 -0.061472
C82   C     C_1   0.660959 0.834328 0.648100 -0.057514
C83   C     C_1   0.725971 0.762328 0.886952 -0.012868
C84   C     C_R   0.064352 0.772816 0.079235 0.550199
C85   C     C_R   0.716992 0.441760 0.067376 0.546387
C86   C     C_R   0.719937 0.783124 0.080815 0.557258
C87   C     C_R   0.056864 0.766314 0.941304 0.539259
C88   C     C_R   0.710449 0.432578 0.929634 0.537816
C89   C     C_R   0.785208 0.381595 0.234040 -0.158026
C90   C     C_R   0.748494 0.754741 0.936828 0.562944
Cr1   Cr    Cr6+3 0.416430 0.829200 0.492370 1.022147
Cr2   Cr    Cr6+3 0.674630 0.087020 0.504170 1.070105
Cr3   Cr    Cr6+3 0.408920 0.083740 0.503490 1.032667
Cr4   Cr    Cr6+3 0.914010 0.832750 0.013970 1.018113
Cr5   Cr    Cr6+3 0.922310 0.578600 0.003000 1.015958
Cr6   Cr    Cr6+3 0.656280 0.574630 0.003870 1.022827
H1    H     H_    0.854539 0.392344 0.305781 0.128985
H2    H     H_    0.082740 0.040910 0.222877 0.100868
H3    H     H_    0.116254 0.056753 0.310881 0.123580
H4    H     H_    0.182977 0.998062 0.381582 0.134759
H5    H     H_    0.832525 0.981197 0.138867 0.131934
H6    H     H_    0.916294 0.087259 0.216080 0.096231
H7    H     H_    0.919731 0.095519 0.304079 0.169526
H8    H     H_    0.524964 0.639793 0.128506 0.120697
H9    H     H_    0.415023 0.568078 0.201857 0.092577
H10   H     H_    0.407754 0.584445 0.290662 0.094895
H11   H     H_    0.871620 0.418837 0.218690 0.119602
H12   H     H_    0.487025 0.699298 0.369091 0.132944
H13   H     H_    0.876199 0.427161 0.872085 0.133672
H14   H     H_    0.809546 0.319361 0.631489 0.120902
H15   H     H_    0.960107 0.416384 0.794305 0.109184
H16   H     H_    0.936728 0.382706 0.705756 0.107942
H17   H     H_    0.500865 0.295680 0.881624 0.128496
H18   H     H_    0.371924 0.205903 0.810041 0.107799
H19   H     H_    0.437512 0.202803 0.642017 0.188946
H20   H     H_    0.988094 0.740913 0.694419 0.115611
H21   H     H_    0.959359 0.723285 0.781765 0.119218
H22   H     H_    0.334157 0.944512 0.811580 0.113894
H23   H     H_    0.363151 0.960309 0.724182 0.130861
H24   H     H_    0.865649 0.906668 0.699160 0.109645
H25   H     H_    0.887192 0.880322 0.784641 0.109294
H26   H     H_    0.508030 0.683031 0.791387 0.109846
H27   H     H_    0.486389 0.709708 0.705963 0.110490
H28   H     H_    0.477089 0.248547 0.290193 0.117359
H29   H     H_    0.173773 0.678666 0.124261 0.130019
H30   H     H_    0.232355 0.698081 0.361090 0.136212
H31   H     H_    0.217787 0.608068 0.194154 0.104270
H32   H     H_    0.230186 0.609692 0.282061 0.101718
H33   H     H_    0.078479 0.948712 0.141920 0.125791
O1    O     O_R   0.296680 0.802170 0.437540 -0.523949
O2    O     O_R   0.662610 0.183990 0.557860 -0.500313
O3    O     O_R   0.500730 0.201280 0.562180 -0.522812
O4    O     O_R   0.312500 0.978850 0.548170 -0.493703
O5    O     O_3   0.499990 0.999990 0.500010 -0.256553
O6    O     O_R   0.820790 0.857990 0.068830 -0.520510
O7    O     O_R   0.016700 0.827330 0.062850 -0.502669
O8    O     O_R   0.041970 0.673520 0.060040 -0.516532
O9    O     O_R   0.817980 0.483660 0.048840 -0.494248
O10   O     O_R   0.637200 0.461990 0.052510 -0.506819
O11   O     O_R   0.664790 0.681920 0.057970 -0.495718
O12   O     O_R   0.525380 0.838530 0.443500 -0.521947
O13   O     O_R   0.815840 0.852920 0.961840 -0.503463
O14   O     O_R   0.012100 0.822630 0.963670 -0.510468
O15   O     O_R   0.037010 0.668460 0.953040 -0.510336
O16   O     O_R   0.813390 0.478970 0.949660 -0.507733
O17   O     O_R   0.632250 0.456930 0.945520 -0.522500
O18   O     O_R   0.660200 0.677230 0.958780 -0.490777
O19   O     O_3   0.830870 0.661990 0.006950 -0.265200
O20   O     O_R   0.702130 0.995190 0.446810 -0.425916
O21   O     O_R   0.661770 0.181390 0.458760 -0.483255
O22   O     O_R   0.499820 0.198480 0.455280 -0.509553
O23   O     O_R   0.311660 0.976250 0.449080 -0.496541
O24   O     O_R   0.297580 0.804960 0.544440 -0.507102
O25   O     O_R   0.526220 0.841130 0.542590 -0.497373
O26   O     O_R   0.703030 0.997990 0.553710 -0.506877
F1    F     F_    0.846559 0.029810 0.383077 -0.633226
O27   O     O_3   0.322576 0.162056 0.714254 -0.584917
C91   C     C_3   0.252662 0.212712 0.730020 0.009021
H34   H     H_    0.226051 0.239511 0.697610 0.151182
H35   H     H_    0.299382 0.292568 0.755914 0.114652
C92   C     C_3   0.140862 0.122046 0.752059 -0.258483
H36   H     H_    0.092756 0.045085 0.725110 0.179178
H37   H     H_    0.165373 0.093247 0.784371 0.167487
C93   C     C_3   0.059050 0.170622 0.766905 -0.487077
H38   H     H_    0.104938 0.247082 0.794218 0.147286
H39   H     H_    0.979429 0.103326 0.783066 0.156766
H40   H     H_    0.030351 0.196575 0.734800 0.150873
O28   O     O_3   0.472300 0.266487 0.195827 -0.564315
C94   C     C_3   0.421975 0.339307 0.205941 0.005633
H41   H     H_    0.432564 0.387572 0.173890 0.153555
H42   H     H_    0.463418 0.405019 0.238064 0.117444
C95   C     C_3   0.290447 0.263526 0.213822 -0.259923
H43   H     H_    0.249286 0.195947 0.182606 0.181660
H44   H     H_    0.280821 0.220356 0.247328 0.164698
C96   C     C_3   0.225764 0.333505 0.218976 -0.496623
H45   H     H_    0.262855 0.399475 0.250785 0.141602
H46   H     H_    0.130726 0.274479 0.224452 0.139797
H47   H     H_    0.233005 0.376862 0.185713 0.142770

loop_
_geom_bond_atom_site_label_1
_geom_bond_atom_site_label_2
_ccdc_geom_bond_type
C66   C68   A    
C23   O23   A    
O27   C91   S    
C16   C25   A    
C94   H41   S    
C35   C36   A    
Cr5   O16   S    
C25   H33   S    
C72   C87   S    
Cr6   O10   S    
C92   H36   S    
C93   H39   S    
C96   H46   S    
Cr1   O1    S    
C53   C54   A    
C52   C53   A    
C20   H3    S    
C46   C49   A    
C90   O18   A    
C5    C6    S    
Cr4   O14   S    
C36   C37   A    
Cr1   O24   S    
C29   C32   A    
Cr3   O4    S    
C52   C61   A    
C38   C39   A    
C65   C69   A    
C58   C60   A    
C15   C16   A    
C11   C24   A    
C16   C84   S    
C14   H32   S    
C17   C18   A    
C8    C85   S    
C23   C26   S    
C45   C61   S    
C83   C90   S    
C35   H12   S    
C91   C92   S    
C92   H37   S    
C11   C15   A    
C1    C43   S    
C84   O7    A    
C96   H45   S    
C44   C46   A    
C22   C25   A    
Cr4   O7    S    
C88   O16   A    
C1    O20   A    
C87   O15   A    
C47   C50   A    
Cr3   O3    S    
C35   C43   A    
C75   C80   A    
C85   O10   A    
C18   C20   A    
C95   C96   S    
C86   O11   A    
C34   O25   A    
Cr5   O15   S    
C21   C22   A    
C91   H35   S    
C94   H42   S    
C12   O22   A    
C93   H38   S    
C60   H17   S    
C4    C7    S    
C81   C83   T    
C95   H44   S    
C9    C26   A    
C56   O4    A    
C96   H47   S    
C54   C59   A    
C53   C55   A    
C78   C89   A    
Cr4   O19   S    
Cr6   O19   S    
C12   C67   S    
Cr5   O8    S    
C74   C75   A    
Cr4   O13   S    
C12   O21   A    
Cr2   O2    S    
C76   C77   A    
Cr1   O25   S    
Cr3   O5    S    
C10   C14   A    
C39   C40   A    
C18   C19   A    
C6    C8    T    
C50   C51   A    
C58   C59   A    
C34   O26   A    
C7    C67   T    
C50   H13   S    
C64   H21   S    
C63   C64   A    
C23   O1    A    
C3    H28   S    
C31   H7    S    
C38   H10   S    
C33   C86   S    
C4    C78   A    
C29   C30   A    
C77   H27   S    
C47   C48   A    
C10   C19   A    
C65   H22   S    
C46   C54   A    
C78   H1    S    
Cr4   O6    S    
C77   C79   A    
C64   C69   A    
C90   O13   A    
C30   H6    S    
C49   H16   S    
C63   H20   S    
C56   O24   A    
O28   C94   S    
C84   O8    A    
C45   O2    A    
C74   C79   A    
C55   C57   A    
Cr2   O21   S    
C91   H34   S    
C94   C95   S    
C56   C62   S    
Cr3   O22   S    
C2    C5    A    
C17   C26   A    
C3    C4    A    
C2    O28   S    
C73   C82   T    
C27   C28   A    
C92   C93   S    
C74   H24   S    
C95   H43   S    
C9    C10   A    
C52   H19   S    
C27   F1    S    
C39   H9    S    
Cr6   O18   S    
C33   C42   A    
C63   C68   A    
C40   C41   A    
Cr5   O9    S    
C29   C41   A    
C75   H25   S    
C28   C31   A    
Cr2   O5    S    
Cr5   O19   S    
C76   C80   A    
C80   C81   S    
C42   H8    S    
C51   C88   S    
Cr6   O11   S    
C79   C82   S    
C57   H18   S    
C44   C61   A    
Cr6   O17   S    
C9    H30   S    
C66   H23   S    
C76   H26   S    
C32   C33   A    
C36   C38   A    
C19   C24   A    
C21   H2    S    
C11   C13   A    
C57   C58   A    
C30   C31   A    
Cr1   O5    S    
C28   C37   A    
C68   C71   S    
C48   C49   A    
C40   C42   A    
C62   C71   T    
C2    C3    A    
Cr2   O26   S    
C22   C24   A    
C93   H40   S    
C37   C41   A    
C69   C70   S    
C17   H4    S    
C1    O12   A    
C34   C73   S    
C47   C59   A    
C89   H11   S    
C13   H31   S    
C27   C43   A    
C86   O6    A    
C55   O27   S    
C48   H15   S    
C20   C21   A    
C45   O3    A    
C65   C66   A    
C15   H29   S    
Cr2   O20   S    
C88   O17   A    
C32   H5    S    
Cr3   O23   S    
C70   C72   T    
C51   C60   A    
C87   O14   A    
C13   C14   A    
C85   O9    A    
C5    C89   A    
Cr1   O12   S    
C44   H14   S    
