data_mof_unit_23823.cif
_audit_creation_date              2012-12-10T17:45:33-0500
_audit_creation_method            fapswitch 2.2
_symmetry_space_group_name_H-M    P1
_symmetry_Int_Tables_number       1
_space_group_crystal_system       triclinic
_cell_length_a                    11.521307
_cell_length_b                    10.640578
_cell_length_c                    9.957122
_cell_angle_alpha                 90.455793
_cell_angle_beta                  90.356052
_cell_angle_gamma                 94.230136
_cell_volume                      1217.28492526

loop_
_atom_site_label
_atom_site_type_symbol
_atom_type_description
_atom_site_fract_x
_atom_site_fract_y
_atom_site_fract_z
_atom_type_partial_charge
C1    C     C_R   0.513426 0.262161 0.499744 0.861549
C2    C     C_R   0.711269 0.084001 0.813760 0.232245
C3    C     C_R   0.712501 0.952917 0.810851 -0.198529
C4    C     C_R   0.657817 0.883101 0.706438 -0.218435
C5    C     C_R   0.595717 0.942248 0.604869 0.118466
C6    C     C_R   0.596155 0.074650 0.605181 0.059684
C7    C     C_R   0.540299 0.132380 0.497084 -0.116950
C8    C     C_R   0.507717 0.063756 0.381388 -0.238007
C9    C     C_R   0.501790 0.935775 0.383866 -0.230692
C10   C     C_R   0.536613 0.874292 0.498734 -0.108276
C11   C     C_R   0.323910 0.335974 0.126927 0.455633
C12   C     C_R   0.282359 0.502329 0.499808 0.941451
C13   C     C_R   0.234341 0.280935 0.042265 -0.422863
C14   C     C_R   0.245697 0.278422 0.905409 0.444023
C15   C     C_R   0.338953 0.344692 0.848606 -0.228910
C16   C     C_R   0.418924 0.422353 0.924066 0.029320
C17   C     C_R   0.415790 0.420695 0.069001 0.065774
C18   C     C_R   0.578431 0.573273 0.072706 -0.115660
C19   C     C_R   0.578351 0.573158 0.930216 -0.095891
C20   C     C_R   0.511759 0.740120 0.500413 0.846093
C21   C     C_R   0.717950 0.501311 0.500376 0.867289
C22   C     C_1   0.162194 0.507062 0.499768 -0.197355
C23   C     C_1   0.060005 0.508531 0.500382 -0.004564
C24   C     C_1   0.941156 0.506990 0.501019 0.002698
C25   C     C_1   0.838702 0.504335 0.501096 -0.188133
C26   C     C_R   0.656493 0.144479 0.709026 -0.209525
H1    H     H_    0.477291 0.107858 0.291477 0.173242
H2    H     H_    0.344138 0.333333 0.743494 0.233354
H3    H     H_    0.643070 0.632847 0.878341 0.128372
H4    H     H_    0.666896 0.246069 0.707782 0.180577
H5    H     H_    0.758084 0.904432 0.888002 0.129081
H6    H     H_    0.669560 0.783550 0.703847 0.162583
H7    H     H_    0.464064 0.885268 0.297243 0.174208
H8    H     H_    0.642705 0.633482 0.126953 0.140447
H9    H     H_    0.156689 0.231535 0.080891 0.181949
N1    N     N_R   0.498930 0.498800 0.142780 -0.094988
N2    N     N_R   0.498900 0.498720 0.857170 -0.097859
O1    O     O_R   0.500000 0.316780 0.614690 -0.663180
O2    O     O_R   0.499990 0.316750 0.385360 -0.557266
O3    O     O_R   0.334450 0.500030 0.614670 -0.624943
O4    O     O_R   0.334440 0.500000 0.385330 -0.543853
O5    O     O_R   0.500010 0.683250 0.614640 -0.617195
O6    O     O_R   0.500000 0.683220 0.385310 -0.623122
O7    O     O_R   0.665560 0.500000 0.614670 -0.630761
O8    O     O_R   0.665550 0.499970 0.385330 -0.616114
Zn1   Zn    Zn3+2 0.500010 0.500020 0.653130 0.924826
Zn2   Zn    Zn3+2 0.499990 0.499980 0.346870 0.979743
O9    O     O_3   0.160604 0.217765 0.824556 -0.635200
C27   C     C_3   0.173278 0.086420 0.822983 0.077723
H10   H     H_    0.085454 0.038411 0.805624 0.168868
H11   H     H_    0.205324 0.049992 0.920254 0.118999
C28   C     C_3   0.252869 0.051548 0.707770 -0.378684
H12   H     H_    0.221641 0.091676 0.612735 0.228308
H13   H     H_    0.343089 0.091971 0.727581 0.222144
C29   C     C_3   0.254227 0.908985 0.691403 -0.912325
H14   H     H_    0.290769 0.867369 0.782981 0.270923
H15   H     H_    0.309019 0.887158 0.604336 0.265265
H16   H     H_    0.164796 0.865791 0.672700 0.257498
C30   C     C_3   0.772223 0.160166 0.925378 -0.432488
C31   C     C_3   0.684852 0.222017 0.014498 -0.826851
H17   H     H_    0.635779 0.288791 0.955497 0.258396
H18   H     H_    0.622645 0.149249 0.058736 0.255005
H19   H     H_    0.731657 0.275150 0.097353 0.256776
H20   H     H_    0.824090 0.099504 0.989228 0.203958
H21   H     H_    0.833728 0.233962 0.881628 0.221891
O10   O     O_3   0.319858 0.310174 0.263216 -0.577822
C32   C     C_3   0.257047 0.195709 0.301523 0.065407
H22   H     H_    0.300965 0.158748 0.390359 0.144642
H23   H     H_    0.259543 0.119531 0.224377 0.120842
C33   C     C_3   0.133289 0.218595 0.347672 -0.366808
H24   H     H_    0.137037 0.253877 0.452926 0.219828
H25   H     H_    0.094933 0.291160 0.285222 0.235515
C34   C     C_3   0.053796 0.097425 0.342666 -0.949427
H26   H     H_    0.044210 0.061959 0.237656 0.256694
H27   H     H_    0.966417 0.116327 0.381037 0.274290
H28   H     H_    0.090039 0.024100 0.406077 0.267097

loop_
_geom_bond_atom_site_label_1
_geom_bond_atom_site_label_2
_ccdc_geom_bond_type
C12   O3    A    
C20   O5    A    
C23   C24   S    
C28   C29   S    
C24   C25   T    
C13   H9    S    
C33   H24   S    
C17   N1    A    
C21   O7    A    
C34   H27   S    
C34   H26   S    
C11   O10   S    
C16   N2    A    
C29   H14   S    
C32   C33   S    
C27   C28   S    
C33   C34   S    
O8    Zn2   S    
C2    C3    A    
O4    Zn2   S    
C30   C31   S    
C2    C26   A    
C6    C26   A    
C13   C14   A    
C30   H21   S    
C3    H5    S    
C9    H7    S    
C11   C13   A    
C15   H2    S    
C4    H6    S    
C21   C25   S    
C1    O1    A    
C18   H8    S    
C31   H19   S    
C9    C10   A    
C5    C10   A    
O9    C27   S    
C30   H20   S    
C28   H13   S    
C26   H4    S    
C6    C7    A    
C21   O8    A    
C29   H15   S    
C31   H18   S    
C5    C6    A    
C34   H28   S    
O1    Zn1   S    
O6    Zn2   S    
C33   H25   S    
O3    Zn1   S    
C15   C16   A    
C19   H3    S    
C12   C22   S    
C7    C8    A    
C20   O6    A    
O10   C32   S    
C28   H12   S    
C3    C4    A    
N1    Zn2   S    
O2    Zn2   S    
C18   C19   A    
O5    Zn1   S    
C29   H16   S    
C10   C20   S    
C27   H10   S    
C8    H1    S    
C1    O2    A    
C2    C30   S    
C4    C5    A    
C14   O9    S    
C19   N2    A    
C31   H17   S    
C1    C7    S    
N2    Zn1   S    
C14   C15   A    
C27   H11   S    
C18   N1    A    
C22   C23   T    
C11   C17   A    
C12   O4    A    
C32   H22   S    
C16   C17   A    
O7    Zn1   S    
C8    C9    A    
C32   H23   S    
