data_mof_unit_65352.cif
_audit_creation_date              2012-10-26T17:50:50-0400
_audit_creation_method            fapswitch 2.2
_symmetry_space_group_name_H-M    P1
_symmetry_Int_Tables_number       1
_space_group_crystal_system       triclinic
_cell_length_a                    18.272119
_cell_length_b                    18.817368
_cell_length_c                    19.128493
_cell_angle_alpha                 109.775964
_cell_angle_beta                  108.675792
_cell_angle_gamma                 108.207811
_cell_volume                      5168.91011483

loop_
_atom_site_label
_atom_site_type_symbol
_atom_type_description
_atom_site_fract_x
_atom_site_fract_y
_atom_site_fract_z
_atom_type_partial_charge
Br1   Br    Br    0.833894 0.644365 0.944433 -0.260228
Br2   Br    Br    0.952882 0.103579 0.961919 -0.243603
Br3   Br    Br    0.169144 0.498408 0.844883 -0.210681
Br4   Br    Br    0.811607 0.359860 0.674489 -0.386072
Br5   Br    Br    0.922327 0.339109 0.502141 -0.155101
Br6   Br    Br    0.829703 0.157549 0.507552 -0.187970
Br7   Br    Br    0.057558 0.301398 0.004911 -0.361012
Br8   Br    Br    0.212901 0.713377 0.246470 -0.309498
Br9   Br    Br    0.302005 0.882979 0.220468 -0.214635
Br10  Br    Br    0.311649 0.048249 0.369390 -0.285058
Br11  Br    Br    0.218073 0.987757 0.474887 -0.309318
Br12  Br    Br    0.809922 0.665229 0.714888 -0.291946
Br13  Br    Br    0.792723 0.497685 0.594419 -0.309591
Br14  Br    Br    0.688680 0.463626 0.879874 -0.028717
Br15  Br    Br    0.550078 0.329539 0.633450 -0.230859
Br16  Br    Br    0.233711 0.427464 0.433637 -0.371284
Br17  Br    Br    0.112770 0.511027 0.480676 -0.143702
Br18  Br    Br    0.215907 0.455491 0.008943 -0.301233
Br19  Br    Br    0.712092 0.447892 0.266432 -0.197622
Br20  Br    Br    0.700521 0.306949 0.751708 -0.168643
Br21  Br    Br    0.988795 0.767943 0.528145 -0.301629
C1    C     C_R   0.382744 0.381481 0.502206 0.638621
C2    C     C_R   0.310768 0.326728 0.578836 -0.087342
C3    C     C_R   0.184089 0.186045 0.501050 0.068858
C4    C     C_R   0.620081 0.499545 0.618307 0.617558
C5    C     C_R   0.188727 0.171521 0.425621 -0.039349
C6    C     C_R   0.246759 0.239583 0.423264 -0.019709
C7    C     C_R   0.313313 0.315037 0.501749 0.046596
C8    C     C_R   0.133585 0.090736 0.351116 -0.155505
C9    C     C_R   0.129212 0.079851 0.274196 -0.107002
C10   C     C_R   0.177124 0.149362 0.269037 0.490657
C11   C     C_R   0.234021 0.228861 0.341709 0.453849
C12   C     C_3   0.807925 0.493663 0.805019 -0.132267
C13   C     C_R   0.205522 0.491062 0.381067 0.117627
C14   C     C_R   0.142679 0.514024 0.393402 0.184814
C15   C     C_R   0.099110 0.539237 0.341224 0.455199
C16   C     C_R   0.610617 0.617525 0.491325 0.570031
C17   C     C_R   0.112901 0.536496 0.273588 0.394117
C18   C     C_R   0.176391 0.513990 0.259322 -0.053959
C19   C     C_R   0.231360 0.501397 0.320422 -0.044535
C20   C     C_R   0.187902 0.506461 0.187343 0.074678
C21   C     C_R   0.270063 0.515498 0.190619 -0.046641
C22   C     C_R   0.334714 0.526499 0.264042 -0.074805
C23   C     C_3   0.851521 0.552742 0.772308 -0.235756
C24   C     C_R   0.310653 0.504491 0.319952 0.088278
C25   C     C_R   0.294141 0.518322 0.126967 0.151038
C26   C     C_R   0.382412 0.553458 0.146180 0.491791
C27   C     C_R   0.446963 0.577697 0.224395 0.446063
C28   C     C_R   0.375659 0.497008 0.382606 0.586679
C29   C     C_R   0.423379 0.560852 0.281219 -0.078882
C30   C     C_R   0.602564 0.779261 0.510697 0.344647
C31   C     C_R   0.610975 0.861290 0.539613 0.445468
C32   C     C_R   0.685666 0.928797 0.557525 0.439956
C33   C     C_R   0.751758 0.914708 0.544439 0.319607
C34   C     C_3   0.754583 0.531845 0.841390 0.285092
C35   C     C_R   0.746222 0.831745 0.515785 -0.101818
C36   C     C_R   0.671538 0.763923 0.502529 -0.104730
C37   C     C_R   0.812486 0.814550 0.500584 0.041597
C38   C     C_R   0.800713 0.728968 0.468102 -0.060052
C39   C     C_R   0.717180 0.662482 0.438764 -0.012288
C40   C     C_3   0.670025 0.402448 0.660076 0.003930
C41   C     C_R   0.664112 0.681068 0.474384 0.054521
C42   C     C_R   0.864118 0.703789 0.456189 0.102750
C43   C     C_R   0.836897 0.619431 0.398620 -0.114092
C44   C     C_R   0.748979 0.559424 0.353204 0.177401
C45   C     C_R   0.376611 0.397012 0.660047 0.445814
C46   C     C_R   0.688918 0.580223 0.373021 0.446311
C47   C     C_R   0.004603 0.381428 0.884184 0.573275
C48   C     C_R   0.877871 0.495960 0.874563 0.581045
C49   C     C_R   0.996058 0.619053 0.115603 0.656275
C50   C     C_R   0.118053 0.499675 0.115644 0.639163
C51   C     C_R   0.007603 0.887096 0.384147 0.515295
C52   C     C_3   0.745267 0.399751 0.726387 0.235083
C53   C     C_R   0.118327 0.118415 0.500397 0.608216
C54   C     C_R   0.993712 0.115295 0.616290 0.646593
C55   C     C_R   0.881003 0.880124 0.499102 0.576678
C56   C     C_R   0.363879 0.413593 0.730708 0.449396
C57   C     C_R   0.058939 0.402248 0.754257 0.174063
C58   C     C_R   0.031810 0.404564 0.678181 0.428580
C59   C     C_R   0.968183 0.330332 0.602526 0.212973
C60   C     C_R   0.940816 0.251158 0.600972 0.154112
C61   C     C_R   0.979636 0.248140 0.676446 -0.034489
C62   C     C_R   0.020926 0.323439 0.754156 -0.070854
C63   C     C_R   0.979370 0.173984 0.678401 0.087859
C64   C     C_3   0.782103 0.548722 0.696306 0.191909
C65   C     C_R   0.979716 0.163309 0.747693 0.005700
C66   C     C_R   0.995884 0.232764 0.821494 0.007562
C67   C     C_R   0.286429 0.360738 0.723227 -0.056596
C68   C     C_R   0.015086 0.314770 0.824078 0.049770
C69   C     C_R   0.958108 0.081642 0.741340 -0.089975
C70   C     C_R   0.946872 0.065596 0.803350 -0.094115
C71   C     C_R   0.965056 0.131819 0.877100 0.227361
C72   C     C_R   0.995455 0.216007 0.889376 0.197959
C73   C     C_R   0.157414 0.782659 0.234570 0.179365
C74   C     C_R   0.215520 0.865497 0.258529 0.199163
C75   C     C_R   0.218656 0.933754 0.320304 0.185529
C76   C     C_3   0.690346 0.540497 0.772562 0.723504
C77   C     C_R   0.162307 0.915922 0.354743 0.101527
C78   C     C_R   0.224462 0.287234 0.646816 0.314583
C79   C     C_R   0.084116 0.834630 0.308092 -0.043888
C80   C     C_R   0.080009 0.766884 0.242586 -0.027474
C81   C     C_R   0.010319 0.818753 0.322339 0.056465
C82   C     C_R   0.932753 0.739238 0.270169 -0.028642
C83   C     C_R   0.924190 0.676450 0.197386 -0.032211
C84   C     C_R   0.999939 0.687424 0.186502 0.056999
C85   C     C_R   0.860882 0.723164 0.287263 -0.170830
C86   C     C_R   0.780261 0.651004 0.230348 -0.123292
C87   C     C_R   0.768476 0.594152 0.154342 0.507540
C88   C     C_3   0.689016 0.497658 0.685177 -0.048058
C89   C     C_R   0.238856 0.266054 0.575267 -0.036305
C90   C     C_R   0.838435 0.607133 0.136742 0.443597
Cu1   Cu    Cu3+1 0.500360 0.438220 0.438540 1.273924
Cu2   Cu    Cu3+1 0.499640 0.561780 0.561460 1.329639
Cu3   Cu    Cu3+1 0.935530 0.438290 0.997340 1.293059
Cu4   Cu    Cu3+1 0.059130 0.561800 0.997250 1.210851
Cu5   Cu    Cu3+1 0.937870 0.000030 0.437890 1.169443
Cu6   Cu    Cu3+1 0.062130 0.000000 0.562130 1.209288
F1    F     F_    0.167352 0.140161 0.192626 -0.511877
F2    F     F_    0.523032 0.714339 0.482645 -0.585072
F3    F     F_    0.544588 0.874780 0.547416 -0.473471
F4    F     F_    0.692926 0.008518 0.584943 -0.478013
F5    F     F_    0.819836 0.983617 0.559634 -0.611768
F6    F     F_    0.602392 0.523561 0.321612 -0.546077
F7    F     F_    0.066582 0.479650 0.677999 -0.506933
F8    F     F_    0.687889 0.527050 0.095952 -0.473232
F9    F     F_    0.817813 0.556599 0.056730 -0.551035
F10   F     F_    0.712830 0.626036 0.798787 -0.500958
F11   F     F_    0.607717 0.503684 0.763424 -0.446414
F12   F     F_    0.456033 0.447710 0.674251 -0.495560
F13   F     F_    0.427002 0.482189 0.806892 -0.459467
F14   F     F_    0.148865 0.240092 0.642935 -0.641334
F15   F     F_    0.268692 0.295125 0.328742 -0.559050
F16   F     F_    0.532451 0.612277 0.243121 -0.534968
F17   F     F_    0.039794 0.563556 0.353838 -0.529192
F18   F     F_    0.068198 0.563607 0.227276 -0.592307
F19   F     F_    0.405641 0.560481 0.087163 -0.474144
H1    H     H_    0.667642 0.372476 0.597978 0.218985
H2    H     H_    0.865657 0.766820 0.344396 0.153665
H3    H     H_    0.725943 0.641004 0.244058 0.200508
H4    H     H_    0.898751 0.535946 0.755216 0.222758
H5    H     H_    0.892373 0.619972 0.824474 0.210682
H6    H     H_    0.275001 0.375645 0.777359 0.213726
H7    H     H_    0.092755 0.034966 0.351048 0.147299
H8    H     H_    0.086037 0.017906 0.217916 0.173623
H9    H     H_    0.475819 0.577346 0.339868 0.189498
H10   H     H_    0.884407 0.600608 0.388213 0.230194
H11   H     H_    0.945389 0.027626 0.686407 0.180429
H12   H     H_    0.926323 0.001372 0.794890 0.173142
O1    O     O_R   0.410140 0.357660 0.448100 -0.458817
O2    O     O_R   0.052970 0.909860 0.462770 -0.451869
O3    O     O_R   0.037700 0.090200 0.447550 -0.516977
O4    O     O_R   0.409530 0.462000 0.551910 -0.442857
O5    O     O_R   0.142640 0.090170 0.552470 -0.439448
O6    O     O_R   0.947030 0.090160 0.537260 -0.431781
O7    O     O_R   0.051970 0.090130 0.642170 -0.486988
O8    O     O_R   0.857360 0.909860 0.447560 -0.457922
O9    O     O_R   0.962300 0.909830 0.552480 -0.487770
O10   O     O_R   0.590960 0.447830 0.538760 -0.516945
O11   O     O_R   0.590350 0.552170 0.642570 -0.380578
O12   O     O_R   0.049980 0.462000 0.907580 -0.472591
O13   O     O_R   0.590470 0.538000 0.448090 -0.473598
O14   O     O_R   0.589860 0.642340 0.551900 -0.460319
O15   O     O_R   0.409650 0.447830 0.357430 -0.456690
O16   O     O_R   0.409040 0.552170 0.461240 -0.468820
O17   O     O_R   0.945600 0.357690 0.907660 -0.488886
O18   O     O_R   0.854480 0.447890 0.906670 -0.436071
O19   O     O_R   0.958860 0.552200 0.906600 -0.516194
O20   O     O_R   0.944670 0.538090 0.087010 -0.396376
O21   O     O_R   0.049050 0.642400 0.086940 -0.511702
O22   O     O_R   0.035800 0.447890 0.088000 -0.450171
O23   O     O_R   0.140170 0.552200 0.087920 -0.467958
O24   O     O_R   0.948030 0.909890 0.357850 -0.535344

loop_
_geom_bond_atom_site_label_1
_geom_bond_atom_site_label_2
_ccdc_geom_bond_type
C12   C34   S    
C26   F19   S    
C20   C21   A    
C14   C15   A    
Cu4   O21   S    
C40   C88   S    
C16   C41   S    
C37   C55   S    
C36   C41   A    
C18   C20   A    
C32   C33   A    
Cu5   Cu6   S    
Cu1   O13   S    
C5    C6    A    
C69   H11   S    
Cu1   O10   S    
Br12  C64   S    
Br11  C77   S    
C13   C19   A    
C51   O24   A    
C2    C45   A    
C49   O21   A    
C3    C5    A    
C64   C88   S    
C9    C10   A    
C54   C63   S    
C85   H2    S    
C85   C86   A    
C8    H7    S    
C9    H8    S    
C35   C36   A    
Cu5   O24   S    
C4    O10   A    
C39   C41   A    
C13   C14   A    
C21   C25   A    
Cu1   O15   S    
C48   O18   A    
C83   C84   A    
C28   O16   A    
Br16  C13   S    
Cu2   O14   S    
C57   C62   A    
C74   C75   A    
C39   C46   A    
C23   H5    S    
C44   C46   A    
C75   C77   A    
Cu6   O7    S    
C30   F2    S    
C86   C87   A    
Cu6   O2    S    
C30   C36   A    
Br10  C75   S    
C87   F8    S    
Br9   C74   S    
Cu5   O6    S    
C4    C88   S    
C20   C50   S    
C45   F12   S    
C47   O17   A    
C27   C29   A    
Br14  C34   S    
C33   F5    S    
C1    O1    A    
C38   C39   A    
C23   H4    S    
Br6   C60   S    
C1    C7    S    
Cu2   O4    S    
C81   C82   A    
C76   F11   S    
C62   C68   A    
Br18  C25   S    
C67   H6    S    
Cu1   Cu2   S    
Cu3   O18   S    
C1    O4    A    
C80   C84   A    
C19   C24   A    
Br7   C72   S    
C33   C35   A    
C55   O9    A    
C28   O15   A    
Cu6   O9    S    
C30   C31   A    
C27   F16   S    
Br8   C73   S    
C73   C80   A    
Cu4   O23   S    
C65   C69   A    
Cu3   Cu4   S    
C70   C71   A    
C57   C58   A    
C40   C52   S    
C37   C38   A    
C17   F18   S    
C78   C89   A    
C55   O8    A    
C60   C61   A    
C42   C43   A    
C53   O5    A    
C15   F17   S    
C48   O19   A    
C10   F1    S    
C4    O11   A    
C8    C9    A    
C49   O20   A    
C76   C88   S    
C26   C27   A    
C24   C28   S    
Cu5   O8    S    
C34   C76   S    
C90   F9    S    
C79   C81   A    
C47   C68   S    
Br15  C40   S    
C50   O22   A    
C3    C89   A    
C2    C7    A    
Cu2   O11   S    
Br5   C59   S    
Br2   C71   S    
C22   C24   A    
Br4   C52   S    
C31   F3    S    
C29   H9    S    
C12   C52   S    
C51   O2    A    
C66   C68   A    
Cu6   O5    S    
C50   O23   A    
C53   O3    A    
C21   C22   A    
Cu4   O19   S    
C23   C64   S    
C56   C67   A    
C11   F15   S    
C31   C32   A    
Cu3   O17   S    
C16   O13   A    
C76   F10   S    
Cu3   O22   S    
C2    C89   A    
C25   C26   A    
C43   H10   S    
C6    C11   A    
C65   C66   A    
C12   C23   S    
C38   C42   A    
C10   C11   A    
C63   C65   A    
C59   C60   A    
C49   C84   S    
C46   F6    S    
C83   C90   A    
C70   H12   S    
C3    C53   S    
C22   C29   A    
Cu3   O20   S    
C12   C48   S    
C58   F7    S    
C61   C63   A    
C87   C90   A    
C78   F14   S    
Cu4   O12   S    
C43   C44   A    
C15   C17   A    
Br1   C34   S    
C32   F4    S    
Cu2   O16   S    
C54   O6    A    
C40   H1    S    
C69   C70   A    
C17   C18   A    
C51   C81   S    
C66   C72   A    
C71   C72   A    
C35   C37   A    
Br20  C52   S    
Br19  C44   S    
C82   C85   A    
C56   F13   S    
C45   C56   A    
C86   H3    S    
C73   C74   A    
C77   C79   A    
Br21  C42   S    
C67   C78   A    
C58   C59   A    
C18   C19   A    
C54   O7    A    
C5    C8    A    
C61   C62   A    
Br13  C64   S    
C82   C83   A    
Cu1   O1    S    
C79   C80   A    
Br17  C14   S    
C47   O12   A    
Br3   C57   S    
Cu5   O3    S    
C16   O14   A    
C6    C7    A    
