data_mof_unit_22598.cif
_audit_creation_date              2012-12-11T15:10:40-0500
_audit_creation_method            fapswitch 2.2
_symmetry_space_group_name_H-M    P1
_symmetry_Int_Tables_number       1
_space_group_crystal_system       triclinic
_cell_length_a                    13.844992
_cell_length_b                    13.85297
_cell_length_c                    27.627432
_cell_angle_alpha                 89.617652
_cell_angle_beta                  90.424853
_cell_angle_gamma                 119.984276
_cell_volume                      4589.45435518

loop_
_atom_site_label
_atom_site_type_symbol
_atom_type_description
_atom_site_fract_x
_atom_site_fract_y
_atom_site_fract_z
_atom_type_partial_charge
C1    C     C_R   0.569852 0.399201 0.179349 0.530815
C2    C     C_R   0.571181 0.119295 0.182654 0.578994
C3    C     C_R   0.828937 0.429807 0.179107 0.533781
C4    C     C_R   0.400511 0.569007 0.821183 0.511731
C5    C     C_R   0.168439 0.599095 0.821437 0.512346
C6    C     C_R   0.430435 0.829512 0.820304 0.514369
C7    C     C_3   0.505166 0.937129 0.444400 0.276149
C8    C     C_3   0.043720 0.574916 0.452794 0.259673
C9    C     C_3   0.424886 0.475607 0.450372 0.289055
C10   C     C_3   0.941474 0.502549 0.553436 0.270343
C11   C     C_3   0.578250 0.036815 0.545799 0.262335
C12   C     C_3   0.473443 0.418948 0.552420 0.270320
C13   C     C_1   0.426415 0.841338 0.625680 0.019409
C14   C     C_1   0.158596 0.586247 0.627211 0.013864
C15   C     C_1   0.412648 0.570608 0.626687 0.019828
C16   C     C_1   0.845104 0.426068 0.373784 0.022973
C17   C     C_1   0.586427 0.157163 0.372631 0.016811
C18   C     C_1   0.569782 0.412932 0.374042 0.025959
C19   C     C_3   0.528083 0.056428 0.457763 0.005278
C20   C     C_3   0.935945 0.459882 0.461964 0.012362
C21   C     C_3   0.529643 0.463995 0.461928 -0.013686
C22   C     C_3   0.061540 0.525734 0.541175 0.008865
C23   C     C_3   0.463111 0.929106 0.536539 -0.002048
C24   C     C_3   0.467733 0.527184 0.540908 -0.012108
C25   C     C_3   0.375690 0.963747 0.521478 -0.206473
C26   C     C_3   0.055489 0.418881 0.520200 -0.217700
C27   C     C_3   0.584972 0.619916 0.524093 -0.220775
C28   C     C_3   0.970649 0.372719 0.477365 -0.205373
C29   C     C_3   0.421280 0.049475 0.479156 -0.216104
C30   C     C_3   0.625738 0.577906 0.480811 -0.231592
C31   C     C_1   0.432905 0.866072 0.583075 -0.010811
C32   C     C_1   0.128144 0.563245 0.585907 -0.012768
C33   C     C_1   0.432678 0.559508 0.585361 -0.010524
C34   C     C_1   0.872121 0.430708 0.415866 -0.006199
C35   C     C_1   0.564375 0.124949 0.413677 -0.012397
C36   C     C_1   0.559952 0.430227 0.416162 -0.007099
C37   C     C_R   0.571178 0.400141 0.322249 0.517540
C38   C     C_R   0.600969 0.172676 0.321581 0.521910
C39   C     C_R   0.829657 0.428391 0.322186 0.517087
C40   C     C_R   0.399316 0.571734 0.678104 0.518703
C41   C     C_R   0.172764 0.600896 0.678429 0.521744
C42   C     C_R   0.428327 0.829052 0.677783 0.522805
C43   C     C_3   0.500331 0.086934 0.009881 -0.300245
C44   C     C_3   0.884852 0.398947 0.003538 -0.305434
C45   C     C_3   0.596664 0.486113 0.006232 -0.309317
C46   C     C_3   0.128242 0.557963 0.004334 -0.300221
C47   C     C_3   0.415959 0.845105 0.993707 -0.308684
C48   C     C_3   0.430762 0.561546 0.003464 -0.297745
C49   C     C_3   0.440742 0.897999 0.044541 0.102066
C50   C     C_3   0.056583 0.528595 0.051695 0.125439
C51   C     C_3   0.459524 0.520046 0.051582 0.118324
C52   C     C_3   0.958996 0.433904 0.957459 0.113734
C53   C     C_3   0.467939 0.028883 0.959676 0.066748
C54   C     C_3   0.563791 0.524657 0.959215 0.109372
C55   C     C_1   0.442821 0.852243 0.869672 0.026670
C56   C     C_1   0.147850 0.588274 0.872648 0.066946
C57   C     C_1   0.410876 0.557831 0.872167 0.060388
C58   C     C_1   0.844431 0.436710 0.127800 0.060356
C59   C     C_1   0.552803 0.087139 0.134015 0.104834
C60   C     C_1   0.559674 0.406960 0.128470 0.062534
C61   C     C_3   0.538161 0.021878 0.043878 -0.069805
C62   C     C_3   0.932478 0.496611 0.040079 -0.073297
C63   C     C_3   0.496089 0.431484 0.040970 -0.064464
C64   C     C_3   0.057444 0.557823 0.960416 -0.066152
C65   C     C_3   0.495551 0.931944 0.957362 -0.045872
C66   C     C_3   0.438445 0.495308 0.960050 -0.066931
C67   C     C_3   0.617619 0.963108 0.974899 0.141530
C68   C     C_3   0.020663 0.646278 0.974685 0.143912
C69   C     C_3   0.351984 0.368803 0.973020 0.128704
C70   C     C_3   0.925043 0.593751 0.012909 0.129729
C71   C     C_3   0.649037 0.038233 0.020647 0.127184
C72   C     C_3   0.403200 0.326543 0.012686 0.129544
C73   C     C_1   0.465457 0.881907 0.910280 0.020081
C74   C     C_1   0.118650 0.581266 0.914263 0.050686
C75   C     C_1   0.417037 0.534230 0.913671 0.035774
C76   C     C_1   0.871546 0.457398 0.086010 0.045533
C77   C     C_1   0.548907 0.063377 0.092539 0.051791
C78   C     C_1   0.535622 0.410943 0.087026 0.053864
C79   C     C_3   0.619846 0.105168 0.497272 -0.231371
C80   C     C_3   0.870165 0.469541 0.505339 -0.241170
C81   C     C_3   0.501973 0.378456 0.503841 -0.223576
C82   C     C_3   0.112168 0.616357 0.501351 -0.235186
C83   C     C_3   0.473869 0.864709 0.492454 -0.225517
C84   C     C_3   0.385492 0.505656 0.498433 -0.213594
Cr1   Cr    Cr6+3 0.748260 0.501860 0.250510 1.120389
Cr2   Cr    Cr6+3 0.498140 0.246400 0.250510 1.111718
Cr3   Cr    Cr6+3 0.753600 0.251740 0.250510 1.103397
Cr4   Cr    Cr6+3 0.501860 0.748260 0.749490 1.114287
Cr5   Cr    Cr6+3 0.246400 0.498140 0.749490 1.133967
Cr6   Cr    Cr6+3 0.251740 0.753600 0.749490 1.096942
H1    H     H_    0.375460 0.990189 0.957535 0.146411
H2    H     H_    0.997710 0.380032 0.957823 0.169835
H3    H     H_    0.615701 0.617376 0.959173 0.176166
H4    H     H_    0.053622 0.452589 0.067004 0.189656
H5    H     H_    0.365917 0.902546 0.054994 0.190074
H6    H     H_    0.534025 0.594000 0.067001 0.155983
H7    H     H_    0.395124 0.784704 0.488107 0.106963
H8    H     H_    0.200577 0.640777 0.497668 0.086949
H9    H     H_    0.375507 0.579607 0.494221 0.158530
H10   H     H_    0.791324 0.389459 0.509465 0.060719
H11   H     H_    0.647630 0.194283 0.500862 0.092154
H12   H     H_    0.572028 0.362879 0.507708 0.106278
H13   H     H_    0.441416 0.132631 0.492632 0.163564
H14   H     H_    0.895757 0.293355 0.487726 0.128133
H15   H     H_    0.697159 0.568321 0.492393 0.143148
H16   H     H_    0.138942 0.439684 0.506882 0.156909
H17   H     H_    0.296524 0.888906 0.510885 0.125506
H18   H     H_    0.581334 0.695373 0.513909 0.120845
H19   H     H_    0.356106 0.028879 0.451199 0.210925
H20   H     H_    0.007532 0.349473 0.447385 0.217246
H21   H     H_    0.660496 0.642019 0.451976 0.181921
H22   H     H_    0.035072 0.354119 0.548271 0.213018
H23   H     H_    0.351916 0.999556 0.551709 0.218177
H24   H     H_    0.646969 0.648115 0.553966 0.226268
H25   H     H_    0.427160 0.087980 0.025539 0.178636
H26   H     H_    0.882894 0.324802 0.020264 0.168928
H27   H     H_    0.667561 0.559312 0.023926 0.169955
H28   H     H_    0.155479 0.495719 0.998785 0.131968
H29   H     H_    0.327608 0.816503 0.983742 0.116807
H30   H     H_    0.490996 0.651504 0.998213 0.084556
H31   H     H_    0.424572 0.769891 0.992297 0.130927
H32   H     H_    0.206065 0.639042 0.007148 0.176043
H33   H     H_    0.347312 0.553921 0.004563 0.172208
H34   H     H_    0.796807 0.373274 0.994745 0.168430
H35   H     H_    0.566912 0.175731 0.006979 0.149650
H36   H     H_    0.626351 0.426560 0.998676 0.163656
H37   H     H_    0.695166 0.125891 0.007665 0.151796
H38   H     H_    0.845095 0.554777 0.992447 0.161391
H39   H     H_    0.446166 0.288135 0.993830 0.164363
H40   H     H_    0.093768 0.714766 0.993523 0.169476
H41   H     H_    0.612138 0.883519 0.986353 0.129479
H42   H     H_    0.280007 0.369520 0.990242 0.176804
H43   H     H_    0.696321 0.106717 0.484770 0.135111
H44   H     H_    0.845220 0.532096 0.496661 0.131868
H45   H     H_    0.431018 0.296938 0.492818 0.145788
H46   H     H_    0.116084 0.694151 0.513585 0.135631
H47   H     H_    0.538248 0.841888 0.500594 0.141937
H48   H     H_    0.301913 0.437235 0.508683 0.133028
O1    O     O_R   0.863770 0.527700 0.199270 -0.409560
O2    O     O_R   0.472300 0.336070 0.199270 -0.411141
O3    O     O_R   0.663930 0.136230 0.199270 -0.468445
O4    O     O_R   0.527700 0.863770 0.800730 -0.411616
O5    O     O_R   0.336070 0.472300 0.800730 -0.405328
O6    O     O_R   0.136230 0.663930 0.800730 -0.429635
O7    O     O_R   0.643280 0.490970 0.202410 -0.473198
O8    O     O_R   0.509030 0.152310 0.202410 -0.505517
O9    O     O_R   0.847690 0.356720 0.202410 -0.460708
O10   O     O_R   0.490970 0.643280 0.797590 -0.458397
O11   O     O_R   0.152310 0.509030 0.797590 -0.452266
O12   O     O_R   0.356720 0.847690 0.797590 -0.475992
O13   O     O_R   0.862920 0.527590 0.302350 -0.428754
O14   O     O_R   0.472410 0.335330 0.302350 -0.436246
O15   O     O_R   0.664670 0.137080 0.302350 -0.435870
O16   O     O_R   0.527590 0.862920 0.697650 -0.425215
O17   O     O_R   0.335330 0.472410 0.697650 -0.427771
O18   O     O_R   0.137080 0.664670 0.697650 -0.434835
O19   O     O_R   0.642490 0.490870 0.297970 -0.443368
O20   O     O_R   0.509130 0.151620 0.297970 -0.443682
O21   O     O_R   0.848380 0.357510 0.297970 -0.449550
O22   O     O_R   0.490870 0.642490 0.702030 -0.444696
O23   O     O_R   0.151620 0.509130 0.702030 -0.437885
O24   O     O_R   0.357510 0.848380 0.702030 -0.443457
O25   O     O_3   0.666667 0.333333 0.250440 -0.466838
O26   O     O_3   0.333333 0.666667 0.749560 -0.489277
S1    S     S_3+6 0.449709 0.806636 0.088453 0.087019
O27   O     O_2   0.424224 0.831618 0.138044 -0.184363
O28   O     O_2   0.362122 0.691506 0.074634 -0.218878
O29   O     O_3   0.572153 0.810068 0.090151 -0.398619
H49   H     H_    0.576185 0.777686 0.059042 0.326288
S2    S     S_3+6 0.121865 0.633213 0.099057 0.101823
O30   O     O_2   0.197894 0.744721 0.077100 -0.265552
O31   O     O_2   0.039975 0.645375 0.129918 -0.185446
O32   O     O_3   0.193917 0.595251 0.136086 -0.408456
H50   H     H_    0.218194 0.648415 0.163399 0.401907
S3    S     S_3+6 0.354712 0.478450 0.099053 0.106096
O33   O     O_2   0.245754 0.458851 0.078510 -0.235074
O34   O     O_2   0.334044 0.375017 0.125515 -0.184918
O35   O     O_3   0.402292 0.580410 0.140640 -0.398086
H51   H     H_    0.353574 0.546922 0.169155 0.397755
S4    S     S_3+6 0.883314 0.395227 0.900728 0.109463
O36   O     O_2   0.929989 0.339514 0.869749 -0.216795
O37   O     O_2   0.763350 0.314453 0.909956 -0.143271
O38   O     O_3   0.894018 0.505160 0.870107 -0.417363
H52   H     H_    0.855304 0.474476 0.838914 0.398400
S5    S     S_3+6 0.512564 0.121750 0.908281 0.130105
O39   O     O_2   0.549144 0.237285 0.925413 -0.180322
O40   O     O_2   0.605773 0.120551 0.881612 -0.121185
O41   O     O_3   0.406058 0.083285 0.868977 -0.387805
H53   H     H_    0.360459 0.001199 0.871491 0.329411
S6    S     S_3+6 0.607909 0.488030 0.904440 0.097001
O42   O     O_2   0.698698 0.462929 0.916035 -0.198257
O43   O     O_2   0.513672 0.389680 0.879698 -0.128611
O44   O     O_3   0.658419 0.597781 0.866460 -0.472134
H54   H     H_    0.684549 0.574568 0.837889 0.396999
S7    S     S_3+6 0.753730 0.033043 0.059264 0.077923
O45   O     O_2   0.772171 0.939019 0.044938 -0.188576
O46   O     O_2   0.861858 0.140293 0.052727 -0.248715
O47   O     O_3   0.721023 0.019654 0.118325 -0.454991
H55   H     H_    0.786601 0.024685 0.135337 0.393151
S8    S     S_3+6 0.915286 0.697904 0.048911 0.084492
O48   O     O_2   0.028620 0.791314 0.062944 -0.147032
O49   O     O_2   0.858294 0.745844 0.018851 -0.209283
O50   O     O_3   0.838497 0.642057 0.098959 -0.533519
H56   H     H_    0.827378 0.701719 0.112598 0.389812
S9    S     S_3+6 0.296581 0.210496 0.047097 0.085876
O51   O     O_2   0.201598 0.229277 0.059192 -0.138678
O52   O     O_2   0.251277 0.107103 0.016724 -0.218415
O53   O     O_3   0.349618 0.188297 0.098156 -0.529645
H57   H     H_    0.289271 0.117003 0.111331 0.390644
S10   S     S_3+6 0.996797 0.725600 0.928287 0.093698
O54   O     O_2   0.875974 0.670212 0.914416 -0.162604
O55   O     O_2   0.030075 0.838247 0.948891 -0.180990
O56   O     O_3   0.073548 0.746991 0.878496 -0.508826
H58   H     H_    0.056725 0.794726 0.857303 0.386663
S11   S     S_3+6 0.730720 0.016574 0.931440 0.105536
O57   O     O_2   0.795055 0.141447 0.932385 -0.200946
O58   O     O_2   0.808584 0.974952 0.945551 -0.170334
O59   O     O_3   0.687030 0.973738 0.874697 -0.462817
H59   H     H_    0.755379 0.010057 0.854729 0.397799
S12   S     S_3+6 0.280061 0.267511 0.925567 0.106912
O60   O     O_2   0.281348 0.318998 0.877522 -0.218513
O61   O     O_2   0.329127 0.193410 0.920015 -0.167625
O62   O     O_3   0.146196 0.188249 0.942495 -0.429388
H60   H     H_    0.113054 0.126417 0.918846 0.403795
I1    I     I_    0.703201 0.993415 0.569201 -0.216620
I2    I     I_    0.952894 0.653979 0.583572 -0.156959
I3    I     I_    0.314016 0.284499 0.578226 -0.176152
I4    I     I_    0.999806 0.699914 0.429897 -0.207324
I5    I     I_    0.656287 0.952595 0.411481 -0.196081
I6    I     I_    0.286172 0.319646 0.423279 -0.180937
S13   S     S_3+6 0.395915 0.873704 0.397791 0.093198
O63   O     O_2   0.415164 0.949383 0.355565 -0.184249
O64   O     O_2   0.390925 0.771847 0.377059 -0.109266
O65   O     O_3   0.271820 0.842156 0.420487 -0.488288
H61   H     H_    0.255854 0.783858 0.444646 0.318692
S14   S     S_3+6 0.126096 0.561131 0.404350 0.079130
O66   O     O_2   0.063211 0.457514 0.374459 -0.215920
O67   O     O_2   0.168912 0.657295 0.369612 -0.118094
O68   O     O_3   0.230736 0.553000 0.430298 -0.506023
H62   H     H_    0.288077 0.630888 0.436224 0.374668
S15   S     S_3+6 0.457738 0.580642 0.402826 0.085697
O69   O     O_2   0.557295 0.605562 0.372528 -0.254000
O70   O     O_2   0.361855 0.547109 0.368354 -0.075532
O71   O     O_3   0.488237 0.698785 0.430451 -0.550899
H63   H     H_    0.568145 0.732673 0.438155 0.350919
S16   S     S_3+6 0.877119 0.394195 0.600311 0.079521
O72   O     O_2   0.950604 0.415845 0.643637 -0.172281
O73   O     O_2   0.773117 0.387451 0.619229 -0.147915
O74   O     O_3   0.848906 0.270097 0.578681 -0.485348
H64   H     H_    0.790367 0.251447 0.554236 0.320968
S17   S     S_3+6 0.564859 0.120026 0.593675 0.084671
O75   O     O_2   0.461852 0.058862 0.624032 -0.207388
O76   O     O_2   0.662036 0.165342 0.628014 -0.109160
O77   O     O_3   0.555725 0.222077 0.566009 -0.527539
H65   H     H_    0.633603 0.280586 0.561213 0.340899
S18   S     S_3+6 0.574160 0.446572 0.602026 0.102411
O78   O     O_2   0.576119 0.524461 0.639800 -0.199910
O79   O     O_2   0.549803 0.342660 0.629028 -0.085124
O80   O     O_3   0.702998 0.510772 0.579900 -0.484745
H66   H     H_    0.703952 0.461203 0.555129 0.310622

loop_
_geom_bond_atom_site_label_1
_geom_bond_atom_site_label_2
_ccdc_geom_bond_type
Cr3   O25   S    
O50   H56   S    
Cr4   O26   S    
C18   C36   T    
C3    O9    A    
S6    O42   D    
C12   S18   S    
C41   O23   A    
S12   O62   S    
C69   S12   S    
C9    C84   S    
C5    C56   S    
C1    O7    A    
O62   H60   S    
C24   C27   S    
C6    C55   S    
Cr6   O12   S    
C9    S15   S    
C43   H35   S    
C48   H33   S    
S12   O61   D    
O35   H51   S    
C8    I4    S    
C28   H20   S    
C58   C76   T    
S17   O75   D    
S3    O34   D    
C21   C36   S    
C7    S13   S    
O32   H50   S    
C10   C22   S    
C60   C78   T    
O74   H64   S    
C8    C20   S    
Cr3   O9    S    
Cr6   O24   S    
C8    C82   S    
C64   C68   S    
C29   H19   S    
C42   O16   A    
C18   C37   S    
Cr1   O7    S    
C25   H23   S    
S11   O58   D    
Cr5   O17   S    
C66   C69   S    
S2    O30   D    
C70   H38   S    
C4    O10   A    
S18   O80   S    
C39   O13   A    
C65   C73   S    
O71   H63   S    
C46   H28   S    
S15   O69   D    
C23   C83   S    
C37   O19   A    
C11   C23   S    
C53   S5    S    
S12   O60   D    
C54   H3    S    
C7    C83   S    
S6    O44   S    
C43   H25   S    
C5    O11   A    
C67   S11   S    
C43   C53   S    
C48   C51   S    
S5    O39   D    
O68   H62   S    
C61   C77   S    
O53   H57   S    
C65   C67   S    
S18   O79   D    
C4    C57   S    
C53   H1    S    
S6    O43   D    
Cr3   O15   S    
C40   O17   A    
O47   H55   S    
C10   S16   S    
C6    O4    A    
C53   C65   S    
Cr1   O1    S    
Cr5   O26   S    
S4    O38   S    
Cr2   O2    S    
C51   H6    S    
S7    O47   S    
C20   C34   S    
C44   C52   S    
C47   H31   S    
C47   H29   S    
C84   H48   S    
C3    C58   S    
S1    O28   D    
C47   C65   S    
C80   H10   S    
C27   C30   S    
C82   H8    S    
C62   C70   S    
C62   C76   S    
C61   C71   S    
Cr1   O19   S    
C4    O5    A    
Cr2   O8    S    
Cr5   O23   S    
C13   C42   S    
S4    O37   D    
C46   C50   S    
C81   H45   S    
S3    O35   S    
C81   H12   S    
S9    O52   D    
C25   C29   S    
C79   H43   S    
S16   O73   D    
C56   C74   T    
C20   C80   S    
S14   O67   D    
S2    O31   D    
C72   H39   S    
C49   C61   S    
C38   O20   A    
S13   O64   D    
S14   O66   D    
C52   C64   S    
S11   O59   S    
C10   C80   S    
C2    C59   S    
C50   H4    S    
S5    O41   S    
C20   C28   S    
C44   C62   S    
O56   H58   S    
C44   H34   S    
C11   S17   S    
C46   C64   S    
O41   H53   S    
S15   O70   D    
Cr4   O16   S    
C69   C72   S    
C68   H40   S    
S11   O57   D    
Cr1   O13   S    
O38   H52   S    
C49   S1    S    
O77   H65   S    
Cr2   O14   S    
C26   H16   S    
C28   H14   S    
C80   H44   S    
C71   S7    S    
S3    O33   D    
C45   H36   S    
C11   I1    S    
C55   C73   T    
C16   C34   T    
S18   O78   D    
Cr4   O10   S    
C51   C63   S    
C50   S2    S    
C49   H5    S    
C51   S3    S    
Cr2   O20   S    
C44   H26   S    
C1    O2    A    
C11   C79   S    
C14   C41   S    
C63   C78   S    
C8    S14   S    
S10   O55   D    
C68   C70   S    
O29   H49   S    
S17   O76   D    
C21   C81   S    
C45   C54   S    
O44   H54   S    
S1    O29   S    
C7    C19   S    
C30   H15   S    
C83   H7    S    
C50   C62   S    
C52   H2    S    
C3    O1    A    
O65   H61   S    
C37   O14   A    
C9    I6    S    
O80   H66   S    
C19   C29   S    
C26   H22   S    
C83   H47   S    
C22   C32   S    
S4    O36   D    
C43   C61   S    
C7    I5    S    
S9    O53   S    
C45   H27   S    
Cr4   O4    S    
S9    O51   D    
S16   O72   D    
C70   S8    S    
C54   S6    S    
C39   O21   A    
S17   O77   S    
C84   H9    S    
C26   C28   S    
C40   O22   A    
C67   H41   S    
C14   C32   T    
C12   I3    S    
C42   O24   A    
C72   S9    S    
C54   C66   S    
Cr3   O3    S    
C2    O8    A    
S10   O56   S    
C21   C30   S    
C12   C24   S    
C29   H13   S    
C24   C33   S    
C71   H37   S    
C22   C82   S    
C30   H21   S    
S15   O71   S    
C68   S10   S    
C59   C77   T    
C57   C75   T    
C52   S4    S    
C24   C84   S    
C69   H42   S    
Cr5   O5    S    
C47   C49   S    
C13   C31   T    
C9    C21   S    
O59   H59   S    
C48   H30   S    
C45   C63   S    
C27   H18   S    
S8    O48   D    
S8    O50   S    
Cr1   O25   S    
C66   C75   S    
S2    O32   S    
Cr5   O11   S    
Cr3   O21   S    
C12   C81   S    
S13   O65   S    
C67   C71   S    
C17   C38   S    
Cr4   O22   S    
C82   H46   S    
C1    C60   S    
C15   C40   S    
C46   H32   S    
S5    O40   D    
C16   C39   S    
S7    O45   D    
C6    O12   A    
C27   H24   S    
S1    O27   D    
C23   C25   S    
C63   C72   S    
S14   O68   S    
S8    O49   D    
S10   O54   D    
C22   C26   S    
Cr6   O26   S    
S13   O63   D    
C10   I2    S    
C2    O3    A    
C64   C74   S    
C79   H11   S    
C19   C35   S    
C5    O6    A    
C17   C35   T    
C38   O15   A    
C48   C66   S    
C41   O18   A    
Cr2   O25   S    
Cr6   O18   S    
C15   C33   T    
C25   H17   S    
Cr6   O6    S    
C19   C79   S    
C23   C31   S    
S7    O46   D    
S16   O74   S    
