data_mof_unit_22504.cif
_audit_creation_date              2012-10-26T17:12:34-0400
_audit_creation_method            fapswitch 2.2
_symmetry_space_group_name_H-M    P1
_symmetry_Int_Tables_number       1
_space_group_crystal_system       triclinic
_cell_length_a                    16.856406
_cell_length_b                    16.70294
_cell_length_c                    16.776998
_cell_angle_alpha                 67.821837
_cell_angle_beta                  67.729876
_cell_angle_gamma                 67.786284
_cell_volume                      3892.65152848

loop_
_atom_site_label
_atom_site_type_symbol
_atom_type_description
_atom_site_fract_x
_atom_site_fract_y
_atom_site_fract_z
_atom_type_partial_charge
C1    C     C_R   0.028680 0.827954 0.564570 0.791447
C2    C     C_R   0.987202 0.168432 0.430165 0.820957
C3    C     C_R   0.831235 0.569504 0.014327 0.820548
C4    C     C_R   0.168484 0.430044 0.985577 0.815836
C5    C     C_R   0.564739 0.027793 0.828515 0.804456
C6    C     C_R   0.430386 0.985895 0.168628 0.812269
C7    C     C_R   0.435750 0.171455 0.970093 0.791320
C8    C     C_R   0.564892 0.828260 0.027182 0.818536
C9    C     C_R   0.975767 0.434420 0.171526 0.808130
C10   C     C_R   0.028602 0.564343 0.828112 0.810885
C11   C     C_R   0.171260 0.973236 0.434890 0.786227
C12   C     C_R   0.829947 0.017980 0.568122 0.824092
C13   C     C_R   0.452269 0.074029 0.705505 -0.340818
C14   C     C_R   0.496843 0.058906 0.262900 -0.337678
C15   C     C_R   0.096753 0.701442 0.448665 -0.337195
C16   C     C_R   0.080147 0.251962 0.487103 -0.319935
C17   C     C_R   0.734620 0.492337 0.955471 -0.327385
C18   C     C_R   0.267008 0.485076 0.064091 -0.318073
C19   C     C_R   0.293139 0.946021 0.542819 -0.310662
C20   C     C_R   0.721259 0.987017 0.477313 -0.297708
C21   C     C_R   0.538930 0.310140 0.904411 -0.263338
C22   C     C_R   0.457520 0.701864 0.063320 -0.310271
C23   C     C_R   0.980565 0.538847 0.285110 -0.287133
C24   C     C_R   0.081309 0.446496 0.705052 -0.337816
C25   C     C_R   0.536792 0.030816 0.544091 -0.139374
C26   C     C_R   0.439130 0.015717 0.449474 -0.164147
C27   C     C_R   0.076446 0.528063 0.527813 -0.126873
C28   C     C_R   0.049008 0.438672 0.431721 -0.132797
C29   C     C_R   0.548555 0.546331 0.004081 -0.103696
C30   C     C_R   0.452359 0.449123 0.988741 -0.125880
C31   C     C_R   0.576043 0.024824 0.455465 -0.021561
C32   C     C_R   0.404826 0.005144 0.542760 -0.028494
C33   C     C_R   0.079353 0.435719 0.564666 -0.010659
C34   C     C_R   0.048743 0.530416 0.394221 -0.045553
C35   C     C_R   0.454016 0.572521 0.031962 -0.025705
C36   C     C_R   0.545918 0.428743 0.951237 -0.063705
C37   C     C_R   0.520513 0.037423 0.404099 -0.017858
C38   C     C_R   0.446440 0.031276 0.585187 -0.002302
C39   C     C_R   0.406928 0.516503 0.034369 -0.030953
C40   C     C_R   0.595116 0.471033 0.968096 -0.030408
C41   C     C_R   0.078160 0.388671 0.509572 -0.020898
C42   C     C_R   0.077543 0.569789 0.437018 -0.037058
C43   C     C_R   0.401057 0.060751 0.663589 0.523976
C44   C     C_R   0.543591 0.069059 0.310040 0.526844
C45   C     C_R   0.106857 0.648714 0.395066 0.483264
C46   C     C_R   0.107376 0.294127 0.526212 0.514284
C47   C     C_R   0.688722 0.439596 0.953049 0.437013
C48   C     C_R   0.316855 0.521057 0.084863 0.543180
C49   C     C_R   0.336479 0.961589 0.590002 0.542698
C50   C     C_R   0.669355 0.992951 0.426276 0.484135
C51   C     C_R   0.584941 0.368198 0.896334 0.518251
C52   C     C_R   0.409932 0.655755 0.053292 0.446621
C53   C     C_R   0.010903 0.580759 0.321524 0.471189
C54   C     C_R   0.078658 0.396160 0.656003 0.503156
C55   C     C_R   0.546516 0.048760 0.677255 0.030086
C56   C     C_R   0.427759 0.016157 0.307890 0.017609
C57   C     C_R   0.069745 0.671617 0.542547 0.021725
C58   C     C_R   0.030469 0.302293 0.424322 0.007954
C59   C     C_R   0.690585 0.565584 0.992661 0.025173
C60   C     C_R   0.309576 0.427627 0.008385 0.005205
C61   C     C_R   0.317039 0.971584 0.448279 0.011535
C62   C     C_R   0.682605 0.014961 0.557085 0.016983
C63   C     C_R   0.447994 0.324795 0.948827 -0.004263
C64   C     C_R   0.551193 0.676289 0.038695 0.017311
C65   C     C_R   0.991933 0.445033 0.313419 0.014451
C66   C     C_R   0.066549 0.540606 0.673160 0.022620
C67   C     C_R   0.599744 0.040299 0.730333 -0.097051
C68   C     C_R   0.388827 0.990444 0.262603 -0.091742
C69   C     C_R   0.048063 0.727992 0.598150 -0.095829
C70   C     C_R   0.995333 0.261674 0.388687 -0.091073
C71   C     C_R   0.736946 0.609173 0.011873 -0.096901
C72   C     C_R   0.262541 0.388439 0.986065 -0.093935
C73   C     C_R   0.267583 0.966947 0.398340 -0.093222
C74   C     C_R   0.733408 0.021810 0.605137 -0.101859
C75   C     C_R   0.398148 0.269221 0.957157 -0.098244
C76   C     C_R   0.601368 0.730168 0.035939 -0.101999
C77   C     C_R   0.974933 0.398283 0.267519 -0.100969
C78   C     C_R   0.047645 0.596812 0.728756 -0.094323
C79   C     C_R   0.690933 0.032193 0.691549 -0.275752
C80   C     C_R   0.307204 0.970021 0.307893 -0.282156
C81   C     C_R   0.038190 0.689037 0.689878 -0.281086
C82   C     C_R   0.970777 0.309826 0.309499 -0.277124
C83   C     C_R   0.692081 0.692449 0.029555 -0.278800
C84   C     C_R   0.306739 0.305991 0.966065 -0.267682
C85   C     C_R   0.588713 0.032430 0.592548 0.066061
C86   C     C_R   0.394461 0.001210 0.401856 0.058616
C87   C     C_R   0.070906 0.580008 0.581466 0.063926
C88   C     C_R   0.023122 0.395559 0.390067 0.057202
C89   C     C_R   0.596715 0.595700 0.012459 0.063256
C90   C     C_R   0.403386 0.401035 0.981225 0.056034
Cu1   Cu    Cu3+1 0.995180 0.995180 0.424630 0.926928
Cu2   Cu    Cu3+1 0.004820 0.004820 0.575370 0.955566
Cu3   Cu    Cu3+1 0.995180 0.424630 0.995180 0.900902
Cu4   Cu    Cu3+1 0.004820 0.575370 0.004820 0.948384
Cu5   Cu    Cu3+1 0.424630 0.995180 0.995180 0.908122
Cu6   Cu    Cu3+1 0.575370 0.004820 0.004820 0.945402
H1    H     H_    0.419501 0.106293 0.758498 0.168931
H2    H     H_    0.514733 0.087251 0.191279 0.189055
H3    H     H_    0.115117 0.763425 0.415815 0.180681
H4    H     H_    0.104983 0.179638 0.501369 0.194353
H5    H     H_    0.805517 0.474144 0.925702 0.186363
H6    H     H_    0.197143 0.493961 0.100302 0.182146
H7    H     H_    0.244212 0.908811 0.581966 0.179204
H8    H     H_    0.790902 0.954209 0.455104 0.189982
H9    H     H_    0.571916 0.260462 0.866904 0.173365
H10   H     H_    0.418353 0.757786 0.091413 0.187949
H11   H     H_    0.944385 0.583420 0.236766 0.191218
H12   H     H_    0.094580 0.408533 0.768711 0.188936
H13   H     H_    0.730265 0.030660 0.730615 0.189430
H14   H     H_    0.272602 0.959176 0.271657 0.184866
H15   H     H_    0.020318 0.731944 0.732423 0.187188
H16   H     H_    0.951678 0.276733 0.277917 0.183397
H17   H     H_    0.729039 0.729789 0.035454 0.187151
H18   H     H_    0.269171 0.268545 0.961317 0.184954
O1    O     O_R   0.124540 0.978640 0.385460 -0.594824
O2    O     O_R   0.875460 0.021360 0.614540 -0.577149
O3    O     O_R   0.978640 0.385460 0.124540 -0.581846
O4    O     O_R   0.021360 0.614540 0.875460 -0.581565
O5    O     O_R   0.385460 0.124540 0.978640 -0.591417
O6    O     O_R   0.614540 0.875460 0.021360 -0.576613
O7    O     O_R   0.614540 0.021360 0.875460 -0.581573
O8    O     O_R   0.385460 0.978640 0.124540 -0.589273
O9    O     O_R   0.875460 0.614540 0.021360 -0.584180
O10   O     O_R   0.124540 0.385460 0.978640 -0.594671
O11   O     O_R   0.021360 0.875460 0.614540 -0.586218
O12   O     O_R   0.978640 0.124540 0.385460 -0.578847
O13   O     O_R   0.013780 0.867370 0.487190 -0.600476
O14   O     O_R   0.986220 0.132630 0.512810 -0.583142
O15   O     O_R   0.867370 0.487190 0.013780 -0.605116
O16   O     O_R   0.132630 0.512810 0.986220 -0.584016
O17   O     O_R   0.487190 0.013780 0.867370 -0.597485
O18   O     O_R   0.512810 0.986220 0.132630 -0.591976
O19   O     O_R   0.512810 0.132630 0.986220 -0.589303
O20   O     O_R   0.487190 0.867370 0.013780 -0.593095
O21   O     O_R   0.986220 0.512810 0.132630 -0.596632
O22   O     O_R   0.013780 0.487190 0.867370 -0.611865
O23   O     O_R   0.132630 0.986220 0.512810 -0.595395
O24   O     O_R   0.867370 0.013780 0.487190 -0.590529
O25   O     O_3   0.307641 0.085222 0.687878 -0.552593
C91   C     C_3   0.263250 0.101637 0.772991 0.154138
H19   H     H_    0.191038 0.128825 0.777309 0.201584
H20   H     H_    0.280313 0.155766 0.780695 0.098597
C92   C     C_3   0.273727 0.015415 0.849700 -0.824566
H21   H     H_    0.344274 0.984143 0.850800 0.248767
H22   H     H_    0.234209 0.031228 0.914571 0.192051
H23   H     H_    0.248775 0.966442 0.842634 0.271705
O26   O     O_3   0.612309 0.109527 0.263555 -0.545505
C93   C     C_3   0.576945 0.204172 0.239699 0.054870
H24   H     H_    0.511712 0.227410 0.224143 0.121471
H25   H     H_    0.624276 0.232452 0.177507 0.173129
C94   C     C_3   0.568578 0.242757 0.312615 -0.838130
H26   H     H_    0.632634 0.217370 0.330205 0.266806
H27   H     H_    0.551561 0.317243 0.288343 0.215292
H28   H     H_    0.515102 0.223217 0.373317 0.233059
O27   O     O_3   0.144603 0.672736 0.302765 -0.525605
C95   C     C_3   0.223226 0.699386 0.278473 0.111111
H29   H     H_    0.276894 0.660036 0.233815 0.233327
H30   H     H_    0.250259 0.685254 0.335075 0.083699
C96   C     C_3   0.208453 0.798509 0.226648 -0.765521
H31   H     H_    0.156724 0.841628 0.269139 0.218327
H32   H     H_    0.271553 0.817512 0.203688 0.198242
H33   H     H_    0.186662 0.810905 0.167413 0.278267
O28   O     O_3   0.173250 0.243030 0.569299 -0.524983
C97   C     C_3   0.258006 0.246338 0.507459 0.104830
H34   H     H_    0.257525 0.279410 0.435845 0.092562
H35   H     H_    0.299897 0.176448 0.510512 0.182666
C98   C     C_3   0.302398 0.293430 0.533438 -0.791964
H36   H     H_    0.300657 0.264296 0.605284 0.270127
H37   H     H_    0.372936 0.285062 0.492522 0.192780
H38   H     H_    0.267550 0.366306 0.521138 0.228609
O29   O     O_3   0.735844 0.356445 0.936793 -0.551080
C99   C     C_3   0.780077 0.300082 0.003452 0.058508
H39   H     H_    0.738765 0.307742 0.071500 0.135031
H40   H     H_    0.844238 0.315020 0.987364 0.143071
C100  C     C_3   0.800258 0.202700 0.005437 -0.765857
H41   H     H_    0.843473 0.191909 0.939289 0.241108
H42   H     H_    0.835181 0.157538 0.057432 0.207299
H43   H     H_    0.737193 0.185873 0.021369 0.254785
O30   O     O_3   0.279619 0.552737 0.159918 -0.536747
C101  C     C_3   0.281728 0.479249 0.238038 0.072709
H44   H     H_    0.264023 0.422368 0.235767 0.123447
H45   H     H_    0.230667 0.502956 0.295378 0.196834
C102  C     C_3   0.371931 0.445774 0.257709 -0.901418
H46   H     H_    0.390540 0.502772 0.257852 0.252013
H47   H     H_    0.368129 0.395803 0.324368 0.221411
H48   H     H_    0.424228 0.412810 0.206619 0.244483
O31   O     O_3   0.315039 0.928817 0.682351 -0.555413
C103  C     C_3   0.357577 0.835501 0.707385 0.031612
H49   H     H_    0.371681 0.799959 0.656909 0.123157
H50   H     H_    0.312012 0.803952 0.769029 0.161963
C104  C     C_3   0.443668 0.819176 0.728608 -0.843368
H51   H     H_    0.430871 0.856016 0.777113 0.256311
H52   H     H_    0.470491 0.746222 0.758314 0.201051
H53   H     H_    0.494285 0.842010 0.666497 0.239560
O32   O     O_3   0.710822 0.960298 0.351600 -0.547096
C105  C     C_3   0.696171 0.875759 0.371565 0.037103
H54   H     H_    0.627703 0.871827 0.413798 0.131577
H55   H     H_    0.743630 0.822240 0.408111 0.124104
C106  C     C_3   0.710185 0.856712 0.284603 -0.751154
H56   H     H_    0.776632 0.862372 0.238461 0.250368
H57   H     H_    0.705511 0.787833 0.298933 0.183982
H58   H     H_    0.658305 0.905638 0.251220 0.260135
O33   O     O_3   0.662999 0.370040 0.827447 -0.541516
C107  C     C_3   0.652749 0.454242 0.761865 0.080519
H59   H     H_    0.690567 0.493232 0.766907 0.163142
H60   H     H_    0.582147 0.496226 0.767768 0.112246
C108  C     C_3   0.690767 0.438724 0.669280 -0.812899
H61   H     H_    0.652302 0.401827 0.662030 0.246066
H62   H     H_    0.686356 0.504292 0.617221 0.198312
H63   H     H_    0.761616 0.398787 0.659120 0.258250
O34   O     O_3   0.320240 0.696483 0.060184 -0.549343
C109  C     C_3   0.309541 0.743597 0.973515 0.059438
H64   H     H_    0.339573 0.698493 0.928601 0.129855
H65   H     H_    0.340504 0.800394 0.943563 0.148510
C110  C     C_3   0.210550 0.781584 0.979902 -0.746191
H66   H     H_    0.179095 0.831042 0.019888 0.237256
H67   H     H_    0.200879 0.815974 0.911974 0.187721
H68   H     H_    0.177554 0.726414 0.012156 0.268518
O35   O     O_3   0.004145 0.671320 0.282518 -0.525318
C111  C     C_3   0.928086 0.722395 0.333086 0.044035
H69   H     H_    0.922234 0.696407 0.406206 0.123900
H70   H     H_    0.867278 0.722197 0.322003 0.133101
C112  C     C_3   0.934961 0.818466 0.302073 -0.694888
H71   H     H_    0.932132 0.849796 0.231547 0.238010
H72   H     H_    0.880032 0.859039 0.345032 0.209074
H73   H     H_    0.998720 0.818988 0.306570 0.258837
O36   O     O_3   0.075560 0.307889 0.698630 -0.557330
C113  C     C_3   0.992398 0.304384 0.763450 0.048535
H74   H     H_    0.967757 0.353283 0.803632 0.139758
H75   H     H_    0.001391 0.236575 0.811761 0.161028
C114  C     C_3   0.921943 0.317288 0.720171 -0.798832
H76   H     H_    0.945242 0.267038 0.682068 0.256005
H77   H     H_    0.859209 0.308428 0.772838 0.268369
H78   H     H_    0.908188 0.385984 0.674148 0.226810

loop_
_geom_bond_atom_site_label_1
_geom_bond_atom_site_label_2
_ccdc_geom_bond_type
C25   C31   A    
C40   C47   A    
C14   C56   A    
O29   C99   S    
C68   C80   A    
Cu3   Cu4   S    
Cu1   O12   S    
C12   C74   S    
C102  H47   S    
C92   H23   S    
C9    O3    A    
C83   H17   S    
C3    C71   S    
Cu5   Cu6   S    
C34   C42   A    
Cu3   O10   S    
C13   C43   A    
C30   C90   A    
Cu3   O22   S    
Cu2   O11   S    
C111  H70   S    
C10   C78   S    
C112  H73   S    
C100  H42   S    
C99   H39   S    
C26   C32   A    
Cu4   O16   S    
Cu1   O13   S    
Cu6   O7    S    
C103  C104  S    
C22   C52   A    
C97   H34   S    
C109  H65   S    
C1    O11   A    
C7    O19   A    
C110  H67   S    
C96   H31   S    
C18   H6    S    
C19   C61   A    
C12   O2    A    
C75   C84   A    
C63   C90   A    
C60   C72   A    
C24   C54   A    
C92   H21   S    
C5    O7    A    
C28   C41   A    
C8    C76   S    
C44   O26   S    
C55   C67   A    
C4    O10   A    
C103  H50   S    
C59   C89   A    
C94   H28   S    
C17   H5    S    
C113  H74   S    
C20   C50   A    
O26   C93   S    
C19   H7    S    
C81   H15   S    
C17   C47   A    
C101  H45   S    
C28   C88   A    
C108  H63   S    
C41   C46   A    
C96   H32   S    
C14   H2    S    
C24   H12   S    
C32   C38   A    
C98   H38   S    
C11   O1    A    
Cu1   Cu2   S    
C101  C102  S    
C5    C67   S    
Cu6   O18   S    
Cu4   O9    S    
C6    C68   S    
C28   C34   A    
C106  H56   S    
C98   H36   S    
Cu4   O4    S    
C94   H27   S    
Cu5   O17   S    
C107  H59   S    
C15   C57   A    
Cu3   O3    S    
C64   C89   A    
C105  C106  S    
Cu3   O15   S    
Cu2   O23   S    
Cu2   O14   S    
C76   C83   A    
C29   C89   A    
C111  H69   S    
C3    O9    A    
C23   C53   A    
C100  H43   S    
C71   C83   A    
C95   C96   S    
C66   C78   A    
C62   C85   A    
C51   O33   S    
C65   C77   A    
C79   H13   S    
C8    O20   A    
C108  H61   S    
C7    O5    A    
C36   C40   A    
C93   C94   S    
C67   C79   A    
C91   H19   S    
C112  H71   S    
C105  H55   S    
C11   C73   S    
C102  H48   S    
C16   C46   A    
O35   C111  S    
C58   C70   A    
C7    C75   S    
C26   C86   A    
Cu5   O5    S    
C56   C68   A    
C22   C64   A    
Cu5   O20   S    
C1    C69   S    
C104  H51   S    
C98   H37   S    
C58   C88   A    
C103  H49   S    
C42   C45   A    
C82   H16   S    
C55   C85   A    
C35   C39   A    
C102  H46   S    
C104  H52   S    
O34   C109  S    
C27   C42   A    
C10   O4    A    
C57   C87   A    
C25   C38   A    
C106  H58   S    
Cu1   O24   S    
C50   O32   S    
C19   C49   A    
C56   C86   A    
O36   C113  S    
C49   O31   S    
C109  C110  S    
C94   H26   S    
C23   H11   S    
C4    C72   S    
C25   C85   A    
Cu4   O21   S    
C64   C76   A    
C96   H33   S    
C114  H77   S    
C9    C77   S    
C10   O22   A    
C93   H24   S    
C91   C92   S    
C27   C87   A    
Cu2   O2    S    
C72   C84   A    
C36   C51   A    
C17   C59   A    
C45   O27   S    
C93   H25   S    
Cu5   O8    S    
C6    O18   A    
C114  H76   S    
C107  H60   S    
C4    O16   A    
C16   C58   A    
C60   C90   A    
C74   C79   A    
C107  C108  S    
C113  H75   S    
C12   O24   A    
C110  H68   S    
C15   C45   A    
C31   C50   A    
C9    O21   A    
C21   C51   A    
C52   O34   S    
C101  H44   S    
C8    O6    A    
C65   C88   A    
C14   C44   A    
C18   C60   A    
C33   C54   A    
C92   H22   S    
C95   H29   S    
C84   H18   S    
C111  C112  S    
C3    O15   A    
Cu6   O6    S    
C97   C98   S    
C16   H4    S    
C1    O13   A    
C91   H20   S    
C105  H54   S    
C39   C48   A    
C18   C48   A    
C47   O29   S    
O25   C91   S    
C112  H72   S    
C26   C37   A    
Cu6   O19   S    
C20   H8    S    
C24   C66   A    
C43   O25   S    
C29   C35   A    
C27   C33   A    
C30   C36   A    
C46   O28   S    
C61   C73   A    
C23   C65   A    
C37   C44   A    
C95   H30   S    
C11   O23   A    
C104  H53   S    
C33   C41   A    
C38   C43   A    
C100  H41   S    
C22   H10   S    
C15   H3    S    
C35   C52   A    
C78   C81   A    
C63   C75   A    
C77   C82   A    
C66   C87   A    
C29   C40   A    
C97   H35   S    
C54   O36   S    
C99   H40   S    
C73   C80   A    
Cu1   O1    S    
C30   C39   A    
C114  H78   S    
C53   O35   S    
C48   O30   S    
C110  H66   S    
C13   H1    S    
C70   C82   A    
C106  H57   S    
C32   C49   A    
C21   C63   A    
O28   C97   S    
C69   C81   A    
C61   C86   A    
C2    O12   A    
C99   C100  S    
O32   C105  S    
C31   C37   A    
C5    O17   A    
C109  H64   S    
C34   C53   A    
C80   H14   S    
O27   C95   S    
C108  H62   S    
O30   C101  S    
C6    O8    A    
C62   C74   A    
O31   C103  S    
O33   C107  S    
C57   C69   A    
C2    C70   S    
C113  C114  S    
C21   H9    S    
C59   C71   A    
C20   C62   A    
C13   C55   A    
C2    O14   A    
