data_mof_unit_28259.cif
_audit_creation_date              2013-03-05T15:51:58-0500
_audit_creation_method            fapswitch 2.2
_symmetry_space_group_name_H-M    P1
_symmetry_Int_Tables_number       1
_space_group_crystal_system       triclinic
_cell_length_a                    23.221809
_cell_length_b                    7.299056
_cell_length_c                    15.096949
_cell_angle_alpha                 90.097286
_cell_angle_beta                  108.149641
_cell_angle_gamma                 89.82442
_cell_volume                      2431.56511517

loop_
_atom_site_label
_atom_site_type_symbol
_atom_site_description
_atom_site_fract_x
_atom_site_fract_y
_atom_site_fract_z
_atom_type_partial_charge
O1    O     O_R   0.711000 0.648610 0.341170 -0.595331
O2    O     O_R   0.289000 0.351390 0.658830 -0.593561
O3    O     O_R   0.789000 0.148610 0.158830 -0.594733
O4    O     O_R   0.211000 0.851390 0.841170 -0.576601
O5    O     O_R   0.829650 0.322030 0.336650 -0.580418
O6    O     O_R   0.170350 0.677970 0.663350 -0.581757
O7    O     O_R   0.670350 0.822030 0.163350 -0.574985
O8    O     O_R   0.329650 0.177970 0.836650 -0.588112
C1    C     C_R   0.854351 0.485634 0.356534 1.022063
C2    C     C_R   0.145649 0.514364 0.643465 1.021992
C3    C     C_R   0.645676 0.985917 0.143387 1.016422
C4    C     C_R   0.354350 0.014114 0.856521 1.021601
O9    O     O_R   0.713950 0.319280 0.352070 -0.576322
O10   O     O_R   0.286050 0.680720 0.647930 -0.577546
O11   O     O_R   0.786050 0.819280 0.147930 -0.572170
O12   O     O_R   0.213950 0.180720 0.852070 -0.591612
O13   O     O_R   0.672470 0.142870 0.174360 -0.594287
O14   O     O_R   0.327530 0.857130 0.825640 -0.581483
O15   O     O_R   0.827530 0.642870 0.325640 -0.589119
O16   O     O_R   0.172470 0.357130 0.674360 -0.588123
C5    C     C_R   0.702203 0.487995 0.376630 1.006865
C6    C     C_R   0.297908 0.512189 0.623484 1.009734
C7    C     C_R   0.797677 0.987411 0.123260 1.007316
C8    C     C_R   0.202238 0.012554 0.876663 1.011218
O17   O     O_3   0.736530 0.478650 0.191680 -0.284749
O18   O     O_3   0.263470 0.521350 0.808320 -0.282235
O19   O     O_3   0.763470 0.978650 0.308320 -0.284736
O20   O     O_3   0.236530 0.021350 0.691680 -0.285311
V1    V     V_3+5 0.752500 0.206170 0.260820 1.244969
V2    V     V_3+5 0.247500 0.793830 0.739180 1.255900
V3    V     V_3+5 0.747500 0.706170 0.239180 1.250974
V4    V     V_3+5 0.252500 0.293830 0.760820 1.242838
C9    C     C_R   0.826095 0.995697 0.049333 -0.257809
C10   C     C_R   0.174175 0.003931 0.951017 -0.261811
C11   C     C_R   0.674459 0.499867 0.451345 -0.258744
C12   C     C_R   0.326308 0.502920 0.549447 -0.262791
C13   C     C_R   0.822631 0.030927 0.888753 -0.145298
C14   C     C_R   0.178432 0.990771 0.112819 -0.147406
C15   C     C_R   0.677137 0.583237 0.607560 -0.154988
C16   C     C_R   0.323748 0.446377 0.390592 -0.151795
C17   C     C_R   0.791901 0.010196 0.954488 0.321034
C18   C     C_R   0.208752 0.998111 0.045992 0.329329
C19   C     C_R   0.707731 0.556361 0.542027 0.335871
C20   C     C_R   0.292998 0.460523 0.456653 0.333472
C21   C     C_R   0.889321 0.995489 0.076204 -0.236384
C22   C     C_R   0.110957 0.007285 0.924941 -0.240282
C23   C     C_R   0.611904 0.474547 0.427461 -0.242471
C24   C     C_R   0.388997 0.526969 0.574752 -0.236404
C25   C     C_R   0.921073 0.010932 0.010367 0.135305
C26   C     C_R   0.079749 0.005452 0.991822 0.135888
C27   C     C_R   0.579891 0.510276 0.491548 0.135727
C28   C     C_R   0.420935 0.511053 0.509063 0.135482
C29   C     C_R   0.886440 0.036363 0.915304 -0.074266
C30   C     C_R   0.114659 0.987163 0.087132 -0.075188
C31   C     C_R   0.614068 0.556629 0.584489 -0.071274
C32   C     C_R   0.386734 0.475776 0.414657 -0.075432
C33   C     C_R   0.985886 0.002352 0.036250 0.030360
C34   C     C_R   0.015111 0.019266 0.966524 0.029942
C35   C     C_R   0.515148 0.502403 0.465624 0.028839
C36   C     C_R   0.485592 0.526817 0.534569 0.031338
C37   C     C_R   0.979029 0.054896 0.873926 -0.291251
C38   C     C_R   0.022327 0.974511 0.129503 -0.291899
C39   C     C_R   0.521649 0.565288 0.626925 -0.289094
C40   C     C_R   0.479030 0.478488 0.372016 -0.293214
C41   C     C_R   0.916028 0.064245 0.848009 0.354519
C42   C     C_R   0.085366 0.967443 0.155341 0.357096
C43   C     C_R   0.584521 0.580305 0.652231 0.349928
C44   C     C_R   0.416082 0.467352 0.345979 0.356569
H1    H     H_    0.087572 0.007951 0.851110 0.123391
H2    H     H_    0.912057 0.985252 0.149941 0.120749
H3    H     H_    0.411265 0.554876 0.647355 0.120700
H4    H     H_    0.589619 0.428068 0.357405 0.125421
H5    H     H_    0.795991 0.038218 0.815997 0.209482
H6    H     H_    0.205415 0.987385 0.185479 0.211280
H7    H     H_    0.703263 0.627569 0.676712 0.207520
H8    H     H_    0.297766 0.410869 0.319921 0.210672
H9    H     H_    0.998530 0.084152 0.819561 0.168588
H10   H     H_    0.003404 0.953436 0.185171 0.168604
H11   H     H_    0.502632 0.583995 0.682704 0.168178
H12   H     H_    0.498171 0.476584 0.315667 0.169631
C45   C     C_1   0.416824 0.006698 0.918531 -0.218511
C46   C     C_1   0.583214 0.993339 0.081336 -0.221239
C47   C     C_1   0.083182 0.507305 0.581419 -0.217554
C48   C     C_1   0.916819 0.492682 0.418578 -0.217161
C49   C     C_1   0.469180 0.002263 0.969835 0.112741
C50   C     C_1   0.530863 0.997759 0.030012 0.113090
C51   C     C_1   0.030837 0.502553 0.530095 0.111273
C52   C     C_1   0.969164 0.497425 0.469903 0.111532
N1    N     N_R   0.883018 0.108871 0.752912 0.247292
O21   O     O_R   0.898560 0.035040 0.685165 -0.333702
O22   O     O_R   0.845337 0.246363 0.734676 -0.336620
N2    N     N_R   0.118685 0.931950 0.251383 0.247785
O23   O     O_R   0.103276 0.013899 0.317271 -0.332622
O24   O     O_R   0.156156 0.794153 0.272966 -0.338494
N3    N     N_R   0.617668 0.615147 0.748397 0.243951
O25   O     O_R   0.597520 0.735508 0.795298 -0.330978
O26   O     O_R   0.660816 0.504183 0.793340 -0.330072
N4    N     N_R   0.382665 0.453492 0.248396 0.248347
O27   O     O_R   0.402877 0.350004 0.194246 -0.339619
O28   O     O_R   0.339266 0.569409 0.210738 -0.334586
N5    N     N_R   0.274113 0.997622 0.076152 0.250255
O29   O     O_R   0.304297 0.054304 0.159432 -0.322603
O30   O     O_R   0.303887 0.923521 0.025146 -0.393803
N6    N     N_R   0.726532 0.006040 0.923514 0.244809
O31   O     O_R   0.696107 0.078371 0.843870 -0.314763
O32   O     O_R   0.697049 0.916075 0.969829 -0.380483
N7    N     N_R   0.228387 0.432103 0.428015 0.250428
O33   O     O_R   0.202306 0.331490 0.355397 -0.328356
O34   O     O_R   0.194479 0.520788 0.467876 -0.388500
N8    N     N_R   0.772244 0.585737 0.569044 0.249325
O35   O     O_R   0.798246 0.697168 0.637056 -0.330796
O36   O     O_R   0.806177 0.488090 0.532795 -0.386180

loop_
_geom_bond_atom_site_label_1
_geom_bond_atom_site_label_2
_geom_bond_distance
_ccdc_geom_bond_type
O17   V3    1.794919 S    
C47   C51   1.221697 T    
C51   C52   1.437936 S    
O1    C5    1.332075 A    
N5    O29   1.301605 A    
O19   V1    1.795727 S    
C9    C21   1.396128 A    
O3    C7    1.333107 A    
N3    O25   1.301465 A    
C10   C18   1.408956 A    
O4    V2    2.018514 S    
O15   V3    1.963813 S    
N6    O32   1.300551 A    
C25   C33   1.433520 A    
C33   C38   1.413187 A    
C39   H11   1.074106 S    
C49   C50   1.437793 S    
O18   V4    1.794921 S    
C35   C40   1.411622 A    
C26   C30   1.420810 A    
C36   C39   1.413075 A    
C40   C44   1.393031 A    
O9    V1    2.034863 S    
C14   C18   1.399787 A    
O16   V4    1.963810 S    
O4    C8    1.332897 A    
C2    C47   1.462212 S    
O1    V3    2.020683 S    
O13   V1    1.965448 S    
O2    V4    2.020686 S    
O3    V1    2.018517 S    
N8    O35   1.301655 A    
C22   H1    1.077131 S    
C28   C36   1.434086 A    
C1    O15   1.318741 A    
C15   C31   1.409867 A    
C37   H9    1.075642 S    
C7    C9    1.464276 S    
O2    C6    1.333205 A    
N7    O33   1.301669 A    
C10   C22   1.396580 A    
C19   N8    1.441415 S    
C15   H7    1.080801 S    
N1    O22   1.301563 A    
C11   C19   1.407927 A    
C16   C20   1.399311 A    
O5    V1    1.990894 S    
C13   C29   1.410006 A    
C34   C37   1.412134 A    
O11   C7    1.335611 A    
C11   C23   1.396225 A    
C35   C36   1.424734 A    
O12   C8    1.336026 A    
C42   N2    1.438484 S    
C43   N3    1.438284 S    
C40   H12   1.075605 S    
O10   V2    2.034865 S    
N6    O31   1.301642 A    
O7    C3    1.318907 A    
C44   N4    1.438923 S    
C3    C46   1.462031 S    
C39   C43   1.393883 A    
O7    V3    1.987876 S    
C38   C42   1.393421 A    
O8    V4    1.987880 S    
C2    O16   1.318727 A    
C23   C27   1.415193 A    
C16   C32   1.409952 A    
C46   C50   1.221606 T    
C8    C10   1.464557 S    
C16   H8    1.080968 S    
C26   C34   1.432170 A    
C41   N1    1.438503 S    
O5    C1    1.319411 A    
C31   C43   1.407967 A    
C14   C30   1.409485 A    
C21   C25   1.414821 A    
O8    C4    1.318792 A    
N2    O24   1.301555 A    
O9    C5    1.337084 A    
O14   V2    1.965450 S    
O6    V2    1.990892 S    
N4    O28   1.301602 A    
C12   C20   1.407669 A    
C27   C35   1.432048 A    
C24   H3    1.075666 S    
C18   N5    1.442376 S    
C29   C41   1.407878 A    
C14   H6    1.080891 S    
C20   N7    1.441724 S    
C13   H5    1.081049 S    
C3    O13   1.318904 A    
C21   H2    1.075841 S    
C38   H10   1.074243 S    
C48   C52   1.221696 T    
O6    C2    1.319429 A    
C15   C19   1.399423 A    
N3    O26   1.301409 A    
O11   V3    2.038984 S    
C30   C42   1.407601 A    
O12   V4    2.038985 S    
C6    C12   1.465467 S    
C22   C26   1.414514 A    
C17   N6    1.442853 S    
C9    C17   1.408417 A    
O10   C6    1.336009 A    
O20   V2    1.795729 S    
C5    C11   1.465256 S    
C32   C44   1.408196 A    
C33   C34   1.424752 A    
N7    O34   1.300745 A    
C25   C29   1.421920 A    
N2    O23   1.301399 A    
C4    C45   1.462052 S    
C12   C24   1.396718 A    
C27   C31   1.421046 A    
C13   C17   1.399778 A    
N8    O36   1.300870 A    
C23   H4    1.077197 S    
C1    C48   1.462213 S    
C37   C41   1.393195 A    
C24   C28   1.415745 A    
N5    O30   1.300581 A    
N4    O27   1.301523 A    
C4    O14   1.319030 A    
N1    O21   1.301406 A    
C45   C49   1.221605 T    
C28   C32   1.422390 A    
