data_mof_unit_31412.cif
_audit_creation_date              2012-12-11T15:33:43-0500
_audit_creation_method            fapswitch 2.2
_symmetry_space_group_name_H-M    P1
_symmetry_Int_Tables_number       1
_space_group_crystal_system       triclinic
_cell_length_a                    27.049859
_cell_length_b                    7.210193
_cell_length_c                    22.759341
_cell_angle_alpha                 89.996358
_cell_angle_beta                  101.237948
_cell_angle_gamma                 89.997891
_cell_volume                      4353.75190512

loop_
_atom_site_label
_atom_site_type_symbol
_atom_type_description
_atom_site_fract_x
_atom_site_fract_y
_atom_site_fract_z
_atom_type_partial_charge
O1    O     O_R   0.207310 0.594030 0.676830 -0.528761
O2    O     O_R   0.792690 0.405970 0.323170 -0.528761
O3    O     O_R   0.292690 0.094030 0.823170 -0.528751
O4    O     O_R   0.707310 0.905970 0.176830 -0.528751
O5    O     O_R   0.197320 0.262370 0.795700 -0.536629
O6    O     O_R   0.802680 0.737630 0.204300 -0.536629
O7    O     O_R   0.302680 0.762370 0.704300 -0.536630
O8    O     O_R   0.697320 0.237630 0.295700 -0.536630
C1    C     C_R   0.185041 0.432550 0.812324 0.695791
C2    C     C_R   0.814959 0.567450 0.187675 0.695791
C3    C     C_R   0.314959 0.932552 0.687676 0.695797
C4    C     C_R   0.685041 0.067448 0.312324 0.695797
O9    O     O_R   0.201410 0.264250 0.675590 -0.536177
O10   O     O_R   0.798590 0.735750 0.324410 -0.536177
O11   O     O_R   0.298590 0.764250 0.824410 -0.536195
O12   O     O_R   0.701410 0.235750 0.175590 -0.536195
O13   O     O_R   0.296810 0.094940 0.702210 -0.539690
O14   O     O_R   0.703190 0.905060 0.297790 -0.539691
O15   O     O_R   0.203190 0.594940 0.797790 -0.539688
O16   O     O_R   0.796810 0.405060 0.202210 -0.539688
C5    C     C_R   0.189782 0.432465 0.653404 0.702446
C6    C     C_R   0.810217 0.567535 0.346596 0.702446
C7    C     C_R   0.310218 0.932449 0.846596 0.702446
C8    C     C_R   0.689782 0.067551 0.153403 0.702445
O17   O     O_3   0.281300 0.427390 0.758870 -0.373705
O18   O     O_3   0.718700 0.572610 0.241130 -0.373705
O19   O     O_3   0.218700 0.927390 0.741130 -0.373700
O20   O     O_3   0.781300 0.072610 0.258870 -0.373700
V1    V     V_3+5 0.244190 0.152150 0.748350 1.440921
V2    V     V_3+5 0.755810 0.847850 0.251650 1.440921
V3    V     V_3+5 0.255810 0.652150 0.751650 1.440914
V4    V     V_3+5 0.744190 0.347850 0.248350 1.440913
C9    C     C_R   0.655211 0.063089 0.094579 -0.095940
C10   C     C_R   0.344789 0.936911 0.905421 -0.095939
C11   C     C_R   0.844786 0.563002 0.405419 -0.095925
C12   C     C_R   0.155214 0.436998 0.594581 -0.095926
C13   C     C_R   0.640931 0.129010 0.988178 0.271194
C14   C     C_R   0.359069 0.870990 0.011821 0.271194
C15   C     C_R   0.859028 0.628317 0.511852 0.271202
C16   C     C_R   0.140972 0.371683 0.488148 0.271203
C17   C     C_R   0.672604 0.123378 0.044364 -0.159689
C18   C     C_R   0.327396 0.876622 0.955636 -0.159689
C19   C     C_R   0.827365 0.622884 0.455658 -0.159770
C20   C     C_R   0.172635 0.377116 0.544342 -0.159770
C21   C     C_R   0.604315 0.016806 0.089406 -0.205710
C22   C     C_R   0.395685 0.983194 0.910594 -0.205710
C23   C     C_R   0.895697 0.516946 0.410579 -0.205717
C24   C     C_R   0.104303 0.483054 0.589421 -0.205717
C25   C     C_R   0.569691 0.030158 0.033596 0.059463
C26   C     C_R   0.430309 0.969842 0.966404 0.059463
C27   C     C_R   0.930307 0.530093 0.466403 0.059461
C28   C     C_R   0.069693 0.469907 0.533597 0.059461
C29   C     C_R   0.589286 0.073883 0.981188 0.015237
C30   C     C_R   0.410714 0.926117 0.018812 0.015237
C31   C     C_R   0.910689 0.573385 0.518827 0.015199
C32   C     C_R   0.089311 0.426615 0.481173 0.015199
C33   C     C_R   0.516365 0.000534 0.028600 0.075247
C34   C     C_R   0.483635 0.999466 0.971400 0.075247
C35   C     C_R   0.983640 0.500658 0.471397 0.075241
C36   C     C_R   0.016360 0.499342 0.528603 0.075240
C37   C     C_R   0.505430 0.020616 0.920503 -0.225339
C38   C     C_R   0.494569 0.979384 0.079497 -0.225339
C39   C     C_R   0.994548 0.520065 0.579503 -0.225350
C40   C     C_R   0.005452 0.479935 0.420497 -0.225350
C41   C     C_R   0.556559 0.058317 0.924518 -0.071414
C42   C     C_R   0.443441 0.941683 0.075482 -0.071414
C43   C     C_R   0.943409 0.557585 0.575495 -0.071430
C44   C     C_R   0.056591 0.442415 0.424505 -0.071430
H1    H     H_    0.406865 0.029208 0.870080 0.108402
H2    H     H_    0.593135 0.970792 0.129920 0.108402
H3    H     H_    0.093104 0.528770 0.629954 0.108367
H4    H     H_    0.906896 0.471230 0.370046 0.108367
H5    H     H_    0.288515 0.832232 0.950913 0.153268
H6    H     H_    0.711485 0.167768 0.049086 0.153268
H7    H     H_    0.211531 0.332906 0.549050 0.153272
H8    H     H_    0.788469 0.667094 0.450950 0.153272
H9    H     H_    0.483450 0.002917 0.875971 0.122918
H10   H     H_    0.516550 0.997083 0.124029 0.122918
H11   H     H_    0.016524 0.502157 0.624029 0.122926
H12   H     H_    0.983476 0.497843 0.375971 0.122926
C45   C     C_R   0.644141 0.892590 0.385542 -0.162540
C46   C     C_R   0.355858 0.107410 0.614458 -0.162540
C47   C     C_R   0.855857 0.392607 0.114458 -0.162528
C48   C     C_R   0.144143 0.607393 0.885542 -0.162528
H13   H     H_    0.669714 0.778272 0.383395 0.153236
H14   H     H_    0.330286 0.221728 0.616605 0.153236
H15   H     H_    0.830283 0.278298 0.116605 0.153240
H16   H     H_    0.169716 0.721702 0.883394 0.153240
C49   C     C_R   0.608611 0.874637 0.422550 0.296480
C50   C     C_R   0.391389 0.125363 0.577449 0.296480
C51   C     C_R   0.891387 0.374653 0.077449 0.296479
C52   C     C_R   0.108613 0.625346 0.922551 0.296479
C53   C     C_R   0.574345 0.020554 0.426426 -0.045344
C54   C     C_R   0.425654 0.979446 0.573573 -0.045344
C55   C     C_R   0.925654 0.520558 0.073573 -0.045346
C56   C     C_R   0.074346 0.479442 0.926427 -0.045346
C57   C     C_R   0.577094 0.181725 0.392122 -0.105295
C58   C     C_R   0.422906 0.818275 0.607878 -0.105295
C59   C     C_R   0.922906 0.681718 0.107876 -0.105295
C60   C     C_R   0.077094 0.318282 0.892124 -0.105295
H17   H     H_    0.551373 0.295832 0.393786 0.183797
H18   H     H_    0.448627 0.704168 0.606214 0.183797
H19   H     H_    0.948627 0.795816 0.106212 0.183795
H20   H     H_    0.051372 0.204184 0.893788 0.183795
C61   C     C_R   0.613269 0.199423 0.355843 -0.131752
C62   C     C_R   0.386730 0.800577 0.644157 -0.131751
C63   C     C_R   0.886731 0.699416 0.144156 -0.131754
C64   C     C_R   0.113269 0.300584 0.855844 -0.131754
H21   H     H_    0.614255 0.325752 0.330357 0.142917
H22   H     H_    0.385745 0.674248 0.669643 0.142917
H23   H     H_    0.885746 0.825736 0.169641 0.142916
H24   H     H_    0.114254 0.174264 0.830359 0.142916
C65   C     C_R   0.647081 0.054382 0.351775 -0.103643
C66   C     C_R   0.352919 0.945618 0.648225 -0.103643
C67   C     C_R   0.852919 0.554387 0.148225 -0.103638
C68   C     C_R   0.147081 0.445613 0.851775 -0.103638
N1    N     N_R   0.490599 0.097492 0.448683 -0.250440
N2    N     N_R   0.509401 0.902508 0.551317 -0.250440
N3    N     N_R   0.009400 0.597484 0.051314 -0.250443
N4    N     N_R   0.990600 0.402516 0.948686 -0.250443
N5    N     N_R   0.455849 0.088203 0.482909 -0.185893
N6    N     N_R   0.544151 0.911797 0.517091 -0.185893
N7    N     N_R   0.044150 0.588193 0.017088 -0.185894
N8    N     N_R   0.955850 0.411807 0.982912 -0.185894
C69   C     C_R   0.464492 0.991329 0.535157 0.555109
C70   C     C_R   0.535508 0.008671 0.464843 0.555109
C71   C     C_R   0.035508 0.491326 0.964843 0.555103
C72   C     C_R   0.964492 0.508674 0.035157 0.555103
C73   C     C_1   0.573613 0.062552 0.868167 0.413466
N9    N     N_1   0.586516 0.064584 0.822559 -0.238527
C74   C     C_1   0.426386 0.937448 0.131833 0.413466
N10   N     N_1   0.413484 0.935416 0.177440 -0.238527
C75   C     C_1   0.926341 0.561377 0.631841 0.413434
N11   N     N_1   0.913428 0.563054 0.677444 -0.238509
C76   C     C_1   0.073659 0.438623 0.368159 0.413434
N12   N     N_1   0.086571 0.436946 0.322556 -0.238510
Br1   Br    Br    0.672020 0.236252 0.926852 -0.422160
Br2   Br    Br    0.327980 0.763748 0.073148 -0.422160
Br3   Br    Br    0.827897 0.735007 0.573226 -0.422022
Br4   Br    Br    0.172103 0.264993 0.426773 -0.422023
Br5   Br    Br    0.607659 0.641739 0.463333 -0.471217
Br6   Br    Br    0.392341 0.358261 0.536667 -0.471217
Br7   Br    Br    0.892337 0.141769 0.036669 -0.471230
Br8   Br    Br    0.107663 0.858231 0.963331 -0.471230

loop_
_geom_bond_atom_site_label_1
_geom_bond_atom_site_label_2
_ccdc_geom_bond_type
O17   V3    S    
C59   H19   S    
O1    C5    A    
O19   V1    S    
C9    C21   A    
O3    C7    A    
C10   C18   A    
O1    V3    S    
O15   V3    S    
N4    C71   A    
C25   C33   A    
C76   N12   T    
C5    C12   S    
C39   H11   S    
O18   V4    S    
C6    C11   S    
C35   C40   A    
C26   C30   A    
C62   C66   A    
C36   C39   A    
C40   C44   A    
C61   C65   A    
C43   C75   S    
C14   C18   A    
C62   H22   S    
O4    C8    A    
C55   C59   A    
C54   C58   A    
C16   Br4   S    
C52   C56   A    
O13   V1    S    
C31   C43   A    
O2    V4    S    
N2    N6    A    
O3    V1    S    
C3    C66   S    
N1    N5    A    
C53   C70   S    
C22   H1    S    
C28   C36   A    
C17   H6    S    
N7    C71   A    
C55   C72   S    
C1    O15   A    
C60   H20   S    
C15   C31   A    
C2    O16   A    
C16   C32   A    
O2    C6    A    
C10   C22   A    
N2    C69   A    
C11   C19   A    
N1    C70   A    
C16   C20   A    
O5    V1    S    
N8    C72   A    
C45   C49   A    
N3    C72   A    
C34   C37   A    
O11   C7    A    
C11   C23   A    
C35   C36   A    
O12   C8    A    
C13   Br1   S    
C13   C17   A    
C40   H12   S    
O10   V2    S    
C4    C65   S    
C50   C54   A    
C51   Br7   S    
C15   Br3   S    
C60   C64   A    
O7    V3    S    
C38   C42   A    
C26   C34   A    
C47   C67   A    
C33   C38   A    
C46   C66   A    
C37   H9    S    
C15   C19   A    
C32   C44   A    
C64   H24   S    
C56   C71   S    
N4    N8    A    
O8    V4    S    
N6    C70   A    
C20   H7    S    
O7    C3    A    
C13   C29   A    
C39   C43   A    
O5    C1    A    
C41   C73   S    
C14   C30   A    
C21   C25   A    
O8    C4    A    
C7    C10   S    
C57   H17   S    
C14   Br2   S    
O9    C5    A    
C63   C67   A    
C50   Br6   S    
O14   V2    S    
O6    V2    S    
N5    C69   A    
C75   N11   T    
C12   C20   A    
C27   C35   A    
C24   H3    S    
C4    O14   A    
C74   N10   T    
C53   C57   A    
C29   C41   A    
C42   C74   S    
O16   V4    S    
C54   C69   S    
O9    V1    S    
C19   H8    S    
C61   H21   S    
C3    O13   A    
C18   H5    S    
C21   H2    S    
C1    C68   S    
C63   H23   S    
C38   H10   S    
C44   C76   S    
C48   H16   S    
C46   C50   A    
C47   H15   S    
O6    C2    A    
C23   C27   A    
O11   V3    S    
C30   C42   A    
N3    N7    A    
O12   V4    S    
C59   C63   A    
C22   C26   A    
C8    C9    S    
C58   C62   A    
C9    C17   A    
O10   C6    A    
O20   V2    S    
C73   N9    T    
C57   C61   A    
C58   H18   S    
C46   H14   S    
C64   C68   A    
C33   C34   A    
C49   Br5   S    
C25   C29   A    
C56   C60   A    
C12   C24   A    
C27   C31   A    
C47   C51   A    
C49   C53   A    
C52   Br8   S    
C45   H13   S    
C23   H4    S    
C51   C55   A    
C37   C41   A    
C24   C28   A    
C48   C68   A    
C45   C65   A    
C48   C52   A    
O4    V2    S    
C2    C67   S    
C28   C32   A    
