data_mof_unit_27358.cif
_audit_creation_date              2012-12-10T20:39:56-0500
_audit_creation_method            fapswitch 2.2
_symmetry_space_group_name_H-M    P1
_symmetry_Int_Tables_number       1
_space_group_crystal_system       triclinic
_cell_length_a                    23.416875
_cell_length_b                    10.656741
_cell_length_c                    9.878474
_cell_angle_alpha                 89.885612
_cell_angle_beta                  90.247021
_cell_angle_gamma                 90.436528
_cell_volume                      2465.04999154

loop_
_atom_site_label
_atom_site_type_symbol
_atom_type_description
_atom_site_fract_x
_atom_site_fract_y
_atom_site_fract_z
_atom_type_partial_charge
C1    C     C_R   0.502433 0.260037 0.500154 0.879909
C2    C     C_R   0.970382 0.282896 0.556150 -0.157405
C3    C     C_R   0.029821 0.283635 0.556568 -0.157614
C4    C     C_R   0.060111 0.395484 0.531943 -0.014675
C5    C     C_R   0.030287 0.507585 0.507135 -0.021491
C6    C     C_R   0.060320 0.620344 0.482417 -0.014633
C7    C     C_R   0.030198 0.731547 0.457897 -0.157573
C8    C     C_R   0.970743 0.730807 0.457411 -0.157398
C9    C     C_R   0.119726 0.398427 0.531129 0.503713
C10   C     C_R   0.119956 0.618433 0.482135 0.503759
C11   C     C_R   0.239698 0.566112 0.607675 -0.095254
C12   C     C_R   0.389459 0.500587 0.499876 0.863813
C13   C     C_R   0.298955 0.563946 0.606143 -0.223360
C14   C     C_R   0.327453 0.503906 0.500177 -0.031441
C15   C     C_R   0.296315 0.447018 0.395302 -0.230897
C16   C     C_R   0.237079 0.449290 0.396894 -0.089163
C17   C     C_R   0.208827 0.508448 0.503264 0.312871
C18   C     C_R   0.762457 0.511964 0.380285 -0.098697
C19   C     C_R   0.703171 0.510366 0.378961 -0.214067
C20   C     C_R   0.672997 0.501108 0.501154 -0.038378
C21   C     C_R   0.702862 0.493269 0.624438 -0.212555
C22   C     C_R   0.762122 0.494627 0.625335 -0.098759
C23   C     C_R   0.502088 0.740092 0.499898 0.888000
C24   C     C_R   0.791802 0.504060 0.503382 0.320326
C25   C     C_R   0.513924 0.063856 0.623084 0.148485
C26   C     C_R   0.513170 0.129060 0.500950 -0.102822
C27   C     C_R   0.524543 0.065683 0.379801 -0.225327
C28   C     C_R   0.523877 0.935798 0.379400 -0.214847
C29   C     C_R   0.512368 0.871533 0.500473 -0.108507
C30   C     C_R   0.513433 0.935941 0.622876 0.143482
C31   C     C_3   0.474142 0.928464 0.741572 -0.473627
C32   C     C_3   0.475004 0.070737 0.742132 -0.501035
C33   C     C_R   0.450591 0.516233 0.070141 0.158962
C34   C     C_R   0.610691 0.500209 0.500260 0.873555
C35   C     C_R   0.549700 0.492376 0.072356 -0.137669
C36   C     C_R   0.549679 0.491873 0.928663 -0.132583
C37   C     C_R   0.450692 0.518658 0.927919 0.154302
C38   C     C_3   0.396916 0.443471 0.917052 -0.465180
C39   C     C_3   0.397101 0.437631 0.071588 -0.018488
C40   C     C_R   0.880806 0.615581 0.480919 0.504228
C41   C     C_R   0.880656 0.395500 0.529505 0.503943
C42   C     C_R   0.940273 0.394006 0.531165 -0.015477
C43   C     C_R   0.970287 0.506838 0.506680 -0.021440
C44   C     C_R   0.940443 0.618850 0.481419 -0.015611
H1    H     H_    0.948169 0.195141 0.575215 0.194441
H2    H     H_    0.681104 0.516741 0.282668 0.152509
H3    H     H_    0.680578 0.485927 0.719970 0.152297
H4    H     H_    0.785083 0.488579 0.720494 0.138946
H5    H     H_    0.529701 0.115251 0.284819 0.173181
H6    H     H_    0.528210 0.887010 0.283936 0.174064
H7    H     H_    0.431653 0.887728 0.715312 0.206200
H8    H     H_    0.495140 0.886634 0.831975 0.208802
H9    H     H_    0.432966 0.113004 0.717104 0.206510
H10   H     H_    0.497150 0.110940 0.831938 0.209591
H11   H     H_    0.589738 0.484133 0.126254 0.151031
H12   H     H_    0.051891 0.196413 0.575900 0.194041
H13   H     H_    0.589681 0.483092 0.875561 0.149231
H14   H     H_    0.361252 0.500792 0.876961 0.170021
H15   H     H_    0.402939 0.354405 0.861438 0.220296
H16   H     H_    0.360709 0.488962 0.116655 0.131306
H17   H     H_    0.052415 0.819287 0.438781 0.194110
H18   H     H_    0.948665 0.818002 0.437982 0.194330
H19   H     H_    0.217697 0.612048 0.689830 0.143671
H20   H     H_    0.322475 0.610382 0.686482 0.146538
H21   H     H_    0.317583 0.398803 0.313992 0.146516
H22   H     H_    0.213028 0.404562 0.316234 0.144730
H23   H     H_    0.785687 0.519024 0.285987 0.139049
N1    N     N_R   0.852518 0.505090 0.504574 -0.360846
N2    N     N_R   0.148087 0.508582 0.505944 -0.360337
N3    N     N_R   0.499610 0.499140 0.142800 -0.103552
N4    N     N_R   0.499610 0.499180 0.857150 -0.100703
O1    O     O_R   0.500010 0.316790 0.614690 -0.613014
O2    O     O_2   0.850883 0.288516 0.551724 -0.547542
O3    O     O_2   0.149285 0.292481 0.555770 -0.550048
O4    O     O_2   0.149725 0.724882 0.457134 -0.550588
O5    O     O_R   0.500000 0.316760 0.385350 -0.624446
O6    O     O_R   0.416160 0.499980 0.614700 -0.618777
O7    O     O_R   0.416150 0.499940 0.385360 -0.636535
O8    O     O_R   0.500000 0.683240 0.614650 -0.613023
O9    O     O_R   0.499990 0.683210 0.385310 -0.617648
O10   O     O_R   0.583850 0.500060 0.614640 -0.628921
O11   O     O_R   0.583840 0.500020 0.385300 -0.629177
O12   O     O_2   0.851170 0.721679 0.457715 -0.547270
Zn1   Zn    Zn3+2 0.500000 0.500020 0.653130 0.945725
Zn2   Zn    Zn3+2 0.500000 0.499980 0.346870 0.942259
N5    N     N_2   0.403881 0.312796 0.131038 -0.270828
H24   H     H_    0.406575 0.312925 0.234989 0.260081
C45   C     C_3   0.440032 0.220009 0.068100 -0.728813
H25   H     H_    0.446722 0.140531 0.139064 0.222957
H26   H     H_    0.482268 0.260554 0.041377 0.239716
H27   H     H_    0.418517 0.180594 0.977442 0.236542

loop_
_geom_bond_atom_site_label_1
_geom_bond_atom_site_label_2
_ccdc_geom_bond_type
C22   H4    S    
C17   N2    S    
C41   C42   A    
C19   C20   A    
C31   H8    S    
C19   H2    S    
C7    C8    A    
C26   C27   A    
C37   C38   S    
C18   C24   A    
C23   C29   S    
C28   C29   A    
C9    N2    A    
C11   H19   S    
C5    C6    A    
N5    C45   S    
C15   C16   A    
C15   H21   S    
C18   C19   A    
C10   O4    S    
C7    H17   S    
C38   H14   S    
C28   H6    S    
C35   C36   A    
C35   N3    A    
C16   C17   A    
C12   O7    A    
C34   O10   A    
C23   O9    A    
C29   C30   A    
C42   C43   A    
C36   N4    A    
C20   C34   S    
C25   C32   S    
C5    C43   A    
C13   C14   A    
O8    Zn1   S    
C40   O12   S    
C32   H10   S    
C41   N1    A    
C2    H1    S    
C38   C39   S    
C1    O1    A    
C35   H11   S    
C36   H13   S    
C31   H7    S    
N5    H24   S    
O6    Zn1   S    
C25   C26   A    
C33   C37   A    
C43   C44   A    
O9    Zn2   S    
C3    H12   S    
C31   C32   S    
C45   H27   S    
C12   O6    A    
C33   C39   S    
C20   C21   A    
O1    Zn1   S    
C33   N3    A    
O7    Zn2   S    
C45   H26   S    
C37   N4    A    
C1    C26   S    
C22   C24   A    
C16   H22   S    
C9    O3    S    
C3    C4    A    
C32   H9    S    
O10   Zn1   S    
N4    Zn1   S    
C25   C30   A    
C11   C17   A    
C1    O5    A    
C8    C44   A    
C12   C14   S    
C4    C5    A    
C6    C10   A    
C6    C7    A    
O11   Zn2   S    
C2    C3    A    
C18   H23   S    
C11   C13   A    
C30   C31   S    
C13   H20   S    
C2    C42   A    
C39   H16   S    
C24   N1    S    
C41   O2    S    
C38   H15   S    
C10   N2    A    
C40   C44   A    
C45   H25   S    
C40   N1    A    
C27   C28   A    
C14   C15   A    
C34   O11   A    
C39   N5    S    
C23   O8    A    
C4    C9    A    
C21   C22   A    
N3    Zn2   S    
O5    Zn2   S    
C27   H5    S    
C8    H18   S    
C21   H3    S    
