data_mof_unit_19820.cif
_audit_creation_date              2012-12-10T16:44:13-0500
_audit_creation_method            fapswitch 2.2
_symmetry_space_group_name_H-M    P1
_symmetry_Int_Tables_number       1
_space_group_crystal_system       triclinic
_cell_length_a                    7.475984
_cell_length_b                    8.70576
_cell_length_c                    13.412779
_cell_angle_alpha                 94.261796
_cell_angle_beta                  77.444682
_cell_angle_gamma                 102.526503
_cell_volume                      831.462227081

loop_
_atom_site_label
_atom_site_type_symbol
_atom_type_description
_atom_site_fract_x
_atom_site_fract_y
_atom_site_fract_z
_atom_type_partial_charge
C1    C     C_R   0.544860 0.799668 0.501278 0.893963
C2    C     C_R   0.411757 0.502086 0.975809 0.106853
C3    C     C_R   0.454466 0.552359 0.873450 0.067180
C4    C     C_R   0.551595 0.546766 0.035981 0.092400
C5    C     C_R   0.723670 0.647561 0.994659 0.100558
C6    C     C_R   0.750307 0.712778 0.899626 -0.201728
C7    C     C_R   0.615953 0.668249 0.840697 -0.162150
C8    C     C_R   0.526676 0.494764 0.135613 -0.183779
C9    C     C_R   0.839150 0.637742 0.149835 -0.033459
C10   C     C_R   0.333557 0.487097 0.806360 -0.103416
C11   C     C_2   0.561871 0.966534 0.508485 -0.405196
C12   C     C_R   0.398793 0.495028 0.694314 0.777713
C13   C     C_2   0.447144 0.036156 0.472547 0.006968
C14   C     C_R   0.458777 0.200965 0.492076 0.828099
C15   C     C_R   0.602153 0.515430 0.305929 0.773302
C16   C     C_R   0.866822 0.686480 0.049559 -0.152209
C17   C     C_R   0.662759 0.545901 0.195246 -0.137266
C18   C     C_R   0.155950 0.397009 0.846120 -0.172452
C19   C     C_R   0.104089 0.362336 0.949210 -0.150781
C20   C     C_R   0.231441 0.409900 0.013048 -0.126510
Cu1   Cu    Cu3+1 0.321300 0.483160 0.488710 1.028065
Cu2   Cu    Cu3+1 0.678700 0.516840 0.511290 0.996112
H1    H     H_    0.990010 0.382171 0.420731 0.202907
H2    H     H_    0.876197 0.798580 0.870559 0.160504
H3    H     H_    0.998791 0.761332 0.015256 0.175173
H4    H     H_    0.399407 0.416319 0.170000 0.153987
H5    H     H_    0.059120 0.348721 0.796788 0.169622
H6    H     H_    0.182858 0.375006 0.091309 0.136428
H7    H     H_    0.966434 0.292870 0.979154 0.150241
H8    H     H_    0.639142 0.726558 0.769250 0.172922
H9    H     H_    0.664005 0.033169 0.550510 0.164892
N1    N     N_2   0.947230 0.542220 0.528320 0.002506
N2    N     N_2   0.052770 0.457780 0.471680 -0.172482
O1    O     O_R   0.383920 0.714220 0.492660 -0.521667
O2    O     O_R   0.685730 0.742660 0.511730 -0.574125
O3    O     O_R   0.275440 0.478800 0.636790 -0.558026
O4    O     O_R   0.577250 0.507240 0.655860 -0.569992
O5    O     O_R   0.314270 0.257340 0.488270 -0.562494
O6    O     O_R   0.616080 0.285780 0.507340 -0.605990
O7    O     O_R   0.422750 0.492760 0.344140 -0.560536
O8    O     O_R   0.724560 0.521200 0.363210 -0.625111
C21   C     C_2   0.993805 0.693497 0.204831 0.366910
H10   H     H_    0.966459 0.714503 0.286414 0.138189
O9    O     O_2   0.156432 0.720587 0.158166 -0.535163
I1    I     I_    0.268509 0.931970 0.370752 -0.294878
I2    I     I_    0.027173 0.706947 0.639162 -0.256087

loop_
_geom_bond_atom_site_label_1
_geom_bond_atom_site_label_2
_ccdc_geom_bond_type
C2    C4    A    
C21   O9    D    
C6    C7    A    
C14   O5    A    
C8    H4    S    
C19   C20   A    
C1    C11   S    
C4    C8    A    
C6    H2    S    
N1    N2    D    
C2    C3    A    
C11   H9    S    
Cu1   O3    S    
Cu1   Cu2   S    
C13   I1    S    
Cu2   O2    S    
C11   C13   D    
C15   O8    A    
C9    C21   S    
Cu1   O7    S    
Cu2   N1    S    
C10   C18   A    
C3    C10   A    
Cu2   O6    S    
C10   C12   S    
C9    C17   A    
C9    C16   A    
C1    O1    A    
C3    C7    A    
C5    C6    A    
C15   O7    A    
Cu2   O8    S    
C12   O3    A    
C21   H10   S    
Cu1   O5    S    
C2    C20   A    
C19   H7    S    
C12   O4    A    
Cu1   N2    S    
C1    O2    A    
C7    H8    S    
C18   C19   A    
C16   H3    S    
C15   C17   S    
C5    C16   A    
Cu1   O1    S    
C20   H6    S    
C14   O6    A    
C13   C14   S    
Cu2   O4    S    
N1    I2    S    
C18   H5    S    
C8    C17   A    
C4    C5    A    
H1    N2    S    
