data_mof_unit_66833.cif
_audit_creation_date              2013-03-05T15:41:46-0500
_audit_creation_method            fapswitch 2.2
_symmetry_space_group_name_H-M    P1
_symmetry_Int_Tables_number       1
_space_group_crystal_system       triclinic
_cell_length_a                    8.709834
_cell_length_b                    15.423603
_cell_length_c                    15.337921
_cell_angle_alpha                 97.230513
_cell_angle_beta                  99.223564
_cell_angle_gamma                 99.039073
_cell_volume                      1984.2952418

loop_
_atom_site_label
_atom_site_type_symbol
_atom_site_description
_atom_site_fract_x
_atom_site_fract_y
_atom_site_fract_z
_atom_type_partial_charge
P1    P     P_3+3 0.004200 0.709230 0.580350 0.478926
O1    O     O_2   0.174080 0.723060 0.553930 -0.362037
O2    O     O_3   0.901570 0.609580 0.550840 -0.398174
O3    O     O_3   0.370350 0.665080 0.388270 -0.360722
O4    O     O_2   0.332137 0.823323 0.461548 -0.357916
O5    O     O_3   0.077000 0.734640 0.695157 -0.589877
O6    O     O_3   0.394908 0.817244 0.299157 -0.499349
C1    C     C_3   0.482133 0.802990 0.151873 -0.262230
P2    P     P_3+3 0.305000 0.425570 0.290900 0.519259
P3    P     P_3+3 0.867501 0.598112 0.224407 0.518324
O7    O     O_2   0.134790 0.452800 0.278150 -0.374719
O8    O     O_3   0.937650 0.618620 0.340860 -0.353323
O9    O     O_2   0.960232 0.529263 0.188455 -0.307283
O10   O     O_3   0.245841 0.310125 0.251925 -0.538834
O11   O     O_3   0.934421 0.688980 0.173020 -0.487474
C2    C     C_3   0.886511 0.765636 0.210128 0.600954
C3    C     C_3   0.894465 0.835680 0.148103 -0.154002
H1    H     H_    0.808360 0.813239 0.085148 0.177687
C4    C     C_3   0.749196 0.319129 0.244634 0.554898
C5    C     C_3   0.843621 0.305215 0.168238 -0.351614
H2    H     H_    0.820966 0.233993 0.138441 0.198881
Ba1   Ba    Ba6+2 0.154730 0.543770 0.458180 1.620308
C6    C     C_3   0.002525 0.678067 0.745732 0.210543
C7    C     C_3   0.062266 0.722338 0.842748 0.116924
C8    C     C_3   0.150382 0.266027 0.303520 0.417588
C9    C     C_3   0.065575 0.170972 0.255227 0.083083
P4    P     P_3+3 0.806080 0.290760 0.419570 0.500845
O12   O     O_2   0.636200 0.276890 0.446040 -0.306650
O13   O     O_3   0.908720 0.390410 0.449080 -0.411605
O14   O     O_3   0.439930 0.334910 0.611650 -0.324072
O15   O     O_3   0.772975 0.256138 0.302276 -0.611518
P5    P     P_3+3 0.946188 0.403975 0.774852 0.500412
O16   O     O_3   0.402060 0.547860 0.609750 -0.406924
O17   O     O_3   0.872630 0.381370 0.659060 -0.348076
O18   O     O_2   0.869480 0.482415 0.805429 -0.305085
O19   O     O_3   0.848793 0.326673 0.829012 -0.505078
Ba2   Ba    Ba6+2 0.655430 0.456220 0.541750 1.655329
P6    P     P_3+3 0.438457 0.780461 0.403816 0.484033
C10   C     C_3   0.446462 0.761077 0.234253 0.595315
H3    H     H_    0.548344 0.732496 0.263076 -0.057708
O20   O     O_3   0.408220 0.452130 0.390170 -0.381163
C11   C     C_3   0.549833 0.744561 0.681096 0.203443
C12   C     C_3   0.474654 0.825017 0.708741 0.130635
P7    P     P_3+3 0.511104 0.581456 0.721595 0.504112
O21   O     O_2   0.675490 0.547140 0.721820 -0.329459
O22   O     O_3   0.567057 0.696698 0.752518 -0.529991
C13   C     C_3   0.896022 0.244176 0.817877 0.538995
H4    H     H_    0.023303 0.250884 0.817837 -0.016764
C14   C     C_3   0.848230 0.200467 0.896219 -0.145410
P8    P     P_3+3 0.366203 0.220491 0.616154 0.517682
C15   C     C_3   0.364013 0.235976 0.786425 0.464820
O23   O     O_2   0.463099 0.169990 0.557304 -0.329172
O24   O     O_3   0.429800 0.190133 0.720910 -0.506928
C16   C     C_3   0.315699 0.176517 0.855011 0.294958
C17   C     C_R   0.148727 0.173599 0.568018 0.154688
C18   C     C_R   0.088185 0.080522 0.554108 0.036733
C19   C     C_R   0.963832 0.892866 0.540848 -0.008740
C20   C     C_R   0.121935 0.928467 0.576955 -0.051491
C21   C     C_R   0.183601 0.018806 0.580593 -0.093957
C22   C     C_R   0.899806 0.798702 0.533309 0.248818
C23   C     C_R   0.742231 0.768896 0.490584 -0.492499
C24   C     C_R   0.899375 0.201934 0.480519 0.256789
C25   C     C_R   0.834347 0.106664 0.470955 -0.104379
C26   C     C_R   0.928888 0.047491 0.512070 0.053248
C27   C     C_R   0.680282 0.064854 0.424211 0.284478
C28   C     C_R   0.619572 0.976641 0.428122 -0.171113
C29   C     C_R   0.710957 0.918554 0.463667 -0.026051
C30   C     C_R   0.868047 0.952992 0.505684 0.072586
C31   C     C_R   0.647644 0.826619 0.456810 0.182707
C32   C     C_R   0.048249 0.232004 0.537483 -0.423834
C33   C     C_R   0.253277 0.480395 0.768016 -0.472402
C34   C     C_R   0.155988 0.446429 0.823240 0.193389
C35   C     C_R   0.211404 0.456777 0.916197 -0.202686
C36   C     C_R   0.363984 0.505552 0.956404 0.054142
C37   C     C_R   0.447197 0.554417 0.898760 0.089725
C38   C     C_R   0.399043 0.534273 0.803911 0.271128
C39   C     C_R   0.595399 0.537918 0.090430 -0.182481
C40   C     C_R   0.657552 0.550965 0.182324 0.196473
C41   C     C_R   0.408964 0.478810 0.209971 0.343317
C42   C     C_R   0.343759 0.468056 0.117098 -0.177770
C43   C     C_R   0.433072 0.505115 0.055645 0.103177
C44   C     C_R   0.563175 0.523697 0.241642 -0.479710
I1    I     I_    0.261998 0.656052 0.180875 -0.194592
I2    I     I_    0.798996 0.372208 0.056112 -0.307314
H5    H     H_    0.969970 0.326676 0.190865 0.191472
H6    H     H_    0.036981 0.611794 0.734756 0.085600
H7    H     H_    0.873043 0.673441 0.729154 0.139840
H8    H     H_    0.192657 0.742371 0.854313 0.141942
I3    I     I_    0.018844 0.643743 0.943322 -0.237410
I4    I     I_    0.962126 0.838417 0.864317 -0.111877
H9    H     H_    0.064218 0.305192 0.325477 0.030977
I5    I     I_    0.301189 0.264599 0.415105 -0.145474
H10   H     H_    0.377513 0.792656 0.097930 0.211786
H11   H     H_    0.937424 0.168282 0.242132 0.115596
I6    I     I_    0.077970 0.058534 0.321411 -0.318003
I7    I     I_    0.117699 0.128731 0.128662 -0.098499
H12   H     H_    0.564901 0.767382 0.121389 0.104756
H13   H     H_    0.669752 0.767651 0.667693 0.067459
H14   H     H_    0.477263 0.705857 0.618082 0.097357
I8    I     I_    0.492355 0.865949 0.848887 -0.126255
I9    I     I_    0.570502 0.938354 0.658141 -0.312664
H15   H     H_    0.347074 0.809064 0.683223 0.135575
I10   I     I_    0.571958 0.940670 0.168284 -0.210171
H16   H     H_    0.869102 0.897439 0.182506 0.157587
I11   I     I_    0.781551 0.170052 0.692458 -0.183265
I12   I     I_    0.840402 0.061914 0.899549 -0.098413
H17   H     H_    0.924290 0.234921 0.959406 0.167651
H18   H     H_    0.729880 0.213621 0.901555 0.200598
H19   H     H_    0.255276 0.259865 0.758017 -0.054195
I13   I     I_    0.528989 0.351269 0.844027 -0.217114
I14   I     I_    0.247902 0.251822 0.962625 -0.354396
I15   I     I_    0.469521 0.110185 0.929403 -0.096056
I16   I     I_    0.027057 0.821430 0.335178 -0.190810
I17   I     I_    0.147905 0.066224 0.786043 -0.269664
H20   H     H_    0.200172 0.886735 0.602672 0.169766
H21   H     H_    0.306609 0.040402 0.610061 0.207801
H22   H     H_    0.497183 0.952953 0.398974 0.223557
I18   I     I_    0.517814 0.107933 0.329908 -0.106442
H23   H     H_    0.690601 0.699345 0.484616 0.161655
H24   H     H_    0.095408 0.302559 0.550032 0.157826
H25   H     H_    0.678231 0.549972 0.046438 0.206343
H26   H     H_    0.131725 0.427865 0.956035 0.177620
H27   H     H_    0.222743 0.434376 0.095751 0.167279
H28   H     H_    0.765156 0.750531 0.221144 -0.118233
I19   I     I_    0.604290 0.675929 0.950120 -0.315926
H29   H     H_    0.613878 0.532101 0.312045 0.160204
H30   H     H_    0.209765 0.469678 0.696623 0.163147
I20   I     I_    0.117516 0.876082 0.114173 -0.090711
I21   I     I_    0.518008 0.274693 0.175587 -0.162782
H31   H     H_    0.773215 0.388943 0.279119 0.047792

loop_
_geom_bond_atom_site_label_1
_geom_bond_atom_site_label_2
_geom_bond_distance
_ccdc_geom_bond_type
C4    I21   2.084692 S    
C17   C18   1.425990 A    
C25   C27   1.426122 A    
C9    H11   1.095160 S    
Ba1   O13   2.904154 S    
C23   H23   1.082520 S    
O17   Ba2   2.875235 S    
C35   C36   1.420806 A    
C4    C5    1.548077 S    
P2    O10   1.771536 S    
C4    O15   1.410387 S    
C2    I16   2.102052 S    
P3    C40   1.837097 S    
P5    C34   1.840010 S    
C39   C40   1.403546 A    
P5    O19   1.728750 S    
C3    H16   1.100701 S    
P1    O2    1.621620 S    
P3    O11   1.758928 S    
C11   H13   1.109232 S    
P2    C41   1.848854 S    
C33   C38   1.390964 A    
C42   C43   1.432207 A    
P2    Ba1   3.502628 S    
Ba1   O20   3.050939 S    
P4    O13   1.621649 S    
C23   C31   1.396223 A    
O11   C2    1.399176 S    
O8    Ba1   2.874672 S    
C24   C32   1.416209 A    
O19   C13   1.396306 S    
P1    O1    1.585498 D    
C11   O22   1.397573 S    
P7    C38   1.865319 S    
C44   H29   1.082477 S    
C32   H24   1.082337 S    
C21   H21   1.076021 S    
C13   I11   2.115407 S    
C6    H6    1.110181 S    
O1    Ba1   2.929848 S    
P8    O23   1.551594 D    
C6    C7    1.528272 S    
C18   C26   1.417290 A    
C1    C10   1.542506 S    
C4    H31   1.110572 S    
C28   C29   1.393310 A    
O14   P8    1.794529 S    
P6    C31   1.859875 S    
P1    Ba1   3.518242 S    
C15   H19   1.113698 S    
C6    H7    1.104459 S    
O4    P6    1.544834 D    
C7    I3    2.122680 S    
C33   H30   1.082465 S    
P7    O22   1.750225 S    
C14   H18   1.094987 S    
C9    I7    2.110951 S    
C8    H9    1.101725 S    
P8    O24   1.758761 S    
C36   C37   1.441009 A    
P4    O15   1.774359 S    
C29   C30   1.404391 A    
P5    O18   1.530241 D    
C12   I8    2.136464 S    
C14   H17   1.102011 S    
P1    C22   1.919961 S    
C10   H3    1.106077 S    
C2    C3    1.527499 S    
C19   C22   1.454726 A    
C20   C21   1.403111 A    
Ba1   Ba2   4.770335 S    
C28   H22   1.073973 S    
O16   Ba2   3.049989 S    
P1    O5    1.745478 S    
O14   Ba2   2.867020 S    
C22   C23   1.400710 A    
C15   O24   1.403936 S    
P5    O17   1.759381 S    
C37   C38   1.427776 A    
C12   I9    2.108461 S    
C24   C25   1.469374 A    
P4    C24   1.959555 S    
O3    Ba1   2.867746 S    
C40   C44   1.381223 A    
C13   H4    1.097220 S    
C39   C43   1.415997 A    
C27   I18   2.101710 S    
C5    H5    1.084083 S    
C3    H1    1.103082 S    
C16   I15   2.092382 S    
C7    H8    1.108181 S    
P3    O8    1.763769 S    
O3    P6    1.758363 S    
C27   C28   1.392475 A    
C15   I13   2.098109 S    
P2    O7    1.592424 D    
C20   H20   1.072282 S    
C41   C42   1.425049 A    
C11   C12   1.536329 S    
C36   C43   1.545747 S    
Ba2   O21   2.901462 S    
C26   C30   1.455857 A    
P7    O21   1.602219 D    
C29   C31   1.422655 A    
C9    I6    2.125191 S    
Ba1   O16   2.892069 S    
C8    I5    1.988179 S    
O16   P7    1.792392 S    
C1    H10   1.104428 S    
C34   C35   1.410383 A    
P3    O9    1.532623 D    
C7    I4    2.123581 S    
C41   C44   1.390439 A    
C3    I20   2.111569 S    
C14   I12   2.134651 S    
C13   C14   1.532234 S    
O7    Ba1   2.901372 S    
P2    O20   1.607114 S    
P8    C17   1.908639 S    
C18   C21   1.414008 A    
C15   C16   1.545391 S    
C5    I2    2.129686 S    
C8    C9    1.566724 S    
C12   H15   1.094955 S    
C10   I1    2.074193 S    
C33   C34   1.382831 A    
C11   H14   1.109214 S    
C19   C20   1.394947 A    
O12   Ba2   2.930338 S    
P4    Ba2   3.518917 S    
C1    H12   1.098980 S    
O5    C6    1.392019 S    
C16   I17   2.102121 S    
O6    P6    1.773201 S    
C16   I14   2.113656 S    
O10   C8    1.396013 S    
Ba2   O20   2.891532 S    
C1    I10   2.113076 S    
C17   C32   1.420996 A    
C39   H25   1.075089 S    
C25   C26   1.457129 A    
C5    H2    1.109564 S    
O2    Ba2   2.904859 S    
C35   H26   1.077555 S    
O13   Ba2   3.043545 S    
P4    O12   1.585835 D    
O6    C10   1.411214 S    
O2    Ba1   3.042497 S    
C19   C30   1.439317 A    
C37   I19   2.117125 S    
C2    H28   1.090793 S    
C42   H27   1.078210 S    
