data_mof_unit_38598.cif
_audit_creation_date              2012-12-10T18:05:51-0500
_audit_creation_method            fapswitch 2.2
_symmetry_space_group_name_H-M    P1
_symmetry_Int_Tables_number       1
_space_group_crystal_system       triclinic
_cell_length_a                    12.589678
_cell_length_b                    13.137469
_cell_length_c                    14.972833
_cell_angle_alpha                 89.944648
_cell_angle_beta                  102.81861
_cell_angle_gamma                 82.100728
_cell_volume                      2390.5525034

loop_
_atom_site_label
_atom_site_type_symbol
_atom_type_description
_atom_site_fract_x
_atom_site_fract_y
_atom_site_fract_z
_atom_type_partial_charge
C1    C     C_R   0.438264 0.691397 0.487642 0.932270
C2    C     C_R   0.604910 0.480196 0.113051 0.112644
C3    C     C_R   0.307587 0.472078 0.010587 -0.226623
C4    C     C_R   0.306895 0.477221 0.917807 -0.224393
C5    C     C_R   0.404813 0.483530 0.889804 0.115838
C6    C     C_R   0.504786 0.483213 0.954853 0.060546
C7    C     C_R   0.603722 0.489542 0.926925 0.119166
C8    C     C_R   0.702589 0.489224 0.992075 -0.220714
C9    C     C_R   0.703179 0.484588 0.084985 -0.219886
C10   C     C_R   0.404344 0.490598 0.797620 -0.259182
C11   C     C_R   0.502445 0.496750 0.769848 -0.072225
C12   C     C_R   0.500719 0.499997 0.673257 0.880882
C13   C     C_R   0.601819 0.496405 0.834165 -0.261505
C14   C     C_R   0.697523 0.063648 0.438166 -0.167383
C15   C     C_R   0.598971 0.199857 0.507810 -0.047719
C16   C     C_R   0.308127 0.834121 0.523409 -0.211339
C17   C     C_R   0.288135 0.935753 0.547266 -0.143402
C18   C     C_R   0.361393 0.003311 0.538219 -0.154675
C19   C     C_R   0.453044 0.971489 0.499005 0.020987
C20   C     C_R   0.463063 0.872373 0.462893 -0.043342
C21   C     C_R   0.533736 0.034834 0.492549 0.072671
C22   C     C_R   0.618815 0.000379 0.446455 0.094380
C23   C     C_R   0.561535 0.308778 0.510724 0.852311
C24   C     C_R   0.618902 0.907257 0.402450 -0.345441
C25   C     C_R   0.537060 0.846852 0.404986 0.474316
C26   C     C_R   0.530288 0.133177 0.527644 -0.228522
C27   C     C_R   0.686513 0.164197 0.467449 -0.204230
C28   C     C_R   0.398231 0.801121 0.484971 -0.097013
C29   C     C_R   0.087611 0.346994 0.374029 -0.311383
C30   C     C_R   0.799733 0.630108 0.607484 0.021965
C31   C     C_R   0.904388 0.658630 0.629136 -0.252614
C32   C     C_R   0.985853 0.609482 0.588393 -0.202019
C33   C     C_R   0.962746 0.530831 0.525581 0.016695
C34   C     C_R   0.501025 0.494936 0.327355 0.908539
C35   C     C_R   0.854751 0.504381 0.506194 0.245212
C36   C     C_R   0.041856 0.477683 0.481287 -0.013988
C37   C     C_R   0.011254 0.399925 0.418618 0.199958
C38   C     C_R   0.904928 0.375300 0.401285 -0.308303
C39   C     C_R   0.828242 0.426490 0.444828 -0.224054
C40   C     C_R   0.150884 0.498017 0.496519 -0.055835
C41   C     C_R   0.193877 0.370911 0.392115 0.007077
C42   C     C_R   0.603570 0.481374 0.205237 -0.271830
C43   C     C_R   0.503900 0.482116 0.232273 -0.093530
C44   C     C_R   0.406375 0.474114 0.168033 -0.275653
C45   C     C_R   0.406130 0.473507 0.075615 0.123208
C46   C     C_R   0.505446 0.478170 0.047852 0.062839
H1    H     H_    0.679432 0.485354 0.255460 0.172821
H2    H     H_    0.677633 0.884485 0.360523 0.166818
H3    H     H_    0.762539 0.037937 0.403100 0.134910
H4    H     H_    0.469387 0.163615 0.564641 0.141023
H5    H     H_    0.256760 0.780201 0.539626 0.148152
H6    H     H_    0.342588 0.079780 0.561451 0.129087
H7    H     H_    0.218823 0.961013 0.577494 0.140288
H8    H     H_    0.254384 0.330599 0.358667 0.135742
H9    H     H_    0.880812 0.315829 0.353931 0.152098
H10   H     H_    0.065401 0.287616 0.326044 0.143093
H11   H     H_    0.329629 0.473365 0.189433 0.164233
H12   H     H_    0.182030 0.554956 0.543020 0.121830
H13   H     H_    0.735946 0.668275 0.638642 0.135281
H14   H     H_    0.065475 0.634741 0.607291 0.132370
H15   H     H_    0.922287 0.718843 0.677169 0.149471
H16   H     H_    0.748602 0.403218 0.429033 0.206638
H17   H     H_    0.231036 0.468600 0.031483 0.147298
H18   H     H_    0.229887 0.477146 0.868044 0.148455
H19   H     H_    0.327308 0.491254 0.747610 0.160959
H20   H     H_    0.677665 0.500570 0.812220 0.162028
H21   H     H_    0.778966 0.493623 0.971179 0.145456
H22   H     H_    0.779923 0.485933 0.134789 0.150742
H23   H     H_    0.740782 0.215684 0.452267 0.144261
N1    N     N_R   0.222190 0.444670 0.452360 -0.102350
N2    N     N_R   0.776970 0.554790 0.547140 -0.129160
O1    O     O_R   0.366740 0.627160 0.477250 -0.629490
O2    O     O_R   0.544830 0.662520 0.507680 -0.587945
O3    O     O_R   0.410940 0.482340 0.616930 -0.628168
O4    O     O_R   0.589030 0.517700 0.647360 -0.631068
O5    O     O_R   0.455170 0.337480 0.492320 -0.614575
O6    O     O_R   0.633260 0.372840 0.522750 -0.641119
O7    O     O_R   0.410970 0.482300 0.352640 -0.628871
O8    O     O_R   0.589060 0.517660 0.383070 -0.614008
Zn1   Zn    Zn3+2 0.381090 0.476390 0.479680 0.935725
Zn2   Zn    Zn3+2 0.618910 0.523610 0.520320 0.952716
O9    O     O_3   0.521269 0.769695 0.342663 -0.630411
C47   C     C_3   0.456097 0.815751 0.259225 0.038775
H24   H     H_    0.501672 0.869450 0.229845 0.149030
H25   H     H_    0.377169 0.858696 0.269769 0.140067
C48   C     C_3   0.428655 0.732815 0.190310 -0.303794
H26   H     H_    0.506344 0.688468 0.179913 0.242364
H27   H     H_    0.380429 0.680767 0.217925 0.224509
C49   C     C_3   0.361404 0.778622 0.098037 -0.963539
H28   H     H_    0.282432 0.822652 0.106181 0.262842
H29   H     H_    0.343117 0.715732 0.049964 0.275833
H30   H     H_    0.408338 0.830273 0.068322 0.264879

loop_
_geom_bond_atom_site_label_1
_geom_bond_atom_site_label_2
_ccdc_geom_bond_type
C16   C28   A    
C21   C26   A    
C12   O3    A    
C31   H15   S    
C19   C20   A    
C16   H5    S    
C23   O5    A    
C30   N2    A    
C18   H6    S    
C7    C8    A    
C45   C46   A    
C2    C46   A    
C40   N1    A    
C5    C6    A    
C36   C37   A    
C19   C21   A    
C26   H4    S    
C38   C39   A    
O7    Zn1   S    
C14   H3    S    
C16   C17   A    
C20   C25   A    
C33   C36   A    
C18   C19   A    
C38   H9    S    
C31   C32   A    
C8    C9    A    
C1    C28   S    
C14   C27   A    
C49   H29   S    
C27   H23   S    
C15   C23   S    
C35   N2    A    
O3    Zn1   S    
C21   C22   A    
O2    Zn2   S    
C13   H20   S    
C1    O1    A    
C40   H12   S    
N1    Zn1   S    
C24   H2    S    
C36   C40   A    
C24   C25   A    
O8    Zn2   S    
C48   H26   S    
O4    Zn2   S    
C15   C26   A    
C20   C28   A    
C3    C45   A    
C35   C39   A    
C43   C44   A    
C37   C38   A    
C34   O8    A    
C15   C27   A    
C47   H24   S    
O6    Zn2   S    
C44   H11   S    
C30   H13   S    
C17   C18   A    
C23   O6    A    
C49   H30   S    
C47   H25   S    
C25   O9    S    
C22   C24   A    
C42   C43   A    
C32   H14   S    
C3    C4    A    
C17   H7    S    
C44   C45   A    
C10   H19   S    
C39   H16   S    
C6    C46   A    
C29   C41   A    
C34   C43   S    
O5    Zn1   S    
C4    C5    A    
C48   C49   S    
C11   C12   S    
C6    C7    A    
C29   H10   S    
C3    H17   S    
C4    H18   S    
C1    O2    A    
C32   C33   A    
C14   C22   A    
C9    H22   S    
C5    C10   A    
O1    Zn1   S    
C34   O7    A    
C11   C13   A    
C30   C31   A    
C2    C42   A    
C33   C35   A    
C48   H27   S    
C42   H1    S    
C41   H8    S    
C10   C11   A    
C7    C13   A    
C47   C48   S    
C8    H21   S    
O9    C47   S    
C12   O4    A    
C29   C37   A    
C49   H28   S    
C2    C9    A    
C41   N1    A    
N2    Zn2   S    
