data_mof_unit_33518.cif
_audit_creation_date              2012-12-11T14:33:12-0500
_audit_creation_method            fapswitch 2.2
_symmetry_space_group_name_H-M    P1
_symmetry_Int_Tables_number       1
_space_group_crystal_system       triclinic
_cell_length_a                    7.098986
_cell_length_b                    14.413727
_cell_length_c                    17.978833
_cell_angle_alpha                 115.257304
_cell_angle_beta                  95.268799
_cell_angle_gamma                 90.551988
_cell_volume                      1654.31129554

loop_
_atom_site_label
_atom_site_type_symbol
_atom_type_description
_atom_site_fract_x
_atom_site_fract_y
_atom_site_fract_z
_atom_type_partial_charge
O1    O     O_R   0.484560 0.544530 0.414330 -0.532643
O2    O     O_R   0.197040 0.638810 0.585080 -0.531468
O3    O     O_R   0.026800 0.455470 0.585670 -0.548350
C1    C     C_R   0.374641 0.679446 0.612439 0.684190
O4    O     O_R   0.155000 0.556150 0.414940 -0.540159
O5    O     O_R   0.984450 0.372220 0.414320 -0.538723
C2    C     C_R   0.319101 0.564842 0.387168 0.751731
O6    O     O_R   0.526900 0.627780 0.585680 -0.539775
O7    O     O_3   0.339170 0.439750 0.499990 -0.387443
V1    V     V_3+5 0.064350 0.511180 0.500000 1.346091
O8    O     O_R   0.654880 0.361190 0.414920 -0.539489
C3    C     C_R   0.817244 0.324732 0.386984 0.749040
O9    O     O_R   0.696930 0.443850 0.585060 -0.560277
C4    C     C_R   0.870707 0.421098 0.604415 0.645329
V2    V     V_3+5 0.564340 0.488820 0.500000 1.337733
O10   O     O_3   0.839390 0.560250 0.500010 -0.383367
C5    C     C_R   0.036855 0.863229 0.822280 -0.081399
C6    C     C_R   0.896122 0.372147 0.665895 -0.043752
C7    C     C_R   0.929970 0.809110 0.675696 -0.168126
C8    C     C_R   0.974520 0.785484 0.743305 0.094881
C9    C     C_R   0.039275 0.968378 0.832179 0.035138
C10   C     C_R   0.977706 0.991761 0.761499 0.063478
C11   C     C_R   0.938316 0.909869 0.683420 0.036985
C12   C     C_R   0.954521 0.092452 0.764319 0.046620
C13   C     C_R   0.930880 0.113836 0.691073 0.026753
C14   C     C_R   0.919886 0.025595 0.611922 0.168171
C15   C     C_R   0.920405 0.927064 0.611597 -0.269935
C16   C     C_R   0.933105 0.171578 0.840167 -0.193542
C17   C     C_R   0.932082 0.270129 0.852276 -0.215138
C18   C     C_R   0.954466 0.297496 0.788520 0.149947
C19   C     C_R   0.924741 0.222607 0.705044 0.069834
C20   C     C_R   0.986865 0.401450 0.809082 0.093222
C21   C     C_R   0.941759 0.437108 0.748958 -0.192546
C22   C     C_R   0.882109 0.263927 0.644855 -0.255710
H1    H     H_    0.913855 0.859998 0.552585 0.122395
H2    H     H_    0.837451 0.215620 0.582145 0.146574
H3    H     H_    0.923648 0.516973 0.769125 0.120728
H4    H     H_    0.910119 0.325495 0.913889 0.138385
H5    H     H_    0.889723 0.747383 0.615142 0.152127
H6    H     H_    0.908752 0.159053 0.892591 0.163184
H7    H     H_    0.110385 0.223374 0.310779 0.160477
H8    H     H_    0.839369 0.033039 0.194359 0.154907
C23   C     C_2   0.134738 0.036945 0.184989 -0.345719
C24   C     C_2   0.974352 0.076783 0.218022 -0.127293
H9    H     H_    0.679705 0.176470 0.294524 0.128059
C25   C     C_2   0.814413 0.220320 0.319006 -0.352986
C26   C     C_2   0.975204 0.179900 0.286750 -0.129577
H10   H     H_    0.269284 0.081038 0.209093 0.126707
C27   C     C_R   0.410790 0.790786 0.680987 -0.082943
C28   C     C_R   0.536779 0.464627 0.824385 -0.062154
C29   C     C_R   0.535735 0.911495 0.823258 0.071808
C30   C     C_R   0.508774 0.810511 0.757773 -0.187248
C31   C     C_R   0.361023 0.878894 0.669534 -0.206480
C32   C     C_R   0.428231 0.982745 0.727307 0.073844
C33   C     C_R   0.505799 0.996321 0.806315 0.128255
C34   C     C_R   0.434648 0.073856 0.711647 0.033001
C35   C     C_R   0.472205 0.176255 0.781929 0.059103
C36   C     C_R   0.511751 0.181554 0.859967 -0.214742
C37   C     C_R   0.555727 0.094958 0.868282 -0.232565
C38   C     C_R   0.432768 0.068874 0.631037 0.136273
C39   C     C_R   0.450599 0.161583 0.625093 -0.269225
C40   C     C_R   0.455655 0.259642 0.691962 0.109708
C41   C     C_R   0.485548 0.270509 0.772626 0.071047
C42   C     C_R   0.436686 0.347342 0.677845 0.083844
C43   C     C_R   0.481149 0.447747 0.743036 -0.176990
C44   C     C_R   0.536788 0.374013 0.838669 -0.207546
H11   H     H_    0.642547 0.109347 0.923691 0.147405
H12   H     H_    0.577604 0.387032 0.901620 0.087619
H13   H     H_    0.479739 0.514138 0.729583 0.084358
H14   H     H_    0.458746 0.156555 0.564884 0.138003
H15   H     H_    0.558933 0.745652 0.767719 0.082079
H16   H     H_    0.272188 0.860973 0.614100 0.137736
H17   H     H_    0.540723 0.252633 0.914664 0.124950
H18   H     H_    0.336880 0.666390 0.196133 0.157554
H19   H     H_    0.612508 0.593100 0.307217 0.156111
C45   C     C_2   0.318412 0.601785 0.320129 -0.350687
C46   C     C_2   0.476690 0.611837 0.285570 -0.125997
H20   H     H_    0.766102 0.638424 0.205013 0.129694
C47   C     C_2   0.630826 0.657191 0.182902 -0.347676
C48   C     C_2   0.472685 0.647563 0.217722 -0.125074
H21   H     H_    0.183156 0.620542 0.297995 0.130502
O11   O     O_R   0.421600 0.630430 0.917010 -0.537021
O12   O     O_R   0.793840 0.702190 0.087630 -0.539023
O13   O     O_R   0.964010 0.886170 0.088190 -0.534608
C49   C     C_R   0.629892 0.693678 0.115595 0.748988
O14   O     O_R   0.751460 0.619510 0.917500 -0.549757
O15   O     O_R   0.921330 0.802900 0.916840 -0.557682
C50   C     C_R   0.573879 0.577260 0.892290 0.647854
O16   O     O_R   0.464290 0.713700 0.088350 -0.533478
O17   O     O_3   0.609200 0.818520 0.002630 -0.385725
V3    V     V_3+5 0.884140 0.747190 0.002530 1.332417
O18   O     O_R   0.251150 0.814630 0.917340 -0.543322
C51   C     C_R   0.074779 0.831397 0.893872 0.705001
O19   O     O_R   0.293530 0.897310 0.087470 -0.548227
C52   C     C_R   0.131563 0.933041 0.116326 0.752726
V4    V     V_3+5 0.384070 0.769710 0.002370 1.334298
O20   O     O_3   0.109180 0.698190 0.002460 -0.380881
C53   C     C_3   0.046912 0.478924 0.897344 -0.279479
C54   C     C_3   0.202579 0.449934 0.948079 -0.754564
H22   H     H_    0.250373 0.371757 0.913741 0.230475
H23   H     H_    0.325840 0.505702 0.969622 0.229114
H24   H     H_    0.148177 0.452454 0.004900 0.197276
H25   H     H_    0.098136 0.547781 0.892666 0.223293
H26   H     H_    0.921718 0.494083 0.932211 0.178765
C55   C     C_3   0.631773 0.925630 0.905883 -0.311462
C56   C     C_3   0.562978 0.994694 0.991698 -0.701515
H27   H     H_    0.531322 0.074896 0.006822 0.170567
H28   H     H_    0.434770 0.961840 0.002404 0.264191
H29   H     H_    0.675512 0.000852 0.040999 0.217848
H30   H     H_    0.631898 0.847488 0.897905 0.242186
H31   H     H_    0.775455 0.953869 0.909570 0.190852
C57   C     C_3   0.387294 0.973340 0.548032 -0.356537
C58   C     C_3   0.517162 0.883130 0.521424 -0.736932
H32   H     H_    0.626284 0.890923 0.484811 0.244066
H33   H     H_    0.584617 0.871005 0.573491 0.244929
H34   H     H_    0.432035 0.811423 0.480175 0.196099
H35   H     H_    0.249287 0.942609 0.548833 0.164302
H36   H     H_    0.365974 0.994361 0.495245 0.167484
C59   C     C_3   0.382654 0.337298 0.592113 -0.250162
C60   C     C_3   0.222393 0.260975 0.535511 -0.795736
H37   H     H_    0.152443 0.230614 0.571454 0.232906
H38   H     H_    0.120114 0.293810 0.505271 0.253915
H39   H     H_    0.276408 0.196295 0.482705 0.188843
H40   H     H_    0.339603 0.414443 0.606291 0.235535
H41   H     H_    0.505589 0.311737 0.556732 0.194146
C61   C     C_3   0.958538 0.674724 0.729197 -0.333986
C62   C     C_3   0.147107 0.638741 0.754253 -0.706757
H42   H     H_    0.266428 0.688713 0.758551 0.210228
H43   H     H_    0.146711 0.638245 0.815406 0.214520
H44   H     H_    0.177826 0.561324 0.710897 0.213995
H45   H     H_    0.846703 0.665435 0.765032 0.144157
H46   H     H_    0.910442 0.625645 0.663686 0.220046
C63   C     C_3   0.147831 0.047512 0.911370 -0.393099
C64   C     C_3   0.060377 0.079298 0.993156 -0.819105
H47   H     H_    0.926808 0.118169 0.994731 0.223954
H48   H     H_    0.034716 0.013033 0.006972 0.220338
H49   H     H_    0.161725 0.133994 0.044273 0.226462
H50   H     H_    0.275257 0.010978 0.917471 0.220513
H51   H     H_    0.200130 0.116419 0.906035 0.210505
C65   C     C_3   0.953635 0.026462 0.528314 -0.358217
C66   C     C_3   0.791880 0.041462 0.472851 -0.807299
H52   H     H_    0.753006 0.969785 0.415640 0.219791
H53   H     H_    0.667110 0.064507 0.505150 0.248392
H54   H     H_    0.835256 0.099812 0.451739 0.216673
H55   H     H_    0.074115 0.079488 0.538259 0.176393
H56   H     H_    0.000633 0.950646 0.486030 0.171696

loop_
_geom_bond_atom_site_label_1
_geom_bond_atom_site_label_2
_ccdc_geom_bond_type
C39   H14   S    
C13   C19   A    
C44   H12   S    
C55   H30   S    
C27   C31   A    
C61   C62   S    
C33   C37   A    
C28   C43   A    
C4    C6    S    
C7    C11   A    
C7    C8    A    
C1    O6    A    
C64   H49   S    
O17   V3    S    
C31   C32   A    
C14   C15   A    
C40   C41   A    
C42   C59   S    
C16   C17   A    
O15   V3    S    
O14   V3    S    
C66   H53   S    
O5    C3    A    
C57   H35   S    
O14   C50   A    
C56   H27   S    
C16   H6    S    
V2    O10   S    
O18   V4    S    
C5    C8    A    
C34   C35   A    
C40   C42   A    
C37   H11   S    
C32   C33   A    
O8    V2    S    
C17   H4    S    
C23   C52   S    
O1    V2    S    
O13   V3    S    
C11   C15   A    
C23   H10   S    
C22   H2    S    
C24   C26   S    
C28   C50   S    
C58   H34   S    
C55   H31   S    
C41   C44   A    
C63   H50   S    
H18   C48   S    
O9    C4    A    
O19   C52   A    
H8    C24   S    
C9    C63   S    
C57   C58   S    
V3    O20   S    
C60   H38   S    
C35   C41   A    
C6    C22   A    
C65   C66   S    
C32   C34   A    
O11   V4    S    
C29   C30   A    
C12   C13   A    
C3    C25   S    
C66   H54   S    
C65   H56   S    
O4    C2    A    
C49   O16   A    
H20   C47   S    
C64   H48   S    
C15   H1    S    
C36   C37   A    
C59   H40   S    
C21   H3    S    
C34   C38   A    
C38   C39   A    
O13   C52   A    
C65   H55   S    
O2    C1    A    
C23   C24   D    
C62   H43   S    
C8    C61   S    
C17   C18   A    
C38   C57   S    
C57   H36   S    
C28   C44   A    
C54   H22   S    
C61   H46   S    
C29   C55   S    
C27   C30   A    
V4    O20   S    
H7    C26   S    
C19   C22   A    
C45   C46   D    
C59   C60   S    
O19   V4    S    
H19   C46   S    
C64   H47   S    
O3    C4    A    
C7    H5    S    
C59   H41   S    
O12   C49   A    
C63   H51   S    
O6    V2    S    
O9    V2    S    
C63   C64   S    
C10   C12   A    
C5    C51   S    
C62   H42   S    
O2    V1    S    
C47   C49   S    
C60   H37   S    
C58   H32   S    
O7    V1    S    
C46   C48   S    
C43   H13   S    
C25   C26   D    
C54   H23   S    
O1    C2    A    
C12   C16   A    
C45   H21   S    
O5    V1    S    
O8    C3    A    
C60   H39   S    
O17   V4    S    
C2    C45   S    
O12   V3    S    
C55   C56   S    
C14   C65   S    
C1    C27   S    
C42   C43   A    
O16   V4    S    
C13   C14   A    
C62   H44   S    
O4    V1    S    
O3    V1    S    
V1    O10   S    
C66   H52   S    
C20   C21   A    
C18   C20   A    
C35   C36   A    
C18   C19   A    
C56   H28   S    
C61   H45   S    
O11   C50   A    
O15   C51   A    
O18   C51   A    
C20   C53   S    
C29   C33   A    
O7    V2    S    
C39   C40   A    
C6    C21   A    
C5    C9    A    
C47   C48   D    
H9    C25   S    
C54   H24   S    
C53   C54   S    
C30   H15   S    
C10   C11   A    
C9    C10   A    
C31   H16   S    
C53   H26   S    
C53   H25   S    
C36   H17   S    
C58   H33   S    
C56   H29   S    
