data_mof_unit_19233.cif
_audit_creation_date              2012-10-26T19:48:44-0400
_audit_creation_method            fapswitch 2.2
_symmetry_space_group_name_H-M    P1
_symmetry_Int_Tables_number       1
_space_group_crystal_system       triclinic
_cell_length_a                    11.0068
_cell_length_b                    9.680663
_cell_length_c                    27.627919
_cell_angle_alpha                 88.639862
_cell_angle_beta                  92.07216
_cell_angle_gamma                 89.075236
_cell_volume                      2940.6613782

loop_
_atom_site_label
_atom_site_type_symbol
_atom_type_description
_atom_site_fract_x
_atom_site_fract_y
_atom_site_fract_z
_atom_type_partial_charge
C1    C     C_R   0.259404 0.500539 0.500691 0.547470
C2    C     C_R   0.514042 0.360113 0.975544 0.033373
C3    C     C_R   0.597196 0.594900 0.975897 -0.009142
C4    C     C_R   0.499659 0.500729 0.407529 0.570300
C5    C     C_R   0.552198 0.480571 0.950133 -0.002253
C6    C     C_R   0.477617 0.244862 0.948680 -0.087277
C7    C     C_R   0.474600 0.249359 0.898471 -0.040960
C8    C     C_R   0.505794 0.369586 0.873149 0.043111
C9    C     C_R   0.543430 0.486943 0.898747 -0.072471
C10   C     C_R   0.571730 0.609824 0.872965 -0.003884
C11   C     C_R   0.564797 0.608559 0.821558 0.492160
C12   C     C_R   0.461402 0.564157 0.269778 0.039447
C13   C     C_R   0.499891 0.374626 0.822486 0.474324
C14   C     C_R   0.409068 0.518351 0.721138 0.264669
C15   C     C_R   0.402253 0.518921 0.670572 -0.113837
C16   C     C_R   0.738589 0.499477 0.499688 0.605008
C17   C     C_R   0.619524 0.474918 0.669161 -0.073583
C18   C     C_R   0.627134 0.473141 0.719672 0.261975
C19   C     C_R   0.521727 0.494775 0.745952 0.238791
C20   C     C_R   0.513195 0.359003 0.026901 0.028253
C21   C     C_R   0.572376 0.465783 0.052136 0.038727
C22   C     C_R   0.623123 0.577842 0.026508 0.040331
C23   C     C_R   0.560552 0.483598 0.254709 0.196865
C24   C     C_R   0.455086 0.255186 0.054051 -0.107389
C25   C     C_R   0.713462 0.658163 0.102604 -0.082441
C26   C     C_R   0.608522 0.723103 0.950435 0.235726
C27   C     C_R   0.600667 0.729586 0.899459 0.289078
C28   C     C_R   0.500653 0.498747 0.591971 0.566753
C29   C     C_R   0.702601 0.665135 0.052220 -0.077593
C30   C     C_3   0.064986 0.631384 0.526186 -0.095277
C31   C     C_3   0.066790 0.370968 0.528975 -0.124716
C32   C     C_3   0.925300 0.618742 0.530227 -0.240564
C33   C     C_3   0.926948 0.367748 0.524299 -0.266269
C34   C     C_R   0.580374 0.461296 0.103470 -0.028077
C35   C     C_3   0.065054 0.502926 0.447555 -0.148897
C36   C     C_3   0.119109 0.500808 0.500216 -0.096358
C37   C     C_3   0.875513 0.499656 0.499419 -0.014460
C38   C     C_3   0.923262 0.510791 0.446505 0.384081
C39   C     C_3   0.624711 0.076135 0.514124 0.001362
C40   C     C_3   0.619495 0.911634 0.520589 -0.017473
C41   C     C_3   0.406987 0.082948 0.533281 0.008385
C42   C     C_3   0.399085 0.919359 0.530075 0.002315
C43   C     C_3   0.473224 0.087494 0.451431 0.193813
C44   C     C_3   0.481903 0.921582 0.451063 0.184286
C45   C     C_R   0.519223 0.358832 0.129548 0.029539
C46   C     C_R   0.518342 0.364621 0.180224 0.440779
C47   C     C_R   0.647306 0.560444 0.179533 0.483619
C48   C     C_R   0.631543 0.406185 0.288838 0.303205
C49   C     C_R   0.606229 0.411273 0.337705 -0.056737
C50   C     C_R   0.437196 0.570597 0.319829 -0.069927
C51   C     C_2   0.324656 0.640427 0.334861 0.699524
C52   C     C_2   0.084940 0.774303 0.504590 0.642576
C53   C     C_2   0.109701 0.225516 0.519435 0.606573
C54   C     C_2   0.378128 0.631113 0.232355 0.632109
C55   C     C_2   0.711546 0.137399 0.551812 0.646321
C56   C     C_R   0.456985 0.256268 0.104445 -0.077232
C57   C     C_2   0.661838 0.854509 0.571636 0.673233
C58   C     C_2   0.407275 0.138239 0.584678 0.671982
C59   C     C_2   0.369036 0.849587 0.578391 0.619473
C60   C     C_R   0.648096 0.560586 0.128719 0.028194
C61   C     C_R   0.514095 0.497676 0.354269 -0.069682
C62   C     C_R   0.507171 0.496191 0.644658 -0.024565
Cl1   Cl    Cl    0.750328 0.297418 0.270791 -0.385060
Cl2   Cl    Cl    0.605083 0.882351 0.981117 -0.570865
Cl3   Cl    Cl    0.622265 0.892954 0.870752 -0.382838
Cl4   Cl    Cl    0.769415 0.443228 0.749417 -0.439804
Cl5   Cl    Cl    0.870537 0.669084 0.416854 -0.462327
Cl6   Cl    Cl    0.866553 0.374963 0.409696 -0.564011
Cl7   Cl    Cl    0.335651 0.160141 0.423294 -0.433726
Cl8   Cl    Cl    0.353617 0.852668 0.419044 -0.365325
Cl9   Cl    Cl    0.275766 0.548164 0.752789 -0.451356
Cu1   Cu    Cu3+1 0.499860 0.642410 0.500020 1.091067
Cu2   Cu    Cu3+1 0.499860 0.357590 0.500020 1.064226
H1    H     H_    0.771815 0.730854 0.120976 0.190289
H2    H     H_    0.099611 0.590485 0.426479 0.261107
H3    H     H_    0.100262 0.413739 0.427876 0.175269
H4    H     H_    0.681675 0.093678 0.481913 0.073077
H5    H     H_    0.691741 0.872642 0.496973 0.118858
H6    H     H_    0.542378 0.125534 0.426128 0.141358
H7    H     H_    0.560453 0.892170 0.428962 0.139064
H8    H     H_    0.319707 0.121469 0.517999 0.208036
H9    H     H_    0.313094 0.902909 0.509091 0.207342
H10   H     H_    0.408742 0.176523 0.123655 0.188041
H11   H     H_    0.315418 0.536325 0.651499 0.140328
H12   H     H_    0.701263 0.461138 0.649034 0.153212
H13   H     H_    0.446574 0.157814 0.879521 0.216368
H14   H     H_    0.454119 0.147915 0.965583 0.173402
H15   H     H_    0.402871 0.174868 0.037248 0.139236
H16   H     H_    0.657686 0.344931 0.363011 0.215733
H17   H     H_    0.266536 0.471237 0.370765 0.314985
H18   H     H_    0.016178 0.966345 0.505167 0.395443
H19   H     H_    0.049793 0.214384 0.449538 0.354845
H20   H     H_    0.358774 0.760132 0.174090 0.356017
H21   H     H_    0.743755 0.249347 0.611072 0.336968
H22   H     H_    0.694424 0.884951 0.643182 0.380031
H23   H     H_    0.759437 0.737514 0.033624 0.191496
H24   H     H_    0.322670 0.254498 0.633528 0.349906
H25   H     H_    0.239459 0.766843 0.619328 0.350962
H26   H     H_    0.105027 0.630127 0.563618 0.146277
H27   H     H_    0.090959 0.387852 0.567941 0.152862
H28   H     H_    0.904269 0.600608 0.568979 0.162148
H29   H     H_    0.890286 0.355426 0.561114 0.151289
H30   H     H_    0.876693 0.716317 0.518911 0.218333
H31   H     H_    0.895143 0.278839 0.502879 0.204124
N1    N     N_R   0.578778 0.466979 0.203916 -0.378154
N2    N     N_R   0.529112 0.492584 0.797963 -0.372722
N3    N     N_3   0.500250 0.143650 0.501060 -0.332192
N4    N     N_3   0.500250 0.856350 0.501060 -0.342150
O1    O     O_R   0.317570 0.620260 0.500030 -0.458940
O2    O     O_2   0.465342 0.262392 0.797721 -0.400160
O3    O     O_2   0.710761 0.655592 0.204293 -0.391200
O4    O     O_2   0.593763 0.720780 0.794893 -0.346897
O5    O     O_2   0.299108 0.757209 0.319690 -0.319548
O6    O     O_R   0.243263 0.571709 0.364025 -0.621108
O7    O     O_2   0.130906 0.792700 0.465610 -0.395981
O8    O     O_R   0.036557 0.886777 0.528442 -0.596740
O9    O     O_2   0.126047 0.146228 0.554112 -0.396800
O10   O     O_R   0.110921 0.170499 0.473272 -0.619235
O11   O     O_2   0.269704 0.605176 0.231437 -0.425286
O12   O     O_R   0.317570 0.379740 0.500030 -0.466626
O13   O     O_R   0.424025 0.722483 0.197908 -0.646742
O14   O     O_2   0.816977 0.094559 0.553556 -0.519150
O15   O     O_R   0.676108 0.229586 0.586475 -0.604884
O16   O     O_2   0.706638 0.739202 0.576596 -0.520573
O17   O     O_R   0.660742 0.935272 0.612851 -0.569659
O18   O     O_2   0.486311 0.104893 0.614761 -0.377265
O19   O     O_R   0.314993 0.228657 0.598218 -0.662469
O20   O     O_2   0.441683 0.842554 0.612734 -0.429530
O21   O     O_R   0.251382 0.804383 0.585286 -0.679259
O22   O     O_R   0.499900 0.620250 0.430280 -0.446050
O23   O     O_R   0.499900 0.379750 0.430280 -0.488366
O24   O     O_R   0.682190 0.620260 0.500010 -0.479959
O25   O     O_R   0.682190 0.379740 0.500010 -0.503701
O26   O     O_R   0.499860 0.620280 0.569750 -0.462837
O27   O     O_R   0.499860 0.379720 0.569750 -0.445602
O28   O     O_2   0.455491 0.270772 0.205620 -0.423269

loop_
_geom_bond_atom_site_label_1
_geom_bond_atom_site_label_2
_ccdc_geom_bond_type
C10   C27   A    
Cu2   O23   S    
C8    C13   A    
C22   C29   A    
C33   H31   S    
C14   Cl9   S    
C35   C36   S    
C42   H9    S    
H24   O19   S    
C7    C8    A    
C45   C46   A    
C39   N3    S    
C12   C23   A    
C35   H2    S    
C26   C27   A    
C51   O5    D    
C17   H12   S    
C39   H4    S    
H20   O13   S    
C41   C58   S    
C18   C19   A    
C31   C36   S    
C57   O17   S    
C53   O9    D    
Cu2   N3    S    
C7    H13   S    
C43   H6    S    
C23   N1    S    
C46   N1    A    
H18   O8    S    
C25   H1    S    
C41   C42   S    
C26   Cl2   S    
H19   O10   S    
C1    O1    A    
C47   C60   A    
C39   C55   S    
C20   C24   A    
C45   C56   A    
C8    C9    A    
C47   N1    A    
C31   C33   S    
C44   Cl8   S    
C40   C57   S    
C25   C60   A    
C9    C10   A    
C16   C37   S    
C40   N4    S    
H21   O15   S    
C52   O8    S    
C55   O14   D    
C58   O19   S    
C43   Cl7   S    
Cu2   O12   S    
C21   C22   A    
C34   C60   A    
C2    C6    A    
C16   O25   A    
Cu1   O24   S    
C4    O23   A    
C44   N4    S    
C25   C29   A    
C55   O15   S    
C35   H3    S    
C51   O6    S    
C49   C61   A    
C2    C20   A    
C33   H29   S    
Cu2   O27   S    
C44   H7    S    
C35   C38   S    
C38   Cl5   S    
C39   C40   S    
C53   O10   S    
Cu1   Cu2   S    
C48   Cl1   S    
C4    O22   A    
C21   C34   A    
C50   C51   S    
C59   O20   D    
C32   C37   S    
C4    C61   S    
C33   C37   S    
C6    H14   S    
C1    O12   A    
C43   C44   S    
C5    C9    A    
C37   C38   S    
C27   Cl3   S    
C17   C62   A    
H22   O17   S    
Cu1   O26   S    
C41   H8    S    
C11   N2    A    
C17   C18   A    
C32   H30   S    
C34   C45   A    
C43   N3    S    
C31   H27   S    
C31   C53   S    
C24   H15   S    
C13   O2    S    
C6    C7    A    
C48   C49   A    
C54   O13   S    
C38   Cl6   S    
C58   O18   D    
C28   O26   A    
C2    C5    A    
C18   Cl4   S    
C56   H10   S    
C52   O7    D    
C30   C52   S    
Cu1   O1    S    
C59   O21   S    
C23   C48   A    
C41   N3    S    
C11   O4    S    
C32   H28   S    
C14   C19   A    
C3    C26   A    
C28   O27   A    
C49   H16   S    
C13   N2    A    
C3    C5    A    
C42   C59   S    
C29   H23   S    
C12   C50   A    
Cu1   O22   S    
C15   H11   S    
C24   C56   A    
C30   C36   S    
C57   O16   D    
C30   C32   S    
C47   O3    S    
C30   H26   S    
H25   O21   S    
C15   C62   A    
C40   H5    S    
H17   O6    S    
Cu1   N4    S    
C16   O24   A    
C10   C11   A    
C46   O28   S    
C19   N2    S    
C20   C21   A    
Cu2   O25   S    
C50   C61   A    
C14   C15   A    
C3    C22   A    
C54   O11   D    
C42   N4    S    
C12   C54   S    
C1    C36   S    
C28   C62   S    
