data_mof_unit_42087.cif
_audit_creation_date              2012-12-11T17:47:23-0500
_audit_creation_method            fapswitch 2.2
_symmetry_space_group_name_H-M    P1
_symmetry_Int_Tables_number       1
_space_group_crystal_system       monoclinic
_cell_length_a                    7.210017
_cell_length_b                    23.846472
_cell_length_c                    24.70617
_cell_angle_alpha                 90.0
_cell_angle_beta                  89.999969
_cell_angle_gamma                 90.0
_cell_volume                      4247.8175017

loop_
_atom_site_label
_atom_site_type_symbol
_atom_type_description
_atom_site_fract_x
_atom_site_fract_y
_atom_site_fract_z
_atom_type_partial_charge
O1    O     O_R   0.690340 0.802800 0.195640 -0.513858
O2    O     O_R   0.309660 0.197200 0.804360 -0.526888
O3    O     O_R   0.309660 0.197200 0.695640 -0.513854
O4    O     O_R   0.690340 0.802800 0.304360 -0.526888
O5    O     O_R   0.190340 0.697200 0.304360 -0.513856
O6    O     O_R   0.809660 0.302800 0.695640 -0.526891
O7    O     O_R   0.809660 0.302800 0.804360 -0.513856
O8    O     O_R   0.190340 0.697200 0.195640 -0.526887
O9    O     O_R   0.360590 0.809740 0.303990 -0.518658
O10   O     O_R   0.639410 0.190260 0.696010 -0.519621
O11   O     O_R   0.639410 0.190260 0.803990 -0.518658
O12   O     O_R   0.360590 0.809740 0.196010 -0.519621
O13   O     O_R   0.860590 0.690260 0.196010 -0.518657
O14   O     O_R   0.139410 0.309740 0.803990 -0.519621
O15   O     O_R   0.139410 0.309740 0.696010 -0.518659
O16   O     O_R   0.860590 0.690260 0.303990 -0.519621
C1    C     C_R   0.529800 0.821616 0.323662 0.785561
C2    C     C_R   0.470223 0.178476 0.676284 0.803147
C3    C     C_R   0.470200 0.178384 0.823662 0.785561
C4    C     C_R   0.529777 0.821524 0.176284 0.803150
C5    C     C_R   0.029800 0.678384 0.176338 0.785559
C6    C     C_R   0.970223 0.321524 0.823716 0.803149
C7    C     C_R   0.970200 0.321616 0.676338 0.785563
C8    C     C_R   0.029777 0.678476 0.323716 0.803148
O17   O     O_3   0.523810 0.713070 0.250000 -0.367039
O18   O     O_3   0.476190 0.286930 0.750000 -0.367041
O19   O     O_3   0.023810 0.786930 0.250000 -0.367041
O20   O     O_3   0.976190 0.213070 0.750000 -0.367038
V1    V     V_3+5 0.248970 0.756850 0.250000 1.726511
V2    V     V_3+5 0.751030 0.243150 0.750000 1.726514
V3    V     V_3+5 0.748970 0.743150 0.250000 1.726513
V4    V     V_3+5 0.251030 0.256850 0.750000 1.726513
C9    C     C_R   0.041772 0.638402 0.370908 -0.146743
C10   C     C_R   0.958234 0.361830 0.629231 -0.142606
C11   C     C_R   0.958228 0.361597 0.870908 -0.146743
C12   C     C_R   0.041766 0.638170 0.129231 -0.142607
C13   C     C_R   0.541771 0.861597 0.129092 -0.146746
C14   C     C_R   0.458233 0.138170 0.870769 -0.142606
C15   C     C_R   0.458228 0.138403 0.629092 -0.146740
C16   C     C_R   0.541766 0.861830 0.370769 -0.142606
C17   C     C_R   0.896394 0.599980 0.378618 -0.235139
C18   C     C_R   0.101146 0.401232 0.622456 -0.227814
C19   C     C_R   0.103605 0.400019 0.878618 -0.235139
C20   C     C_R   0.898854 0.598768 0.122456 -0.227805
C21   C     C_R   0.396395 0.900020 0.121383 -0.235145
C22   C     C_R   0.601146 0.098768 0.877544 -0.227811
C23   C     C_R   0.603606 0.099981 0.621382 -0.235134
C24   C     C_R   0.398854 0.901232 0.377543 -0.227811
C25   C     C_R   0.902235 0.560025 0.419868 -0.182354
C26   C     C_R   0.096578 0.440812 0.580860 -0.182036
C27   C     C_R   0.097764 0.439975 0.919869 -0.182353
C28   C     C_R   0.903421 0.559188 0.080860 -0.182035
C29   C     C_R   0.402235 0.939976 0.080132 -0.182354
C30   C     C_R   0.596578 0.059188 0.919140 -0.182035
C31   C     C_R   0.597765 0.060025 0.580131 -0.182352
C32   C     C_R   0.403422 0.940812 0.419140 -0.182035
C33   C     C_R   0.059264 0.554818 0.453418 0.352104
C34   C     C_R   0.941628 0.445156 0.546424 0.357823
C35   C     C_R   0.940735 0.445181 0.953418 0.352104
C36   C     C_R   0.058371 0.554844 0.046424 0.357823
C37   C     C_R   0.559265 0.945182 0.046582 0.352102
C38   C     C_R   0.441628 0.054844 0.953576 0.357824
C39   C     C_R   0.440735 0.054819 0.546582 0.352105
C40   C     C_R   0.558372 0.945156 0.453576 0.357823
C41   C     C_R   0.209650 0.591966 0.445984 -0.089797
C42   C     C_R   0.791971 0.407721 0.553546 -0.077642
C43   C     C_R   0.790349 0.408034 0.945984 -0.089798
C44   C     C_R   0.208029 0.592278 0.053546 -0.077639
C45   C     C_R   0.709649 0.908034 0.054016 -0.089796
C46   C     C_R   0.291971 0.092278 0.946454 -0.077641
C47   C     C_R   0.290349 0.091965 0.554016 -0.089801
C48   C     C_R   0.708029 0.907722 0.446454 -0.077641
C49   C     C_R   0.195089 0.636929 0.408013 0.391504
C50   C     C_R   0.806776 0.362731 0.591508 0.281138
C51   C     C_R   0.804910 0.363071 0.908014 0.391503
C52   C     C_R   0.193224 0.637268 0.091508 0.281132
C53   C     C_R   0.695088 0.863070 0.091986 0.391512
C54   C     C_R   0.306776 0.137268 0.908492 0.281136
C55   C     C_R   0.304909 0.136929 0.591987 0.391497
C56   C     C_R   0.693224 0.862732 0.408492 0.281135
N1    N     N_2   0.074466 0.512133 0.494072 -0.303571
N2    N     N_2   0.926685 0.487685 0.505624 -0.305336
N3    N     N_2   0.925533 0.487867 0.994072 -0.303571
N4    N     N_2   0.073314 0.512315 0.005624 -0.305336
N5    N     N_2   0.574466 0.987867 0.005928 -0.303571
N6    N     N_2   0.426685 0.012315 0.994377 -0.305336
N7    N     N_2   0.425534 0.012133 0.505927 -0.303571
N8    N     N_2   0.573314 0.987685 0.494376 -0.305336
H1    H     H_    0.216949 0.402228 0.650224 0.143576
H2    H     H_    0.776955 0.600265 0.352060 0.175134
H3    H     H_    0.783051 0.597772 0.150224 0.143578
H4    H     H_    0.223044 0.399735 0.852060 0.175134
H5    H     H_    0.716949 0.097772 0.849776 0.143576
H6    H     H_    0.276956 0.899735 0.147941 0.175133
H7    H     H_    0.283052 0.902228 0.349776 0.143576
H8    H     H_    0.723045 0.100265 0.647940 0.175134
H9    H     H_    0.211782 0.469656 0.577311 0.138159
H10   H     H_    0.785748 0.531716 0.424001 0.143042
H11   H     H_    0.788217 0.530344 0.077312 0.138157
H12   H     H_    0.214251 0.468284 0.924001 0.143042
H13   H     H_    0.711783 0.030344 0.922689 0.138157
H14   H     H_    0.285749 0.968284 0.075999 0.143042
H15   H     H_    0.288218 0.969656 0.422688 0.138159
H16   H     H_    0.714252 0.031717 0.575998 0.143041
C57   C     C_3   0.388406 0.580253 0.476820 -0.276822
C58   C     C_3   0.375572 0.598449 0.536448 -0.242129
C59   C     C_3   0.566150 0.598351 0.563402 -0.735762
H17   H     H_    0.627596 0.555713 0.562313 0.221742
H18   H     H_    0.660875 0.628040 0.542518 0.271032
H19   H     H_    0.552231 0.611514 0.606314 0.209144
H20   H     H_    0.314619 0.641073 0.539723 0.241091
H21   H     H_    0.283468 0.569517 0.559113 0.185800
H22   H     H_    0.419193 0.534738 0.475064 0.145311
H23   H     H_    0.509520 0.599645 0.456562 0.237423
C60   C     C_3   0.613395 0.419354 0.522579 -0.289110
C61   C     C_3   0.625168 0.399573 0.463449 -0.240101
C62   C     C_3   0.434635 0.400151 0.436496 -0.730500
H24   H     H_    0.338242 0.371460 0.458034 0.265825
H25   H     H_    0.375842 0.443151 0.436695 0.221314
H26   H     H_    0.447666 0.385937 0.393874 0.209400
H27   H     H_    0.719433 0.427422 0.440220 0.185607
H28   H     H_    0.682928 0.356467 0.461239 0.236206
H29   H     H_    0.491508 0.401090 0.543434 0.224110
H30   H     H_    0.584276 0.464995 0.523195 0.148972
C63   C     C_3   0.611592 0.419747 0.976820 -0.276821
C64   C     C_3   0.624427 0.401550 0.036448 -0.242130
C65   C     C_3   0.433849 0.401649 0.063402 -0.735763
H31   H     H_    0.372403 0.444286 0.062313 0.221742
H32   H     H_    0.339124 0.371960 0.042518 0.271033
H33   H     H_    0.447768 0.388485 0.106314 0.209145
H34   H     H_    0.685380 0.358927 0.039723 0.241090
H35   H     H_    0.716531 0.430482 0.059113 0.185800
H36   H     H_    0.580806 0.465261 0.975064 0.145311
H37   H     H_    0.490479 0.400355 0.956562 0.237423
C66   C     C_3   0.386604 0.580645 0.022579 -0.289109
C67   C     C_3   0.374832 0.600427 0.963449 -0.240103
C68   C     C_3   0.565365 0.599848 0.936496 -0.730492
H38   H     H_    0.661760 0.628539 0.958034 0.265830
H39   H     H_    0.624156 0.556848 0.936694 0.221312
H40   H     H_    0.552335 0.614063 0.893875 0.209400
H41   H     H_    0.280566 0.572578 0.940220 0.185607
H42   H     H_    0.317074 0.643533 0.961240 0.236206
H43   H     H_    0.508492 0.598909 0.043434 0.224111
H44   H     H_    0.415721 0.535004 0.023194 0.148972
C69   C     C_3   0.888406 0.919746 0.023180 -0.276821
C70   C     C_3   0.875570 0.901551 0.963551 -0.242126
C71   C     C_3   0.066147 0.901649 0.936597 -0.735764
H45   H     H_    0.127597 0.944285 0.937687 0.221743
H46   H     H_    0.160870 0.871958 0.957481 0.271030
H47   H     H_    0.052227 0.888487 0.893685 0.209145
H48   H     H_    0.814613 0.858928 0.960276 0.241096
H49   H     H_    0.783468 0.930484 0.940887 0.185799
H50   H     H_    0.919195 0.965261 0.024937 0.145310
H51   H     H_    0.009518 0.900354 0.043437 0.237422
C72   C     C_3   0.113395 0.080645 0.977421 -0.289110
C73   C     C_3   0.125167 0.100427 0.036551 -0.240102
C74   C     C_3   0.934634 0.099848 0.063503 -0.730497
H52   H     H_    0.838240 0.128539 0.041966 0.265827
H53   H     H_    0.875842 0.056848 0.063305 0.221314
H54   H     H_    0.947663 0.114063 0.106125 0.209400
H55   H     H_    0.219432 0.072578 0.059780 0.185607
H56   H     H_    0.182926 0.143533 0.038760 0.236206
H57   H     H_    0.991508 0.098909 0.956565 0.224110
H58   H     H_    0.084277 0.035005 0.976805 0.148973
C75   C     C_3   0.111592 0.080253 0.523180 -0.276821
C76   C     C_3   0.124425 0.098450 0.463552 -0.242132
C77   C     C_3   0.933847 0.098350 0.436599 -0.735761
H59   H     H_    0.872404 0.055713 0.437687 0.221742
H60   H     H_    0.839120 0.128039 0.457483 0.271034
H61   H     H_    0.947765 0.111515 0.393687 0.209144
H62   H     H_    0.185375 0.141074 0.460278 0.241085
H63   H     H_    0.216531 0.069519 0.440887 0.185801
H64   H     H_    0.080808 0.034738 0.524936 0.145311
H65   H     H_    0.990479 0.099643 0.543439 0.237423
C78   C     C_3   0.886604 0.919355 0.477421 -0.289110
C79   C     C_3   0.874831 0.899573 0.536551 -0.240102
C80   C     C_3   0.065363 0.900151 0.563504 -0.730496
H66   H     H_    0.161757 0.871460 0.541966 0.265827
H67   H     H_    0.124156 0.943151 0.563306 0.221312
H68   H     H_    0.052332 0.885936 0.606126 0.209400
H69   H     H_    0.780565 0.927422 0.559780 0.185607
H70   H     H_    0.817071 0.856466 0.538760 0.236206
H71   H     H_    0.008492 0.901090 0.456566 0.224110
H72   H     H_    0.915722 0.964995 0.476806 0.148972
S1    S     S_3+6 0.362129 0.692222 0.409324 0.030475
O21   O     O_2   0.504286 0.680215 0.366497 -0.335672
O22   O     O_2   0.268789 0.746974 0.397350 -0.282431
O23   O     O_3   0.469770 0.699179 0.469363 -0.507071
H73   H     H_    0.501154 0.739484 0.472517 0.387058
S2    S     S_3+6 0.638013 0.307802 0.590949 0.040335
O24   O     O_2   0.541072 0.301955 0.537470 -0.315474
O25   O     O_2   0.728689 0.252721 0.602991 -0.279361
O26   O     O_3   0.479943 0.321772 0.638991 -0.458791
H74   H     H_    0.512341 0.359313 0.653243 0.273790
S3    S     S_3+6 0.637870 0.307778 0.909324 0.030475
O27   O     O_2   0.495714 0.319785 0.866497 -0.335670
O28   O     O_2   0.731211 0.253026 0.897350 -0.282433
O29   O     O_3   0.530227 0.300821 0.969363 -0.507070
H75   H     H_    0.498852 0.260516 0.972518 0.387056
S4    S     S_3+6 0.361992 0.692196 0.090950 0.040322
O30   O     O_2   0.458934 0.698044 0.037471 -0.315469
O31   O     O_2   0.271320 0.747278 0.102993 -0.279388
O32   O     O_3   0.520059 0.678224 0.138992 -0.458789
H76   H     H_    0.487657 0.640683 0.153244 0.273790
S5    S     S_3+6 0.862125 0.807777 0.090675 0.030473
O33   O     O_2   0.004287 0.819784 0.133500 -0.335679
O34   O     O_2   0.768785 0.753026 0.102650 -0.282423
O35   O     O_3   0.969758 0.800819 0.030635 -0.507077
H77   H     H_    0.001188 0.760517 0.027488 0.387067
S6    S     S_3+6 0.138011 0.192197 0.909051 0.040330
O36   O     O_2   0.041068 0.198044 0.962529 -0.315473
O37   O     O_2   0.228685 0.247278 0.897008 -0.279372
O38   O     O_3   0.979943 0.178227 0.861008 -0.458790
H78   H     H_    0.012340 0.140685 0.846757 0.273789
S7    S     S_3+6 0.137867 0.192221 0.590677 0.030476
O39   O     O_2   0.995715 0.180215 0.633506 -0.335664
O40   O     O_2   0.231208 0.246973 0.602649 -0.282440
O41   O     O_3   0.030216 0.199178 0.530639 -0.507066
H79   H     H_    0.998879 0.239485 0.527478 0.387049
S8    S     S_3+6 0.861989 0.807803 0.409051 0.040329
O42   O     O_2   0.958930 0.801955 0.462529 -0.315472
O43   O     O_2   0.771315 0.752722 0.397008 -0.279374
O44   O     O_3   0.020057 0.821773 0.361009 -0.458789
H80   H     H_    0.987659 0.859315 0.346757 0.273789

loop_
_geom_bond_atom_site_label_1
_geom_bond_atom_site_label_2
_ccdc_geom_bond_type
C63   H37   S    
O17   V3    S    
N7    N8    D    
C76   H63   S    
S2    O24   D    
C24   H7    S    
O12   V1    S    
O19   V1    S    
C45   C69   S    
C30   H13   S    
C45   C53   A    
O44   H80   S    
C10   C18   A    
S7    O39   D    
C19   C27   A    
C47   C55   A    
C69   C70   S    
S1    O21   D    
C25   C33   A    
C66   C67   S    
C77   H60   S    
C5    C12   S    
C58   H21   S    
O38   H78   S    
O16   V3    S    
C79   H70   S    
C6    C11   S    
C68   H39   S    
O11   C3    A    
C64   C65   S    
C61   H28   S    
O8    V1    S    
C57   H22   S    
C73   C74   S    
C71   H46   S    
C35   N3    S    
C62   H25   S    
S1    O22   D    
C46   C54   A    
C58   C59   S    
C75   H64   S    
C60   C61   S    
C42   C50   A    
O1    V3    S    
C41   C49   A    
C61   C62   S    
C38   C46   A    
O3    C2    A    
O2    V4    S    
C48   C78   S    
C17   C25   A    
C16   C24   A    
C67   H42   S    
C28   C36   A    
S2    O26   S    
C35   C43   A    
C25   H10   S    
C50   S2    S    
C29   C37   A    
C34   C42   A    
C74   H52   S    
C71   H45   S    
O11   V2    S    
S4    O30   D    
C80   H67   S    
C31   C39   A    
C23   H8    S    
C16   C56   A    
O29   H75   S    
C11   C19   A    
C54   S6    S    
O26   H74   S    
O9    V1    S    
O4    V3    S    
S3    O29   S    
C69   H50   S    
O15   C7    A    
C7    C10   S    
C55   S7    S    
C17   H2    S    
C23   C31   A    
C73   H56   S    
C76   H62   S    
O16   C8    A    
O7    V2    S    
C59   H18   S    
O12   C4    A    
C21   H6    S    
C41   C57   S    
S8    O42   D    
N1    N2    D    
C77   H61   S    
O5    V1    S    
C58   H20   S    
S5    O34   D    
C79   H69   S    
C68   H40   S    
C60   H29   S    
C42   C60   S    
C46   C72   S    
C26   C34   A    
C57   H23   S    
O15   V4    S    
C71   H47   S    
C34   N2    S    
C22   H5    S    
C52   S4    S    
S7    O41   S    
O14   V4    S    
C77   H59   S    
O18   V4    S    
O35   H77   S    
S1    O23   S    
C30   C38   A    
C72   H57   S    
C75   H65   S    
N5    N6    D    
C13   C53   A    
C31   H16   S    
C70   H48   S    
O23   H73   S    
C1    C16   S    
C15   C55   A    
C2    C15   S    
C65   H32   S    
C67   H41   S    
C3    C14   S    
C53   S5    S    
C38   N6    S    
O10   V2    S    
N3    N4    D    
C64   H35   S    
C29   H14   S    
C59   H17   S    
C80   H68   S    
C11   C51   A    
C22   C30   A    
C32   C40   A    
O8    C5    A    
O13   C5    A    
C20   H3    S    
C37   N5    S    
C10   C50   A    
C70   H49   S    
C69   H51   S    
S8    O44   S    
C9    C49   A    
C66   H44   S    
O6    V2    S    
C39   C47   A    
C73   H55   S    
C80   H66   S    
C74   H54   S    
S6    O37   D    
C76   C77   S    
C59   H19   S    
C33   N1    S    
C62   H26   S    
C27   C35   A    
O4    C1    A    
C13   C21   A    
C65   H31   S    
O7    C6    A    
C15   C23   A    
C70   C71   S    
C57   C58   S    
S5    O35   S    
O9    C1    A    
C27   H12   S    
C24   C32   A    
S5    O33   D    
C79   C80   S    
O1    C4    A    
S2    O25   D    
C60   H30   S    
C26   H9    S    
C18   C26   A    
C39   N7    S    
O2    C3    A    
C78   H71   S    
O13   V3    S    
C44   C66   S    
C8    C9    S    
C32   H15   S    
C33   C41   A    
C67   C68   S    
C56   S8    S    
C49   S1    S    
C72   H58   S    
C44   C52   A    
S6    O38   S    
C14   C54   A    
C68   H38   S    
C28   H11   S    
C63   H36   S    
C19   H4    S    
S8    O43   D    
C18   H1    S    
C37   C45   A    
O14   C6    A    
C43   C63   S    
C65   H33   S    
C9    C17   A    
O20   V2    S    
C48   C56   A    
C78   C79   S    
C62   H24   S    
C4    C13   S    
C36   N4    S    
C20   C28   A    
O41   H79   S    
C63   C64   S    
O5    C8    A    
C64   H34   S    
O10   C2    A    
S4    O32   S    
O6    C7    A    
C66   H43   S    
C40   C48   A    
O3    V4    S    
C14   C22   A    
S7    O40   D    
C12   C20   A    
C21   C29   A    
S3    O27   D    
C75   C76   S    
C12   C52   A    
C43   C51   A    
C36   C44   A    
C74   H53   S    
S6    O36   D    
C47   C75   S    
C72   C73   S    
C61   H27   S    
O32   H76   S    
C40   N8    S    
S4    O31   D    
C78   H72   S    
S3    O28   D    
C51   S3    S    
