data_mof_unit_47765.cif
_audit_creation_date              2013-03-05T16:10:51-0500
_audit_creation_method            fapswitch 2.2
_symmetry_space_group_name_H-M    P1
_symmetry_Int_Tables_number       1
_space_group_crystal_system       triclinic
_cell_length_a                    10.899309
_cell_length_b                    9.50118
_cell_length_c                    15.930909
_cell_angle_alpha                 92.079681
_cell_angle_beta                  90.613339
_cell_angle_gamma                 88.904388
_cell_volume                      1648.27514975

loop_
_atom_site_label
_atom_site_type_symbol
_atom_site_description
_atom_site_fract_x
_atom_site_fract_y
_atom_site_fract_z
_atom_type_partial_charge
O1    O     O_R   0.317570 0.620260 0.500050 -0.580780
O2    O     O_R   0.317570 0.379740 0.500050 -0.538493
C1    C     C_R   0.260230 0.501639 0.508318 0.807427
O3    O     O_R   0.499890 0.620310 0.379470 -0.537568
O4    O     O_R   0.499890 0.379690 0.379470 -0.566281
C2    C     C_R   0.497728 0.497429 0.340004 0.807214
Cu1   Cu    Cu3+1 0.499860 0.642410 0.500040 0.925618
Cu2   Cu    Cu3+1 0.499860 0.357590 0.500040 0.922665
O5    O     O_R   0.682190 0.620260 0.500020 -0.600168
O6    O     O_R   0.682190 0.379740 0.500020 -0.601523
O7    O     O_R   0.499870 0.620210 0.620600 -0.588107
O8    O     O_R   0.499870 0.379790 0.620600 -0.592550
C3    C     C_R   0.738841 0.499738 0.507489 0.845548
C4    C     C_R   0.499893 0.502687 0.659408 0.825191
C5    C     C_3   0.393779 0.609953 0.051725 0.789976
C6    C     C_3   0.446802 0.338347 0.034129 0.767546
C7    C     C_3   0.426141 0.371020 0.938868 0.272880
C8    C     C_3   0.418925 0.637611 0.955120 0.169993
H1    H     H_    0.332558 0.646597 0.918030 0.052804
H2    H     H_    0.325857 0.392290 0.929019 0.073692
C9    C     C_1   0.497707 0.510257 0.748516 -0.199901
C10   C     C_3   0.486295 0.486090 0.080005 -0.207295
C11   C     C_3   0.490780 0.508792 0.915457 -0.156194
C12   C     C_3   0.622457 0.508190 0.951126 -0.410206
C13   C     C_3   0.622667 0.519432 0.049667 0.859878
C14   C     C_1   0.494754 0.514538 0.823693 0.071818
C15   C     C_1   0.487893 0.484790 0.173509 0.084895
C16   C     C_1   0.491833 0.490382 0.249575 -0.233420
H3    H     H_    0.674265 0.593912 0.923063 0.189865
H4    H     H_    0.670258 0.409179 0.929021 0.219372
C17   C     C_3   0.065333 0.645836 0.553025 0.067957
C18   C     C_3   0.073277 0.384330 0.570782 0.008617
H5    H     H_    0.092159 0.644639 0.620769 0.076448
H6    H     H_    0.103484 0.416787 0.635456 0.116473
C19   C     C_3   0.921903 0.645888 0.549882 0.065805
C20   C     C_3   0.929753 0.376067 0.565071 0.032466
H7    H     H_    0.884916 0.725328 0.507350 0.193861
H8    H     H_    0.905458 0.276268 0.530423 0.185218
H9    H     H_    0.114303 0.550114 0.382192 0.171475
H10   H     H_    0.108253 0.372052 0.401454 0.168304
C21   C     C_3   0.071006 0.475032 0.423290 -0.362800
C22   C     C_3   0.120782 0.503115 0.513192 -0.105846
C23   C     C_3   0.876621 0.500433 0.511125 -0.126416
C24   C     C_3   0.926849 0.482590 0.417208 0.425601
C25   C     C_3   0.615936 0.078531 0.467785 -0.233155
C26   C     C_3   0.616114 0.912399 0.468211 -0.211643
H11   H     H_    0.695581 0.115773 0.505905 0.156188
H12   H     H_    0.694916 0.876870 0.506646 0.159405
H13   H     H_    0.633112 0.114090 0.403469 0.140968
H14   H     H_    0.633973 0.867537 0.404085 0.147660
H15   H     H_    0.563794 0.122875 0.629358 0.168929
H16   H     H_    0.561862 0.882734 0.629128 0.187996
C27   C     C_3   0.487654 0.087544 0.587957 -0.286323
C28   C     C_3   0.486396 0.921122 0.587747 -0.292192
C29   C     C_3   0.395560 0.083651 0.452000 0.227577
C30   C     C_3   0.397615 0.916179 0.449462 0.216092
N1    N     N_3   0.500250 0.143650 0.501830 -0.145610
N2    N     N_3   0.500250 0.856350 0.501830 -0.141735
H17   H     H_    0.310756 0.117175 0.485130 0.138828
H18   H     H_    0.312047 0.885360 0.478324 0.127418
H19   H     H_    0.402947 0.131120 0.617904 0.164532
H20   H     H_    0.399469 0.886410 0.615780 0.126635
N3    N     N_2   0.887738 0.605137 0.368604 -0.447973
H21   H     H_    0.794254 0.623198 0.366656 0.243649
C31   C     C_3   0.943712 0.630120 0.288139 -0.760746
H22   H     H_    0.023280 0.700133 0.296495 0.228316
H23   H     H_    0.877391 0.685069 0.246771 0.219252
H24   H     H_    0.975564 0.530915 0.256640 0.240062
N4    N     N_2   0.871650 0.355951 0.377030 -0.430434
H25   H     H_    0.782407 0.370376 0.356319 0.250103
C32   C     C_3   0.938880 0.251547 0.326297 -0.773706
H26   H     H_    0.873561 0.185554 0.288979 0.220752
H27   H     H_    0.989945 0.179719 0.367762 0.224195
H28   H     H_    0.001199 0.301037 0.281965 0.232151
N5    N     N_2   0.389134 0.141676 0.368768 -0.363969
H29   H     H_    0.461351 0.124961 0.328217 0.233083
C33   C     C_3   0.270165 0.162126 0.329853 -0.738785
H30   H     H_    0.258088 0.274496 0.314813 0.230076
H31   H     H_    0.194899 0.131994 0.370864 0.202344
H32   H     H_    0.264341 0.096591 0.271238 0.203669
N6    N     N_2   0.399061 0.857275 0.363530 -0.366311
H33   H     H_    0.462557 0.891207 0.321709 0.245123
C34   C     C_3   0.287980 0.797563 0.327762 -0.664849
H34   H     H_    0.243184 0.731066 0.373051 0.260337
H35   H     H_    0.311345 0.729136 0.272233 0.241464
H36   H     H_    0.222021 0.880615 0.309067 0.199775
O9    O     O_3   0.272678 0.563119 0.070368 -0.620832
C35   C     C_3   0.173477 0.608013 0.019087 -0.443528
H37   H     H_    0.162359 0.535037 0.963770 0.172991
H38   H     H_    0.180093 0.717989 0.998996 0.146157
H39   H     H_    0.088032 0.602774 0.055973 0.201279
O10   O     O_3   0.332450 0.276425 0.055796 -0.589187
C36   C     C_3   0.297661 0.279289 0.140791 -0.340625
H40   H     H_    0.257256 0.381656 0.162005 0.227440
H41   H     H_    0.371579 0.248318 0.184085 0.149360
H42   H     H_    0.223504 0.202093 0.146287 0.173094
O11   O     O_3   0.546140 0.237223 0.033436 -0.527964
C37   C     C_3   0.554523 0.150750 0.102970 -0.150247
H43   H     H_    0.476060 0.079270 0.103725 0.180740
H44   H     H_    0.566331 0.212571 0.162622 0.111720
H45   H     H_    0.637909 0.082821 0.095794 0.183354
O12   O     O_3   0.423619 0.731614 0.103287 -0.510611
C38   C     C_3   0.329238 0.835040 0.110118 -0.228477
H46   H     H_    0.243736 0.793823 0.136244 0.168590
H47   H     H_    0.312575 0.886275 0.049546 0.170711
H48   H     H_    0.358788 0.917072 0.156691 0.147023
O13   O     O_3   0.468655 0.255140 0.886591 -0.512864
C39   C     C_3   0.373098 0.200338 0.835279 -0.326263
H49   H     H_    0.331041 0.282791 0.795723 0.141508
H50   H     H_    0.301966 0.152548 0.874215 0.174705
H51   H     H_    0.411742 0.117124 0.792098 0.163131
O14   O     O_3   0.490549 0.760912 0.949764 -0.509115
C40   C     C_3   0.445555 0.850484 0.887342 -0.284683
H52   H     H_    0.350721 0.888569 0.901539 0.135746
H53   H     H_    0.448563 0.797697 0.824046 0.144126
H54   H     H_    0.505458 0.943370 0.886441 0.230254
O15   O     O_3   0.654468 0.658600 0.079107 -0.532019
C41   C     C_3   0.771916 0.701605 0.053687 -0.309319
H55   H     H_    0.760784 0.778995 0.003494 0.192753
H56   H     H_    0.833736 0.614062 0.031054 0.155013
H57   H     H_    0.817748 0.756172 0.107733 0.159305
O16   O     O_3   0.709190 0.414533 0.076655 -0.587223
C42   C     C_3   0.760436 0.436271 0.157791 -0.290908
H58   H     H_    0.725742 0.530636 0.193635 0.193375
H59   H     H_    0.860989 0.443532 0.150930 0.176462
H60   H     H_    0.743097 0.342972 0.195326 0.165247
N7    N     N_2   0.119980 0.773518 0.522071 -0.395490
H61   H     H_    0.175270 0.821692 0.567018 0.235344
C43   C     C_3   0.052710 0.876074 0.473304 -0.765802
H62   H     H_    0.116692 0.953618 0.449504 0.207942
H63   H     H_    0.984774 0.935176 0.512839 0.228440
H64   H     H_    0.007959 0.825704 0.418072 0.265488
N8    N     N_2   0.128218 0.246103 0.552018 -0.394924
H65   H     H_    0.097739 0.196802 0.497402 0.243451
C44   C     C_3   0.139490 0.153023 0.621829 -0.747731
H66   H     H_    0.193835 0.057982 0.602686 0.200309
H67   H     H_    0.048015 0.119250 0.641571 0.237678
H68   H     H_    0.187718 0.205689 0.675694 0.221038
N9    N     N_2   0.870010 0.681536 0.632596 -0.401141
H69   H     H_    0.901544 0.620805 0.680435 0.261420
C45   C     C_3   0.871469 0.828828 0.659475 -0.747574
H70   H     H_    0.820264 0.843905 0.719117 0.232762
H71   H     H_    0.826639 0.895870 0.612433 0.215802
H72   H     H_    0.967297 0.863355 0.670383 0.224297
N10   N     N_2   0.876943 0.374598 0.649464 -0.431125
H73   H     H_    0.935176 0.397264 0.699337 0.242506
C46   C     C_3   0.797213 0.260510 0.668240 -0.718149
H74   H     H_    0.765513 0.272868 0.734182 0.237972
H75   H     H_    0.845132 0.157278 0.659649 0.207171
H76   H     H_    0.716077 0.263731 0.627389 0.269886

loop_
_geom_bond_atom_site_label_1
_geom_bond_atom_site_label_2
_geom_bond_distance
_ccdc_geom_bond_type
C5    C8    1.598077 S    
C29   C30   1.589957 S    
N3    C31   1.454687 S    
C1    C22   1.522472 S    
C36   H40   1.103212 S    
C17   C22   1.587809 S    
C29   H17   1.105143 S    
C44   H68   1.110087 S    
C21   C22   1.542053 S    
C46   H74   1.110867 S    
C17   N7    1.465247 S    
C9    C14   1.197613 T    
O11   C37   1.404090 S    
C42   H58   1.107892 S    
H9    C21   1.101663 S    
C33   H30   1.107752 S    
Cu1   O7    1.939770 S    
C25   N1    1.492405 S    
C7    C11   1.557323 S    
C18   C20   1.569274 S    
C4    C9    1.419212 S    
C19   H7    1.100432 S    
C8    O14   1.425763 S    
C43   H62   1.103836 S    
C7    O13   1.429231 S    
C18   N8    1.455345 S    
O7    C4    1.295814 A    
C6    O11   1.433602 S    
C42   H59   1.106262 S    
C37   H43   1.102618 S    
C7    H2    1.118193 S    
C39   H49   1.112146 S    
Cu1   O5    1.994380 S    
C8    H1    1.109606 S    
C11   C14   1.466017 S    
N4    C32   1.449425 S    
O5    C3    1.299209 A    
C41   H55   1.109937 S    
N5    H29   1.029941 S    
C38   H46   1.108672 S    
N10   C46   1.443861 S    
C12   H3    1.109724 S    
C27   H19   1.109906 S    
C5    C10   1.608757 S    
C2    C16   1.440543 S    
C39   H50   1.111838 S    
C6    C7    1.573013 S    
C31   H23   1.108935 S    
C10   C13   1.608636 S    
C11   C12   1.537914 S    
C17   H5    1.115515 S    
C30   N2    1.503547 S    
C19   C23   1.578711 S    
C13   O16   1.433180 S    
Cu1   N2    2.031933 S    
C40   H54   1.108375 S    
C29   N5    1.454857 S    
C25   H11   1.110149 S    
C36   H41   1.097786 S    
C26   N2    1.492007 S    
O12   C38   1.411256 S    
O3    Cu1   1.924644 S    
O14   C40   1.410202 S    
N6    C34   1.449270 S    
H16   C28   1.112899 S    
N10   H73   1.030772 S    
C41   H56   1.112579 S    
C33   H31   1.102644 S    
C24   N3    1.475247 S    
C26   H12   1.104180 S    
C8    C11   1.558339 S    
C44   H66   1.105757 S    
C46   H76   1.092973 S    
C12   C13   1.569584 S    
O3    C2    1.306293 A    
C45   H72   1.110763 S    
C32   H27   1.105527 S    
C27   N1    1.498511 S    
C42   H60   1.107409 S    
C28   H20   1.112464 S    
C27   C28   1.581406 S    
N6    H33   1.029930 S    
C30   H18   1.093786 S    
O1    C1    1.310583 A    
C41   H57   1.108127 S    
C18   H6    1.112916 S    
C23   C24   1.600810 S    
N7    C43   1.451227 S    
Cu2   N1    2.033840 S    
O4    Cu2   1.939795 S    
C34   H34   1.100245 S    
C35   H39   1.109374 S    
C25   H13   1.109369 S    
Cu2   O8    1.924553 S    
C31   H24   1.103471 S    
C24   N4    1.477474 S    
C38   H47   1.108189 S    
C43   H63   1.108478 S    
N5    C33   1.444086 S    
H10   C21   1.098315 S    
C34   H35   1.107643 S    
C35   H38   1.107748 S    
C6    O10   1.438986 S    
C36   H42   1.108035 S    
C37   H44   1.106547 S    
C10   C15   1.490008 S    
C29   N1    1.493237 S    
N8    H65   1.028101 S    
C21   C24   1.573594 S    
C19   N9    1.465335 S    
O13   C39   1.412687 S    
N7    H61   1.030969 S    
C3    C23   1.502340 S    
C5    O9    1.438348 S    
C40   H52   1.111418 S    
C28   N2    1.488189 S    
C33   H32   1.105321 S    
C44   H67   1.105537 S    
C6    C10   1.622284 S    
C46   H75   1.107125 S    
O1    Cu1   2.001951 S    
O2    Cu2   1.993946 S    
O8    C4    1.301263 A    
O6    C3    1.307972 A    
C13   O15   1.434397 S    
C32   H28   1.108082 S    
N9    H69   1.025012 S    
C37   H45   1.109081 S    
C26   H14   1.110275 S    
C39   H51   1.108927 S    
C43   H64   1.100147 S    
C45   H71   1.104989 S    
O2    C1    1.308557 A    
C32   H26   1.111028 S    
O15   C41   1.418707 S    
N9    C45   1.448892 S    
O4    C2    1.302679 A    
C20   H8    1.114613 S    
O10   C36   1.409205 S    
C30   N6    1.460164 S    
C38   H48   1.106424 S    
C17   C19   1.563542 S    
C5    O12   1.434021 S    
N4    H25   1.032032 S    
C12   H4    1.114246 S    
Cu1   Cu2   2.706125 S    
N3    H21   1.030353 S    
C25   C26   1.578669 S    
C20   N10   1.468778 S    
C34   H36   1.104070 S    
C35   H37   1.108427 S    
O9    C35   1.416739 S    
Cu2   O6    2.002385 S    
C31   H22   1.107014 S    
C15   C16   1.211384 T    
N8    C44   1.448584 S    
C18   C22   1.578363 S    
C20   C23   1.583371 S    
H15   C27   1.104205 S    
O16   C42   1.412437 S    
C45   H70   1.110495 S    
C40   H53   1.110308 S    
