data_mof_unit_46433.cif
_audit_creation_date              2012-12-10T16:53:06-0500
_audit_creation_method            fapswitch 2.2
_symmetry_space_group_name_H-M    P1
_symmetry_Int_Tables_number       1
_space_group_crystal_system       triclinic
_cell_length_a                    10.808461
_cell_length_b                    10.895611
_cell_length_c                    9.690844
_cell_angle_alpha                 89.907741
_cell_angle_beta                  89.310138
_cell_angle_gamma                 91.093392
_cell_volume                      1140.9477385

loop_
_atom_site_label
_atom_site_type_symbol
_atom_type_description
_atom_site_fract_x
_atom_site_fract_y
_atom_site_fract_z
_atom_type_partial_charge
C1    C     C_R   0.499480 0.265173 0.500085 0.849248
C2    C     C_R   0.067964 0.604711 0.576957 0.050334
C3    C     C_R   0.129096 0.510994 0.503254 -0.065149
C4    C     C_R   0.062653 0.425999 0.424601 -0.188919
C5    C     C_R   0.935105 0.428366 0.422994 -0.214026
C6    C     C_R   0.871877 0.518962 0.495200 -0.088318
C7    C     C_2   0.441812 0.934304 0.390670 -0.070206
C8    C     C_2   0.469429 0.865715 0.502299 -0.385507
C9    C     C_2   0.445728 0.069468 0.397958 -0.240776
C10   C     C_2   0.498881 0.132615 0.500834 -0.313583
C11   C     C_2   0.425954 0.430687 0.923193 -0.050282
C12   C     C_R   0.262576 0.502614 0.500999 0.783926
C13   C     C_2   0.428660 0.427910 0.078885 -0.037088
C14   C     C_R   0.487308 0.733748 0.499968 0.881977
C15   C     C_R   0.737598 0.507345 0.498940 0.851953
C16   C     C_R   0.133695 0.693128 0.655711 -0.165042
C17   C     C_R   0.072333 0.787400 0.722388 -0.165937
C18   C     C_R   0.946657 0.802072 0.702747 -0.186569
C19   C     C_R   0.880111 0.720429 0.618766 0.244088
C20   C     C_R   0.937805 0.613762 0.565610 0.067636
Cu1   Cu    Cu3+1 0.500020 0.500020 0.638630 0.952987
Cu2   Cu    Cu3+1 0.499980 0.499980 0.361370 0.975263
H1    H     H_    0.109823 0.354890 0.367543 0.142694
H2    H     H_    0.542095 0.089415 0.587974 0.145917
H3    H     H_    0.359260 0.370747 0.872767 0.153693
H4    H     H_    0.564526 0.553148 0.892984 0.199532
H5    H     H_    0.367042 0.362795 0.131216 0.143268
H6    H     H_    0.554479 0.563240 0.105179 0.200306
H7    H     H_    0.232933 0.692511 0.665755 0.169079
H8    H     H_    0.123926 0.853729 0.783012 0.164269
H9    H     H_    0.902643 0.882569 0.744692 0.140240
H10   H     H_    0.885118 0.357533 0.366894 0.150243
H11   H     H_    0.481734 0.907061 0.602684 0.156755
H12   H     H_    0.404105 0.119323 0.313517 0.164742
N1    N     N_2   0.498640 0.498660 0.846910 -0.280345
N2    N     N_2   0.498610 0.498630 0.153040 -0.271977
O1    O     O_R   0.500020 0.321960 0.617040 -0.576492
O2    O     O_R   0.499980 0.321920 0.382900 -0.581040
O3    O     O_R   0.319670 0.500020 0.617100 -0.594535
O4    O     O_R   0.319630 0.499980 0.382950 -0.553511
O5    O     O_R   0.500020 0.678080 0.617100 -0.582445
O6    O     O_R   0.499980 0.678040 0.382960 -0.553171
O7    O     O_R   0.680370 0.500020 0.617050 -0.570583
O8    O     O_R   0.680330 0.499980 0.382900 -0.583424
N3    N     N_2   0.765205 0.759532 0.566840 -0.435497
H13   H     H_    0.713575 0.808106 0.637589 0.248981
C21   C     C_3   0.774807 0.820168 0.433215 -0.688859
H14   H     H_    0.732592 0.912292 0.438347 0.217410
H15   H     H_    0.725438 0.764340 0.355058 0.248784
H16   H     H_    0.872501 0.832815 0.397391 0.236053
C22   C     C_2   0.399668 0.879870 0.257947 0.909425
O9    O     O_2   0.318095 0.800723 0.258333 -0.539980
O10   O     O_R   0.448414 0.921206 0.131530 -0.752958
H17   H     H_    0.518141 0.983830 0.142120 0.287417

loop_
_geom_bond_atom_site_label_1
_geom_bond_atom_site_label_2
_ccdc_geom_bond_type
C12   O4    A    
C19   N3    S    
O10   H17   S    
Cu1   N1    S    
C2    C16   A    
C9    C10   D    
C19   C20   A    
Cu1   O3    S    
C1    O1    A    
C14   O6    A    
C5    H10   S    
Cu2   O4    S    
C12   O3    A    
C11   N1    D    
C2    C3    A    
C3    C12   S    
C7    C22   S    
C7    C8    D    
C21   H15   S    
Cu1   Cu2   S    
C17   H8    S    
C11   C13   S    
C16   H7    S    
Cu2   O6    S    
C6    C20   A    
C13   N2    D    
C14   O5    A    
Cu1   O5    S    
C1    O2    A    
C15   O8    A    
C17   C18   A    
C21   H16   S    
C8    H11   S    
N3    C21   S    
C5    C6    A    
C16   C17   A    
C11   H3    S    
C15   O7    A    
C22   O9    D    
Cu2   O2    S    
N3    H13   S    
H4    N1    S    
Cu2   N2    S    
H6    N2    S    
Cu1   O1    S    
C18   C19   A    
C7    C9    S    
C4    H1    S    
C13   H5    S    
C8    C14   S    
C18   H9    S    
C10   H2    S    
C6    C15   S    
Cu1   O7    S    
C2    C20   A    
Cu2   O8    S    
C1    C10   S    
C21   H14   S    
C9    H12   S    
C4    C5    A    
C22   O10   S    
C3    C4    A    
