data_mof_unit_59461.cif
_audit_creation_date              2012-12-10T18:05:46-0500
_audit_creation_method            fapswitch 2.2
_symmetry_space_group_name_H-M    P1
_symmetry_Int_Tables_number       1
_space_group_crystal_system       triclinic
_cell_length_a                    10.886462
_cell_length_b                    10.820787
_cell_length_c                    9.546462
_cell_angle_alpha                 89.98488
_cell_angle_beta                  91.074106
_cell_angle_gamma                 90.205535
_cell_volume                      1124.36918962

loop_
_atom_site_label
_atom_site_type_symbol
_atom_type_description
_atom_site_fract_x
_atom_site_fract_y
_atom_site_fract_z
_atom_type_partial_charge
C1    C     C_R   0.499098 0.262166 0.499920 0.791862
C2    C     C_R   0.478308 0.063720 0.624663 -0.208901
C3    C     C_R   0.498143 0.871675 0.499770 -0.000851
C4    C     C_R   0.497415 0.128246 0.499662 -0.016153
C5    C     C_R   0.460852 0.398873 0.073358 -0.012682
C6    C     C_R   0.539223 0.601096 0.926641 -0.015781
C7    C     C_R   0.460985 0.398870 0.924977 -0.029471
C8    C     C_R   0.539111 0.601088 0.075025 -0.019253
C9    C     C_R   0.262237 0.501530 0.498399 0.820079
C10   C     C_R   0.737811 0.499543 0.501665 0.802474
C11   C     C_R   0.201662 0.694768 0.067793 -0.226826
C12   C     C_R   0.499494 0.737811 0.499986 0.799991
C13   C     C_R   0.813660 0.308935 0.941358 -0.257142
C14   C     C_R   0.150402 0.673656 0.199719 0.549494
C15   C     C_R   0.857296 0.329802 0.804524 0.550172
C16   C     C_R   0.112469 0.553396 0.235746 0.034539
C17   C     C_R   0.888433 0.451382 0.765492 0.049856
C18   C     C_R   0.122341 0.457019 0.138666 -0.192289
C19   C     C_R   0.873345 0.549485 0.859339 -0.198698
C20   C     C_R   0.171859 0.479296 0.007494 -0.133159
C21   C     C_R   0.827659 0.527666 0.992320 -0.133995
C22   C     C_R   0.211107 0.598075 0.971680 -0.182432
C23   C     C_R   0.871791 0.500594 0.504593 -0.076943
C24   C     C_R   0.798120 0.407607 0.033505 -0.166436
C25   C     C_R   0.931263 0.526523 0.379464 -0.254860
C26   C     C_R   0.068871 0.478083 0.621152 -0.222042
C27   C     C_3   0.044771 0.845168 0.259932 -0.354177
C28   C     C_3   0.789267 0.141219 0.714965 -0.342110
C29   C     C_R   0.128309 0.502889 0.495841 -0.074076
C30   C     C_R   0.941978 0.477010 0.627608 0.062767
C31   C     C_R   0.058262 0.527616 0.373136 0.060586
C32   C     C_R   0.515310 0.063984 0.374367 -0.188980
C33   C     C_R   0.479281 0.935901 0.624868 -0.187035
C34   C     C_R   0.515447 0.936162 0.374374 -0.172063
Cu1   Cu    Cu3+1 0.500000 0.500020 0.640660 0.939270
Cu2   Cu    Cu3+1 0.500000 0.499980 0.359340 0.948232
H1    H     H_    0.250329 0.614985 0.870143 0.174550
H2    H     H_    0.815054 0.604396 0.063079 0.117207
H3    H     H_    0.878689 0.547566 0.285566 0.148656
H4    H     H_    0.121459 0.457707 0.715150 0.151915
H5    H     H_    0.530173 0.112207 0.276642 0.137480
H6    H     H_    0.464802 0.887640 0.722653 0.139464
H7    H     H_    0.530149 0.888140 0.276606 0.134020
H8    H     H_    0.463169 0.111774 0.722309 0.136260
H9    H     H_    0.427815 0.318041 0.127634 0.116517
H10   H     H_    0.572261 0.681930 0.872363 0.112679
H11   H     H_    0.956782 0.792364 0.253940 0.147861
H12   H     H_    0.763514 0.390640 0.137255 0.171571
H13   H     H_    0.061028 0.894011 0.159373 0.157166
H14   H     H_    0.035319 0.916473 0.342457 0.205390
H15   H     H_    0.695384 0.179234 0.728319 0.168957
H16   H     H_    0.811992 0.073981 0.799370 0.159350
H17   H     H_    0.788879 0.090218 0.614157 0.197596
H18   H     H_    0.428046 0.318045 0.869292 0.111082
H19   H     H_    0.572097 0.681896 0.130709 0.105557
H20   H     H_    0.234448 0.785960 0.040118 0.137417
H21   H     H_    0.792796 0.216817 0.978049 0.126335
H22   H     H_    0.092392 0.364477 0.165143 0.145958
H23   H     H_    0.897413 0.642913 0.829317 0.138438
H24   H     H_    0.181522 0.403481 0.934915 0.131717
N1    N     N_R   0.500030 0.500030 0.852070 -0.156761
N2    N     N_R   0.499970 0.499970 0.147930 -0.155834
O1    O     O_R   0.499990 0.319660 0.618740 -0.599602
O2    O     O_3   0.879626 0.234866 0.709926 -0.594130
O3    O     O_R   0.500010 0.680340 0.381260 -0.588292
O4    O     O_R   0.499990 0.319630 0.381170 -0.597627
O5    O     O_R   0.500010 0.680370 0.618830 -0.602665
O6    O     O_R   0.319650 0.500020 0.618780 -0.598000
O7    O     O_R   0.680350 0.499980 0.381220 -0.599289
O8    O     O_R   0.319640 0.500000 0.381210 -0.566863
O9    O     O_R   0.680360 0.500000 0.618790 -0.573003
O10   O     O_3   0.144348 0.768057 0.296808 -0.584046

loop_
_geom_bond_atom_site_label_1
_geom_bond_atom_site_label_2
_ccdc_geom_bond_type
C25   C31   A    
C2    C4    A    
C15   O2    S    
C23   C30   A    
C15   C17   A    
C19   C21   A    
C6    N1    A    
C9    C29   S    
C10   C23   S    
C20   H24   S    
C12   O3    A    
C11   C22   A    
Cu1   Cu2   S    
C3    C34   A    
C27   H14   S    
Cu1   O5    S    
C32   H5    S    
C1    C4    S    
C19   H23   S    
C10   O9    A    
C13   C15   A    
C1    O4    A    
C9    O6    A    
Cu1   O9    S    
C29   C31   A    
C25   H3    S    
C28   H17   S    
C17   C30   S    
C28   H16   S    
C26   H4    S    
C4    C32   A    
C5    H9    S    
Cu1   O6    S    
Cu2   N2    S    
C33   H6    S    
C28   O2    S    
C2    C33   A    
C16   C18   A    
C12   O5    A    
C20   C22   A    
C5    N2    A    
C26   C30   A    
Cu2   O4    S    
C18   C20   A    
C23   C25   A    
Cu2   O8    S    
C28   H15   S    
C14   C16   A    
C13   H21   S    
C11   H20   S    
C27   H11   S    
C9    O8    A    
C24   H12   S    
C10   O7    A    
C1    O1    A    
Cu2   O7    S    
C8    H19   S    
C26   C29   A    
Cu1   N1    S    
C21   C24   A    
C8    N2    A    
C11   C14   A    
C5    C7    A    
C3    C33   A    
Cu2   O3    S    
C21   H2    S    
C6    C8    A    
C3    C12   S    
C6    H10   S    
C7    H18   S    
C17   C19   A    
C34   H7    S    
C22   H1    S    
C14   O10   S    
Cu1   O1    S    
C18   H22   S    
C7    N1    A    
C27   O10   S    
C27   H13   S    
C13   C24   A    
C2    H8    S    
C16   C31   S    
C32   C34   A    
