data_mof_unit_48987.cif
_audit_creation_date              2012-12-10T17:25:57-0500
_audit_creation_method            fapswitch 2.2
_symmetry_space_group_name_H-M    P1
_symmetry_Int_Tables_number       1
_space_group_crystal_system       triclinic
_cell_length_a                    26.177142
_cell_length_b                    25.829722
_cell_length_c                    22.236609
_cell_angle_alpha                 90.000871
_cell_angle_beta                  126.006181
_cell_angle_gamma                 89.998696
_cell_volume                      12162.8155801

loop_
_atom_site_label
_atom_site_type_symbol
_atom_type_description
_atom_site_fract_x
_atom_site_fract_y
_atom_site_fract_z
_atom_type_partial_charge
C1    C     C_R   0.900304 0.750042 0.300654 0.856836
C2    C     C_R   0.099697 0.249953 0.699358 0.838759
C3    C     C_R   0.099695 0.750040 0.699346 0.856856
C4    C     C_R   0.900303 0.249953 0.300641 0.838700
C5    C     C_R   0.400304 0.250041 0.300654 0.856907
C6    C     C_R   0.599697 0.749953 0.699358 0.838386
C7    C     C_R   0.599696 0.250041 0.699346 0.856926
C8    C     C_R   0.400303 0.749953 0.300641 0.838688
C9    C     C_3   0.191230 0.743153 0.975198 0.151782
C10   C     C_3   0.808506 0.259778 0.024744 0.153374
C11   C     C_3   0.808430 0.741124 0.024811 0.151614
C12   C     C_3   0.191116 0.257719 0.975265 0.153617
C13   C     C_3   0.691746 0.240208 0.975185 0.151699
C14   C     C_3   0.309017 0.756825 0.024730 0.153746
C15   C     C_3   0.308633 0.242261 0.024806 0.151790
C16   C     C_3   0.691309 0.758868 0.975261 0.153545
C17   C     C_1   0.139559 0.750187 0.778649 -0.118825
C18   C     C_1   0.860507 0.249818 0.221314 -0.131611
C19   C     C_1   0.860435 0.750197 0.221351 -0.118535
C20   C     C_1   0.139490 0.249825 0.778686 -0.131645
C21   C     C_1   0.639565 0.250200 0.778649 -0.118700
C22   C     C_1   0.360510 0.749827 0.221314 -0.131647
C23   C     C_1   0.360438 0.250191 0.221351 -0.118896
C24   C     C_1   0.639489 0.749824 0.778687 -0.131582
C25   C     C_3   0.268082 0.711087 0.975134 -0.223864
C26   C     C_3   0.729804 0.286882 0.024783 -0.236901
C27   C     C_3   0.730274 0.712463 0.024860 -0.223290
C28   C     C_3   0.268562 0.288301 0.975216 -0.237212
C29   C     C_3   0.770443 0.213104 0.975139 -0.223267
C30   C     C_3   0.232160 0.788890 0.024787 -0.237302
C31   C     C_3   0.231193 0.211679 0.024862 -0.223716
C32   C     C_3   0.769470 0.787529 0.975219 -0.236998
C33   C     C_3   0.214100 0.750166 0.926424 0.149874
C34   C     C_3   0.786152 0.249770 0.073511 0.151576
C35   C     C_3   0.785894 0.750205 0.073576 0.149690
C36   C     C_3   0.213852 0.249802 0.926489 0.151526
C37   C     C_3   0.714100 0.250219 0.926424 0.149662
C38   C     C_3   0.286147 0.749813 0.073511 0.151470
C39   C     C_3   0.285898 0.250181 0.073576 0.149826
C40   C     C_3   0.713845 0.749789 0.926490 0.151477
C41   C     C_1   0.173228 0.750216 0.845386 -0.029831
C42   C     C_1   0.826939 0.249761 0.154564 -0.046094
C43   C     C_1   0.826765 0.750239 0.154614 -0.029573
C44   C     C_1   0.173060 0.249779 0.845436 -0.046156
C45   C     C_1   0.673233 0.250247 0.845386 -0.029803
C46   C     C_1   0.326940 0.749785 0.154564 -0.046140
C47   C     C_1   0.326770 0.250224 0.154614 -0.029922
C48   C     C_1   0.673056 0.749774 0.845436 -0.046058
C49   C     C_R   0.729425 0.719225 0.366117 0.149262
C50   C     C_R   0.242896 0.333596 0.574458 0.159599
C51   C     C_R   0.270478 0.718543 0.633572 0.149525
C52   C     C_R   0.756931 0.333454 0.425218 0.159667
C53   C     C_R   0.229559 0.218310 0.366534 0.149629
C54   C     C_R   0.743507 0.833086 0.575622 0.159780
C55   C     C_R   0.770480 0.218544 0.633573 0.149616
C56   C     C_R   0.256903 0.833434 0.425174 0.159663
C57   C     C_R   0.683446 0.680843 0.321842 0.002034
C58   C     C_R   0.298982 0.353428 0.639401 -0.004734
C59   C     C_R   0.316206 0.679888 0.677383 0.001811
C60   C     C_R   0.700808 0.353145 0.360178 -0.004819
C61   C     C_R   0.183917 0.179564 0.322880 0.001663
C62   C     C_R   0.799723 0.852418 0.640903 -0.004780
C63   C     C_R   0.816213 0.179892 0.677387 0.001697
C64   C     C_R   0.200774 0.853113 0.360128 -0.004725
C65   C     C_R   0.655720 0.654284 0.350767 -0.290673
C66   C     C_R   0.355847 0.326960 0.669385 -0.298683
C67   C     C_R   0.343748 0.653470 0.648129 -0.290565
C68   C     C_R   0.643995 0.326624 0.330308 -0.298482
C69   C     C_R   0.156435 0.153197 0.352244 -0.290575
C70   C     C_R   0.856403 0.825759 0.670476 -0.298255
C71   C     C_R   0.843756 0.153474 0.648133 -0.290638
C72   C     C_R   0.143968 0.826585 0.330272 -0.298553
C73   C     C_R   0.664735 0.670819 0.416255 0.161496
C74   C     C_R   0.359822 0.287202 0.629674 0.180363
C75   C     C_R   0.334850 0.670382 0.582851 0.161432
C76   C     C_R   0.640095 0.286959 0.370192 0.180347
C77   C     C_R   0.165294 0.170238 0.417450 0.161369
C78   C     C_R   0.860108 0.786329 0.630147 0.180257
C79   C     C_R   0.834852 0.170384 0.582850 0.161414
C80   C     C_R   0.140080 0.786927 0.370174 0.180343
C81   C     C_R   0.701413 0.716045 0.452297 0.018243
C82   C     C_R   0.304850 0.273696 0.558465 0.021435
C83   C     C_R   0.298418 0.715799 0.547319 0.018339
C84   C     C_R   0.695098 0.273585 0.441448 0.021468
C85   C     C_R   0.201640 0.215720 0.452807 0.018352
C86   C     C_R   0.805029 0.773303 0.558771 0.021538
C87   C     C_R   0.798419 0.215801 0.547319 0.018332
C88   C     C_R   0.195088 0.773568 0.441434 0.021465
C89   C     C_R   0.140202 0.750139 0.500099 0.785061
C90   C     C_R   0.859778 0.250122 0.500310 0.841222
C91   C     C_R   0.859804 0.750140 0.499903 0.784781
C92   C     C_R   0.140220 0.250121 0.499690 0.840929
C93   C     C_R   0.640202 0.250140 0.500099 0.784865
C94   C     C_R   0.359777 0.750121 0.500308 0.841207
C95   C     C_R   0.359796 0.250141 0.499901 0.785119
C96   C     C_R   0.640222 0.750126 0.499682 0.841988
C97   C     C_R   0.745484 0.729422 0.438433 -0.016109
C98   C     C_R   0.246341 0.286570 0.543248 -0.015371
C99   C     C_R   0.254432 0.729110 0.561345 -0.016103
C100  C     C_R   0.753582 0.286488 0.456615 -0.015417
C101  C     C_R   0.245597 0.229005 0.438728 -0.016081
C102  C     C_R   0.746609 0.786277 0.543739 -0.015463
C103  C     C_R   0.754433 0.229110 0.561346 -0.016115
C104  C     C_R   0.253568 0.786474 0.456592 -0.015401
C105  C     C_R   0.696079 0.750655 0.498620 -0.178711
C106  C     C_R   0.303445 0.250815 0.499241 -0.175207
C107  C     C_R   0.303920 0.750639 0.501354 -0.178556
C108  C     C_R   0.696548 0.250812 0.500755 -0.174991
C109  C     C_R   0.196070 0.250644 0.498635 -0.178515
C110  C     C_R   0.803466 0.750818 0.499247 -0.174646
C111  C     C_R   0.803925 0.250644 0.501363 -0.178573
C112  C     C_R   0.196546 0.750806 0.500751 -0.175046
C113  C     C_R   0.881308 0.946896 0.435200 0.028836
C114  C     C_R   0.118686 0.054242 0.579176 0.001016
C115  C     C_R   0.118691 0.946896 0.564791 0.028747
C116  C     C_R   0.881311 0.054250 0.420874 0.001068
C117  C     C_R   0.381329 0.446902 0.435362 0.028723
C118  C     C_R   0.618690 0.554248 0.578747 0.001205
C119  C     C_R   0.618663 0.446867 0.564691 0.028764
C120  C     C_R   0.381324 0.554251 0.421041 0.001060
C121  C     C_R   0.827695 0.975859 0.411840 -0.244175
C122  C     C_R   0.172678 0.028704 0.596419 -0.114483
C123  C     C_R   0.172301 0.975863 0.588156 -0.244263
C124  C     C_R   0.827319 0.028702 0.403611 -0.114646
C125  C     C_R   0.327753 0.475869 0.412145 -0.244357
C126  C     C_R   0.672624 0.528661 0.595885 -0.114721
C127  C     C_R   0.672234 0.475800 0.587803 -0.244388
C128  C     C_R   0.327370 0.528715 0.403918 -0.114453
C129  C     C_R   0.941037 0.027487 0.461762 -0.018600
C130  C     C_R   0.058924 0.972529 0.534052 0.035329
C131  C     C_R   0.058960 0.027483 0.538255 -0.018681
C132  C     C_R   0.941074 0.972531 0.465949 0.035269
C133  C     C_R   0.441047 0.527488 0.461849 -0.018717
C134  C     C_R   0.558915 0.472524 0.533974 0.035517
C135  C     C_R   0.558962 0.527487 0.538077 -0.018583
C136  C     C_R   0.441085 0.472533 0.466034 0.035376
C137  C     C_R   1.000000 0.054022 0.500005 -0.148288
C138  C     C_R   0.999999 0.945847 0.499999 -0.170260
C139  C     C_R   0.500004 0.554023 0.499978 -0.148210
C140  C     C_R   0.499998 0.445848 0.500012 -0.170080
C141  C     C_R   0.000000 0.889950 0.500000 0.935350
C142  C     C_R   0.000004 0.110082 0.500004 0.772846
C143  C     C_R   0.499991 0.389950 0.499994 0.935447
C144  C     C_R   0.499992 0.610082 0.499989 0.772593
C145  C     C_R   0.000000 0.610146 0.500001 0.782396
C146  C     C_R   0.999999 0.389854 0.500000 0.783231
C147  C     C_R   0.500001 0.110145 0.499997 0.782450
C148  C     C_R   0.500002 0.889853 0.500000 0.783334
C149  C     C_R   0.942054 0.553872 0.556510 -0.138286
C150  C     C_R   0.056553 0.446093 0.441898 -0.134596
C151  C     C_R   0.057941 0.553867 0.443488 -0.138258
C152  C     C_R   0.943397 0.446098 0.558048 -0.134815
C153  C     C_R   0.441834 0.053870 0.556235 -0.138259
C154  C     C_R   0.556912 0.946091 0.442323 -0.135163
C155  C     C_R   0.558191 0.053865 0.443787 -0.138353
C156  C     C_R   0.443203 0.946099 0.557805 -0.134708
C157  C     C_R   0.914115 0.526820 0.584411 -0.127160
C158  C     C_R   0.085084 0.473040 0.414670 -0.111939
C159  C     C_R   0.085861 0.526812 0.415564 -0.127108
C160  C     C_R   0.914866 0.473048 0.585276 -0.112300
C161  C     C_R   0.413795 0.026819 0.584011 -0.127132
C162  C     C_R   0.585563 0.973039 0.415245 -0.112932
C163  C     C_R   0.586277 0.026812 0.416067 -0.127240
C164  C     C_R   0.414560 0.973047 0.584895 -0.112125
C165  C     C_R   0.971072 0.472708 0.528090 0.079226
C166  C     C_R   0.029289 0.527295 0.472334 0.073686
C167  C     C_R   0.028907 0.472706 0.471890 0.079249
C168  C     C_R   0.970704 0.527297 0.527661 0.073670
C169  C     C_R   0.470972 0.972708 0.527959 0.079236
C170  C     C_R   0.529427 0.027293 0.472498 0.073637
C171  C     C_R   0.529076 0.972705 0.472090 0.079202
C172  C     C_R   0.470595 0.027296 0.527520 0.073683
C173  C     C_R   0.999994 0.445941 0.499995 -0.140634
C174  C     C_R   0.000001 0.554068 0.500003 -0.145948
C175  C     C_R   0.500012 0.945940 0.500011 -0.140764
C176  C     C_R   0.500002 0.054067 0.499997 -0.146039
C177  C     C_3   0.747161 0.202825 0.024514 -0.195040
C178  C     C_3   0.255975 0.796093 0.975404 -0.183781
C179  C     C_3   0.254866 0.203546 0.975478 -0.195023
C180  C     C_3   0.746000 0.796853 0.024593 -0.184089
C181  C     C_3   0.244270 0.703884 0.024522 -0.195075
C182  C     C_3   0.753089 0.297161 0.975413 -0.184505
C183  C     C_3   0.753741 0.703139 0.975481 -0.195197
C184  C     C_3   0.244886 0.296434 0.024595 -0.184042
H1    H     H_    0.107693 0.547691 0.393934 0.137895
H2    H     H_    0.893646 0.452095 0.607598 0.135026
H3    H     H_    0.892285 0.547702 0.606043 0.137914
H4    H     H_    0.106283 0.452084 0.392323 0.135050
H5    H     H_    0.608196 0.047692 0.394545 0.137951
H6    H     H_    0.393269 0.952093 0.607131 0.135066
H7    H     H_    0.391880 0.047700 0.605540 0.137923
H8    H     H_    0.606902 0.952084 0.393067 0.134999
H9    H     H_    0.216508 0.956868 0.607715 0.142684
H10   H     H_    0.782650 0.048902 0.376724 0.180210
H11   H     H_    0.783489 0.956860 0.392272 0.142676
H12   H     H_    0.217348 0.048904 0.623325 0.180249
H13   H     H_    0.716418 0.456779 0.607323 0.142659
H14   H     H_    0.282710 0.548918 0.377111 0.180258
H15   H     H_    0.283562 0.456874 0.392653 0.142676
H16   H     H_    0.717280 0.548853 0.622592 0.180187
H17   H     H_    0.941234 0.595689 0.558378 0.126639
H18   H     H_    0.056025 0.404313 0.438570 0.112531
H19   H     H_    0.058777 0.595683 0.441637 0.126673
H20   H     H_    0.943896 0.404316 0.561344 0.112614
H21   H     H_    0.441008 0.095686 0.558102 0.126825
H22   H     H_    0.556452 0.904308 0.439061 0.112893
H23   H     H_    0.558989 0.095681 0.441886 0.126796
H24   H     H_    0.443722 0.904318 0.561133 0.112689
H25   H     H_    0.743794 0.164633 0.044848 0.151340
H26   H     H_    0.261677 0.833333 0.955053 0.153889
H27   H     H_    0.259873 0.165996 0.955135 0.151357
H28   H     H_    0.741900 0.834763 0.044945 0.153798
H29   H     H_    0.238565 0.666631 0.044865 0.151370
H30   H     H_    0.756453 0.335350 0.955072 0.153655
H31   H     H_    0.757845 0.665226 0.955137 0.151327
H32   H     H_    0.239882 0.333982 0.044946 0.153745
H33   H     H_    0.712444 0.316258 0.045242 0.150977
H34   H     H_    0.283549 0.680023 0.954641 0.163072
H35   H     H_    0.284616 0.318878 0.954752 0.151026
H36   H     H_    0.713502 0.682558 0.045353 0.163928
H37   H     H_    0.216685 0.819965 0.045255 0.151127
H38   H     H_    0.787794 0.183740 0.954653 0.164381
H39   H     H_    0.786251 0.817445 0.954752 0.151130
H40   H     H_    0.215147 0.181114 0.045352 0.163488
H41   H     H_    0.898617 0.836635 0.724212 0.147772
H42   H     H_    0.127439 0.119309 0.324105 0.150985
H43   H     H_    0.101809 0.837723 0.276644 0.147747
H44   H     H_    0.872824 0.119643 0.676407 0.150979
H45   H     H_    0.397979 0.338215 0.722965 0.147736
H46   H     H_    0.626459 0.620611 0.322103 0.150855
H47   H     H_    0.601841 0.337773 0.276683 0.147752
H48   H     H_    0.372810 0.619636 0.676399 0.150927
O1    O     O_3   0.000000 0.750000 0.500000 -0.481371
O2    O     O_3   1.000000 0.250000 0.500000 -0.480075
O3    O     O_3   0.500000 0.250000 0.500000 -0.481363
O4    O     O_3   0.500000 0.750000 0.500000 -0.480091
O5    O     O_R   0.887450 0.719640 0.335600 -0.639456
O6    O     O_R   0.112550 0.280360 0.664400 -0.621212
O7    O     O_R   0.112550 0.719640 0.664400 -0.639575
O8    O     O_R   0.887450 0.280360 0.335600 -0.621079
O9    O     O_R   0.387450 0.219640 0.335600 -0.639556
O10   O     O_R   0.612550 0.780360 0.664400 -0.621040
O11   O     O_R   0.612550 0.219640 0.664400 -0.639506
O12   O     O_R   0.387450 0.780360 0.335600 -0.621198
O13   O     O_R   0.094250 0.780350 0.456890 -0.664868
O14   O     O_R   0.905750 0.219650 0.543110 -0.654505
O15   O     O_R   0.905750 0.780350 0.543110 -0.664805
O16   O     O_R   0.094250 0.219650 0.456890 -0.654536
O17   O     O_R   0.594250 0.280350 0.456890 -0.664881
O18   O     O_R   0.405750 0.719650 0.543110 -0.654514
O19   O     O_R   0.405750 0.280350 0.543110 -0.664906
O20   O     O_R   0.594250 0.719650 0.456890 -0.654511
O21   O     O_R   0.008810 0.865800 0.456890 -0.621181
O22   O     O_R   0.991190 0.134200 0.543110 -0.652913
O23   O     O_R   0.991190 0.865800 0.543110 -0.621144
O24   O     O_R   0.008810 0.134200 0.456890 -0.652956
O25   O     O_R   0.508810 0.365800 0.456890 -0.621246
O26   O     O_R   0.491190 0.634200 0.543110 -0.652815
O27   O     O_R   0.491190 0.365800 0.543110 -0.621086
O28   O     O_R   0.508810 0.634200 0.456890 -0.652748
O29   O     O_R   0.948090 0.634190 0.456900 -0.637100
O30   O     O_R   0.051910 0.365810 0.543100 -0.649280
O31   O     O_R   0.051910 0.634190 0.543100 -0.637128
O32   O     O_R   0.948090 0.365810 0.456900 -0.649244
O33   O     O_R   0.448090 0.134190 0.456900 -0.637138
O34   O     O_R   0.551910 0.865810 0.543100 -0.649256
O35   O     O_R   0.551910 0.134190 0.543100 -0.637116
O36   O     O_R   0.448090 0.865810 0.456900 -0.649277
O37   O     O_R   0.137350 0.719630 0.543100 -0.648782
O38   O     O_R   0.862650 0.280370 0.456900 -0.649583
O39   O     O_R   0.862650 0.719630 0.456900 -0.648639
O40   O     O_R   0.137350 0.280370 0.543100 -0.649489
O41   O     O_R   0.637350 0.219630 0.543100 -0.648859
O42   O     O_R   0.362650 0.780370 0.456900 -0.649595
O43   O     O_R   0.362650 0.219630 0.456900 -0.648859
O44   O     O_R   0.637350 0.780370 0.543100 -0.649818
O45   O     O_R   0.948170 0.780360 0.335600 -0.636207
O46   O     O_R   0.051830 0.219640 0.664400 -0.650378
O47   O     O_R   0.051830 0.780360 0.664400 -0.636095
O48   O     O_R   0.948170 0.219640 0.335600 -0.650433
O49   O     O_R   0.448170 0.280360 0.335600 -0.636145
O50   O     O_R   0.551830 0.719640 0.664400 -0.650422
O51   O     O_R   0.551830 0.280360 0.664400 -0.636148
O52   O     O_R   0.448170 0.719640 0.335600 -0.650460
Zn1   Zn    Zn3+2 0.074160 0.706620 0.561580 0.980703
Zn2   Zn    Zn3+2 0.925840 0.293380 0.438420 0.984376
Zn3   Zn    Zn3+2 0.925840 0.706620 0.438420 0.980788
Zn4   Zn    Zn3+2 0.074160 0.293380 0.561580 0.984278
Zn5   Zn    Zn3+2 0.574160 0.206620 0.561580 0.980638
Zn6   Zn    Zn3+2 0.425840 0.793380 0.438420 0.984278
Zn7   Zn    Zn3+2 0.425840 0.206620 0.438420 0.980689
Zn8   Zn    Zn3+2 0.574160 0.793380 0.561580 0.984343
Zn9   Zn    Zn3+2 0.012590 0.793370 0.438410 1.003965
Zn10  Zn    Zn3+2 0.987410 0.206630 0.561590 0.974679
Zn11  Zn    Zn3+2 0.987410 0.793370 0.561590 1.004080
Zn12  Zn    Zn3+2 0.012590 0.206630 0.438410 0.974602
Zn13  Zn    Zn3+2 0.512590 0.293370 0.438410 1.003868
Zn14  Zn    Zn3+2 0.487410 0.706630 0.561590 0.974573
Zn15  Zn    Zn3+2 0.487410 0.293370 0.561590 1.003924
Zn16  Zn    Zn3+2 0.512590 0.706630 0.438410 0.974670
C185  C     C_2   0.868481 0.890842 0.420540 0.355476
H49   H     H_    0.849822 0.869476 0.445719 0.058315
O53   O     O_2   0.873936 0.869177 0.375796 -0.584926
C186  C     C_2   0.129567 0.105540 0.615200 0.352587
H50   H     H_    0.103239 0.116571 0.636684 0.089915
O54   O     O_2   0.170194 0.134964 0.624587 -0.611431
C187  C     C_2   0.131524 0.890842 0.579446 0.355448
H51   H     H_    0.150202 0.869482 0.554283 0.058481
O55   O     O_2   0.126059 0.869169 0.624178 -0.584968
C188  C     C_2   0.870426 0.105578 0.384924 0.352763
H52   H     H_    0.896711 0.116632 0.363393 0.089785
O56   O     O_2   0.829847 0.135005 0.375661 -0.611399
C189  C     C_2   0.368461 0.390859 0.420589 0.355510
H53   H     H_    0.349732 0.369468 0.445669 0.058487
O57   O     O_2   0.373945 0.369236 0.375842 -0.585024
C190  C     C_2   0.629665 0.605641 0.614574 0.353196
H54   H     H_    0.603502 0.616793 0.636226 0.089259
O58   O     O_2   0.670184 0.635024 0.623588 -0.611370
C191  C     C_2   0.631533 0.390837 0.579651 0.355608
H55   H     H_    0.650342 0.369365 0.554722 0.058154
O59   O     O_2   0.625966 0.369319 0.624394 -0.584813
C192  C     C_2   0.370389 0.605551 0.384999 0.352756
H56   H     H_    0.396672 0.616594 0.363461 0.089680
O60   O     O_2   0.329772 0.634963 0.375663 -0.611425
N1    N     N_3   0.125470 0.735241 0.946415 -0.451726
H57   H     H_    0.123682 0.733116 0.992075 0.186201
H58   H     H_    0.100623 0.768522 0.916790 0.183074
N2    N     N_3   0.873669 0.270942 0.053507 -0.449760
H59   H     H_    0.875244 0.274696 0.007831 0.196970
H60   H     H_    0.900536 0.238334 0.083030 0.185658
N3    N     N_3   0.873806 0.730967 0.053599 -0.451650
H61   H     H_    0.875484 0.727767 0.007942 0.186373
H62   H     H_    0.900062 0.763776 0.083222 0.183119
N4    N     N_3   0.125521 0.266610 0.946516 -0.449730
H63   H     H_    0.123813 0.269265 0.992197 0.197414
H64   H     H_    0.100075 0.233496 0.916987 0.185514
N5    N     N_3   0.626575 0.229039 0.946386 -0.451632
H65   H     H_    0.624959 0.225342 0.992038 0.186416
H66   H     H_    0.599690 0.261617 0.916767 0.183142
N6    N     N_3   0.374768 0.764729 0.053475 -0.449657
H67   H     H_    0.376518 0.766912 0.007791 0.197746
H68   H     H_    0.399595 0.731416 0.083004 0.185347
N7    N     N_3   0.374238 0.233364 0.053593 -0.451711
H69   H     H_    0.375984 0.230766 0.007936 0.186232
H70   H     H_    0.399703 0.266446 0.083218 0.183115
N8    N     N_3   0.625941 0.769019 0.946511 -0.449637
H71   H     H_    0.624303 0.772274 0.992192 0.197440
H72   H     H_    0.599703 0.736179 0.916982 0.185528
N9    N     N_3   0.749599 0.753257 0.332512 -0.394549
H73   H     H_    0.771266 0.786503 0.364565 0.166926
H74   H     H_    0.781461 0.733710 0.326869 0.266355
N10   N     N_3   0.188383 0.366726 0.532581 -0.409250
H75   H     H_    0.155994 0.352607 0.478715 0.149891
H76   H     H_    0.166502 0.369138 0.559424 0.269606
N11   N     N_3   0.250627 0.752468 0.667628 -0.394792
H77   H     H_    0.229092 0.785855 0.635887 0.167176
H78   H     H_    0.218730 0.732938 0.673227 0.266578
N12   N     N_3   0.811350 0.366690 0.466997 -0.409166
H79   H     H_    0.843753 0.352680 0.520925 0.149993
H80   H     H_    0.833261 0.369077 0.440185 0.269705
N13   N     N_3   0.249302 0.252194 0.332325 -0.394910
H81   H     H_    0.270791 0.285630 0.363956 0.167236
H82   H     H_    0.281211 0.232667 0.326742 0.266652
N14   N     N_3   0.689325 0.866597 0.534112 -0.409064
H83   H     H_    0.656884 0.852867 0.480025 0.150216
H84   H     H_    0.667348 0.868918 0.560852 0.269970
N15   N     N_3   0.750625 0.252465 0.667628 -0.394833
H85   H     H_    0.729088 0.285853 0.635889 0.166950
H86   H     H_    0.718730 0.232932 0.673228 0.266549
N16   N     N_3   0.311311 0.866682 0.466938 -0.409251
H87   H     H_    0.343717 0.852683 0.520872 0.149979
H88   H     H_    0.333221 0.869067 0.440125 0.269712
C193  C     C_2   0.664367 0.665792 0.246744 0.424206
H89   H     H_    0.628713 0.636067 0.215813 0.052348
O61   O     O_2   0.687590 0.685772 0.218272 -0.565010
C194  C     C_2   0.300803 0.400872 0.678435 0.420469
H90   H     H_    0.345670 0.414430 0.727114 0.049952
O62   O     O_2   0.253212 0.425332 0.657751 -0.554651
C195  C     C_2   0.335218 0.664422 0.752316 0.424147
H91   H     H_    0.370667 0.634496 0.782875 0.052488
O63   O     O_2   0.312165 0.684280 0.781059 -0.564979
C196  C     C_2   0.698897 0.400497 0.320934 0.420690
H92   H     H_    0.654000 0.413971 0.272217 0.049973
O64   O     O_2   0.746446 0.424968 0.341479 -0.554605
C197  C     C_2   0.164926 0.163959 0.248002 0.424180
H93   H     H_    0.129544 0.133968 0.217567 0.052651
O65   O     O_2   0.187922 0.183773 0.219167 -0.564995
C198  C     C_2   0.801868 0.899541 0.680678 0.420567
H94   H     H_    0.846841 0.912797 0.729493 0.049954
O66   O     O_2   0.754426 0.924051 0.660480 -0.554767
C199  C     C_2   0.835233 0.164432 0.752325 0.424374
H95   H     H_    0.870689 0.134511 0.782888 0.052634
O67   O     O_2   0.812180 0.184289 0.781069 -0.565012
C200  C     C_2   0.198849 0.900460 0.320867 0.420429
H96   H     H_    0.153948 0.913925 0.272147 0.049957
O68   O     O_2   0.246392 0.924938 0.341402 -0.554716
N17   N     N_3   0.649088 0.634812 0.452356 -0.436344
H97   H     H_    0.600003 0.632130 0.422188 0.231545
H98   H     H_    0.668846 0.646098 0.506982 0.238667
N18   N     N_3   0.416086 0.256076 0.668452 -0.449415
H99   H     H_    0.453340 0.277875 0.676701 0.224708
H100  H     H_    0.410123 0.222349 0.639029 0.173622
N19   N     N_3   0.350406 0.634627 0.546399 -0.436471
H101  H     H_    0.399484 0.631830 0.576601 0.231655
H102  H     H_    0.330768 0.646242 0.491932 0.238372
N20   N     N_3   0.583873 0.255785 0.331567 -0.449147
H103  H     H_    0.546606 0.277588 0.323282 0.224726
H104  H     H_    0.589899 0.222113 0.361117 0.173483
N21   N     N_3   0.149769 0.134571 0.454020 -0.436502
H105  H     H_    0.100693 0.131734 0.423805 0.231679
H106  H     H_    0.169364 0.146297 0.508434 0.238279
N22   N     N_3   0.916226 0.755032 0.668372 -0.449110
H107  H     H_    0.953520 0.776842 0.676746 0.224601
H108  H     H_    0.910037 0.721501 0.638494 0.173158
N23   N     N_3   0.850407 0.134630 0.546397 -0.436485
H109  H     H_    0.899484 0.131831 0.576599 0.231663
H110  H     H_    0.830768 0.146244 0.491928 0.238357
N24   N     N_3   0.083863 0.755747 0.331567 -0.449317
H111  H     H_    0.046595 0.777549 0.323280 0.224663
H112  H     H_    0.089899 0.722081 0.361132 0.173478

loop_
_geom_bond_atom_site_label_1
_geom_bond_atom_site_label_2
_ccdc_geom_bond_type
C192  O60   D    
C126  C127  A    
C34   C42   S    
C147  O33   A    
C32   H39   S    
C79   C87   A    
C152  C165  A    
C170  C176  A    
C185  H49   S    
C135  C139  A    
C80   N24   S    
C38   C181  S    
O8    Zn2   S    
C65   H46   S    
O2    Zn10  S    
N19   H102  S    
C197  H93   S    
C155  H23   S    
N17   H98   S    
C92   C109  S    
C8    O12   A    
C30   C38   S    
C120  C133  A    
O3    Zn13  S    
C122  H12   S    
C88   C104  A    
C147  O35   A    
C120  C192  S    
C116  C188  S    
O18   Zn14  S    
O20   Zn16  S    
C150  C158  A    
N24   H112  S    
C68   H47   S    
C136  C140  A    
C4    C18   S    
C27   H36   S    
O2    Zn4   S    
C98   C109  A    
C29   C177  S    
C51   C99   A    
C82   C98   A    
C25   H34   S    
C6    O50   A    
C36   C179  S    
O41   Zn5   S    
O38   Zn2   S    
C58   C194  S    
N5    H65   S    
C183  H31   S    
C29   H38   S    
C188  O56   D    
C166  C174  A    
C115  C123  A    
C84   C100  A    
N6    H67   S    
C147  C176  S    
C27   C35   S    
O14   Zn10  S    
C153  C161  A    
C190  H54   S    
C1    O45   A    
O4    Zn14  S    
C14   C38   S    
C3    O47   A    
N11   H77   S    
C66   H45   S    
C14   N6    S    
N10   H75   S    
C73   N17   S    
C15   C39   S    
C16   C40   S    
C87   C103  A    
C26   C182  S    
N18   H100  S    
C63   C71   A    
C133  C139  A    
C157  C160  A    
C79   N23   S    
C158  C159  A    
C10   C182  S    
N20   H104  S    
C36   C44   S    
C37   C45   S    
C130  C138  A    
C13   N5    S    
C7    O51   A    
C39   C47   S    
C126  H16   S    
C40   C48   S    
C86   C110  A    
N23   H110  S    
C138  C141  S    
O32   Zn2   S    
C11   C35   S    
C130  C131  A    
C33   C41   S    
C80   C88   A    
C92   O40   A    
N22   H108  S    
C89   O13   A    
C3    C17   S    
C61   C69   A    
C51   N11   S    
C156  H24   S    
C27   C183  S    
C200  H96   S    
C49   C97   A    
O51   Zn15  S    
C129  C137  A    
C100  C111  A    
C124  H10   S    
O33   Zn7   S    
C32   C180  S    
C34   C177  S    
O34   Zn8   S    
N21   H105  S    
C104  C107  A    
C10   N2    S    
O29   Zn3   S    
O11   Zn5   S    
O30   Zn4   S    
C137  C142  S    
C191  O59   D    
N9    H73   S    
O31   Zn1   S    
C15   C179  S    
C69   C77   A    
C155  C170  A    
C140  C143  S    
C69   H42   S    
C71   C79   A    
N16   H87   S    
C92   O16   A    
C117  C189  S    
C168  C174  A    
O27   Zn15  S    
C15   N7    S    
N22   H107  S    
O3    Zn7   S    
C18   C42   T    
O47   Zn11  S    
C189  O57   D    
C170  C171  A    
C37   C182  S    
O46   Zn10  S    
C49   C57   A    
N14   H83   S    
C178  H26   S    
C57   C193  S    
C180  H28   S    
C74   N18   S    
C52   C60   A    
C59   C67   A    
O10   Zn8   S    
O1    Zn9   S    
C198  H94   S    
C72   H43   S    
C55   C63   A    
C8    C22   S    
C56   C64   A    
C35   C43   S    
C189  H53   S    
C39   C184  S    
C40   C183  S    
C16   C27   S    
C186  O54   D    
O7    Zn1   S    
C77   C85   A    
C119  C191  S    
C90   C111  S    
C164  H6    S    
C94   O18   A    
C20   C44   T    
C194  O62   D    
C21   C45   T    
C81   C105  A    
C94   C107  S    
C50   C98   A    
C119  C134  A    
C23   C47   T    
C24   C48   T    
C143  O27   A    
N4    H63   S    
C179  H27   S    
C1    O5    A    
C52   C100  A    
O36   Zn6   S    
C151  C159  A    
C114  C131  A    
C93   O41   A    
C95   C106  S    
O9    Zn7   S    
N3    H62   S    
N8    H72   S    
C5    C23   S    
C6    C24   S    
C30   C178  S    
N12   H80   S    
O42   Zn6   S    
C28   C36   S    
C14   C178  S    
C9    C30   S    
C153  H21   S    
C198  O66   D    
N11   H78   S    
C11   C32   S    
N7    H70   S    
C12   C31   S    
C145  O29   A    
C96   O44   A    
C13   C26   S    
C67   C75   A    
C29   C37   S    
C86   C102  A    
C101  C106  A    
C199  O67   D    
C118  C190  S    
C154  C162  A    
C123  H9    S    
O3    Zn5   S    
N2    H59   S    
C12   N4    S    
C2    O46   A    
C134  C135  A    
C54   N14   S    
C68   C76   A    
C142  O22   A    
C149  C168  A    
C159  H1    S    
C28   C184  S    
C72   C80   A    
N17   H97   S    
C149  C157  A    
C153  C172  A    
O48   Zn12  S    
C154  C171  A    
C82   C106  A    
C128  H14   S    
C38   C46   S    
C9    C181  S    
C31   H40   S    
C113  C121  A    
C145  C174  S    
C155  C163  A    
C6    O10   A    
C181  H29   S    
C197  O65   D    
C117  C125  A    
C16   C180  S    
C25   C33   S    
C115  C130  A    
C63   C199  S    
C96   C105  S    
C196  H92   S    
C113  C132  A    
C71   H44   S    
C143  O25   A    
C76   C84   A    
C195  H91   S    
C90   O38   A    
C162  H8    S    
N13   H82   S    
C89   C112  S    
C91   C110  S    
N6    H68   S    
C85   C109  A    
C193  O61   D    
C93   C108  S    
C8    O52   A    
C184  H32   S    
C87   C111  A    
C132  C138  A    
C95   O43   A    
C102  C105  A    
C190  O58   D    
C148  O34   A    
O1    Zn1   S    
N19   H101  S    
C53   C101  A    
N10   H76   S    
C145  O31   A    
C163  H5    S    
C146  O32   A    
C160  H2    S    
C167  C173  A    
C129  C132  A    
C192  H56   S    
C83   C99   A    
C26   H33   S    
C9    C33   S    
C50   N10   S    
C74   C82   A    
C127  H13   S    
N5    H66   S    
C19   C43   T    
C30   H37   S    
C185  O53   D    
C91   O15   A    
C1    C19   S    
C2    C20   S    
C187  H51   S    
C50   C58   A    
C157  H3    S    
C56   C104  A    
O23   Zn11  S    
O49   Zn13  S    
O24   Zn12  S    
C56   N16   S    
N18   H99   S    
C54   C62   A    
C7    C21   S    
O52   Zn16  S    
O19   Zn15  S    
O1    Zn3   S    
C158  H4    S    
N21   H106  S    
O21   Zn9   S    
N3    H61   S    
C131  C137  A    
C169  C175  A    
N15   H86   S    
C64   C200  S    
C200  O68   D    
C73   C81   A    
O12   Zn6   S    
C22   C46   T    
C67   H48   S    
C28   H35   S    
C89   O37   A    
C150  H18   S    
C95   O19   A    
O5    Zn3   S    
C161  C164  A    
O6    Zn4   S    
C58   C66   A    
C162  C163  A    
C188  H52   S    
C116  C124  A    
C77   N21   S    
C54   C102  A    
C57   C65   A    
C94   O42   A    
N16   H88   S    
C120  C128  A    
O39   Zn3   S    
C61   C197  S    
C141  O21   A    
C148  O36   A    
O4    Zn16  S    
O43   Zn7   S    
C10   C29   S    
C75   C83   A    
C15   C28   S    
C12   C184  S    
C13   C177  S    
C150  C167  A    
C90   O14   A    
C84   C108  A    
N14   H84   S    
C146  O30   A    
C14   C25   S    
N1    H57   S    
C191  H55   S    
C88   C112  A    
C62   C198  S    
C60   C68   A    
C113  C185  S    
C31   C179  S    
N20   H103  S    
C152  H20   S    
C117  C136  A    
O4    Zn6   S    
C121  H11   S    
C118  C135  A    
C3    O7    A    
C66   C74   A    
O17   Zn13  S    
N7    H69   S    
C152  C160  A    
O15   Zn11  S    
C70   C78   A    
N15   H85   S    
C70   H41   S    
C76   N20   S    
C142  O24   A    
C199  H95   S    
C5    O49   A    
O37   Zn1   S    
C91   O39   A    
C134  C140  A    
N4    H64   S    
C195  O63   D    
C165  C173  A    
C146  C173  S    
C55   C103  A    
C156  C169  A    
C65   C73   A    
O16   Zn12  S    
N1    H58   S    
C177  H25   S    
C121  C124  A    
C55   N15   S    
C26   C34   S    
C116  C129  A    
C83   C107  A    
C125  C128  A    
C103  C108  A    
C12   C36   S    
C144  O26   A    
C13   C37   S    
C78   C86   A    
C32   C40   S    
N9    H74   S    
C11   N3    S    
C62   C70   A    
C78   N22   S    
C53   C61   A    
C161  H7    S    
O44   Zn8   S    
C25   C181  S    
C4    O8    A    
C148  C175  S    
C141  O23   A    
C53   N13   S    
O35   Zn5   S    
C11   C183  S    
C93   O17   A    
N2    H60   S    
O13   Zn9   S    
C2    O6    A    
C125  H15   S    
O28   Zn16  S    
C49   N9    S    
O2    Zn2   S    
C171  C175  A    
O1    Zn11  S    
C187  O55   D    
O2    Zn12  S    
C16   N8    S    
C133  C136  A    
C139  C144  S    
N23   H109  S    
C114  C186  S    
C10   C34   S    
O3    Zn15  S    
O4    Zn8   S    
C52   N12   S    
C154  H22   S    
C186  H50   S    
C9    N1    S    
C165  C168  A    
C166  C167  A    
C169  C172  A    
C51   C59   A    
C115  C187  S    
C149  H17   S    
C85   C101  A    
C194  H90   S    
O50   Zn14  S    
N24   H111  S    
O25   Zn13  S    
C35   C180  S    
C196  O64   D    
C33   C178  S    
C151  H19   S    
O22   Zn10  S    
O40   Zn4   S    
C151  C166  A    
N13   H81   S    
C75   N19   S    
C193  H89   S    
C97   C110  A    
N8    H71   S    
C81   C97   A    
O26   Zn14  S    
C4    O48   A    
C99   C112  A    
C60   C196  S    
C31   C39   S    
C64   C72   A    
C59   C195  S    
N12   H79   S    
C144  O28   A    
C17   C41   T    
C114  C122  A    
C172  C176  A    
O45   Zn9   S    
C156  C164  A    
C7    O11   A    
C182  H30   S    
C96   O20   A    
C118  C126  A    
C5    O9    A    
C122  C123  A    
C119  C127  A    
