data_mof_unit_38047.cif
_audit_creation_date              2012-12-11T20:55:39-0500
_audit_creation_method            fapswitch 2.2
_symmetry_space_group_name_H-M    P1
_symmetry_Int_Tables_number       1
_space_group_crystal_system       triclinic
_cell_length_a                    8.312925
_cell_length_b                    19.088624
_cell_length_c                    22.755573
_cell_angle_alpha                 99.374973
_cell_angle_beta                  90.431947
_cell_angle_gamma                 91.999183
_cell_volume                      3560.18864833

loop_
_atom_site_label
_atom_site_type_symbol
_atom_type_description
_atom_site_fract_x
_atom_site_fract_y
_atom_site_fract_z
_atom_type_partial_charge
Ba1   Ba    Ba6+2 0.157290 0.533910 0.474710 1.658004
Ba2   Ba    Ba6+2 0.652900 0.466090 0.525240 1.646050
C1    C     C_3   0.357989 0.727403 0.262647 -0.374451
C2    C     C_R   0.988594 0.272197 0.480154 0.058728
C3    C     C_R   0.138063 0.187465 0.551141 -0.153361
C4    C     C_3   0.924022 0.724288 0.349828 0.373327
C5    C     C_R   0.204980 0.254358 0.545602 0.002256
C6    C     C_R   0.674633 0.810855 0.446617 -0.161765
C7    C     C_R   0.607562 0.744199 0.452776 0.002652
C8    C     C_R   0.861117 0.800749 0.526159 -0.150020
C9    C     C_R   0.825234 0.726678 0.517727 0.055625
C10   C     C_R   0.020006 0.153655 0.509703 0.001032
C11   C     C_R   0.119469 0.298914 0.515797 -0.246897
C12   C     C_3   0.394483 0.698584 0.319589 0.344365
C13   C     C_R   0.794663 0.844785 0.487231 -0.002632
C14   C     C_R   0.692466 0.700027 0.483160 -0.249681
C15   C     C_R   0.229231 0.033840 0.538206 -0.077302
C16   C     C_3   0.948811 0.796317 0.330008 -0.371961
C17   C     C_R   0.322922 0.981275 0.554720 -0.084702
C18   C     C_R   0.277238 0.911065 0.536279 -0.068821
C19   C     C_R   0.132055 0.894588 0.505808 -0.075413
C20   C     C_R   0.014978 0.945886 0.504875 0.011917
C21   C     C_R   0.068460 0.019430 0.517037 0.038858
C22   C     C_R   0.851765 0.923832 0.489344 -0.016586
C23   C     C_3   0.488635 0.682850 0.611802 0.326884
C24   C     C_R   0.746390 0.979058 0.479597 0.039355
C25   C     C_R   0.800139 0.052572 0.491646 0.013013
C26   C     C_R   0.963163 0.074577 0.507210 -0.017049
C27   C     C_R   0.585230 0.964876 0.458758 -0.077906
C28   C     C_3   0.801341 0.368430 0.340312 0.296163
C29   C     C_R   0.491447 0.017606 0.442504 -0.081789
C30   C     C_R   0.537706 0.087788 0.460900 -0.066239
C31   C     C_R   0.683477 0.104023 0.490831 -0.077016
C32   C     C_R   0.641460 0.523718 0.333635 -0.369573
C33   C     C_R   0.399572 0.556649 0.943962 -0.019260
C34   C     C_3   0.517322 0.762983 0.627870 -0.405685
C35   C     C_R   0.340045 0.555371 0.885683 0.581296
C36   C     C_R   0.261814 0.431320 0.878093 0.578847
C37   C     C_R   0.329109 0.429709 0.935072 -0.022846
C38   C     C_R   0.395904 0.493137 0.968415 -0.052303
C39   C     C_R   0.463451 0.619940 0.978236 -0.081752
C40   C     C_3   0.748211 0.336065 0.277276 -0.363216
C41   C     C_R   0.515868 0.620747 0.036674 -0.078539
C42   C     C_R   0.510598 0.557876 0.061890 -0.017153
C43   C     C_R   0.457122 0.493374 0.026855 -0.056635
C44   C     C_R   0.332372 0.366274 0.959397 -0.078212
C45   C     C_3   0.880079 0.284974 0.650610 0.346698
C46   C     C_R   0.401643 0.365846 0.015614 -0.080036
C47   C     C_R   0.463039 0.429393 0.050291 -0.041394
C48   C     C_R   0.522333 0.431313 0.109031 0.593272
C49   C     C_R   0.552487 0.558658 0.121997 0.560664
C50   C     C_2   0.069690 0.478694 0.772892 -0.080608
C51   C     C_3   0.022164 0.485904 0.709396 -0.028513
C52   C     C_3   0.943058 0.637948 0.668821 0.700243
C53   C     C_1   0.303877 0.513131 0.692937 0.067264
C54   C     C_2   0.348146 0.510391 0.748329 -0.145785
C55   C     C_2   0.224980 0.492405 0.791743 0.215307
C56   C     C_3   0.878955 0.213104 0.671284 -0.363712
C57   C     C_R   0.722638 0.536263 0.234362 -0.140497
C58   C     C_R   0.753928 0.546850 0.295294 -0.027568
C59   C     C_R   0.502806 0.484376 0.311443 0.008697
C60   C     C_R   0.468681 0.472523 0.248982 0.338484
C61   C     C_R   0.580498 0.500406 0.209831 0.149987
C62   C     C_2   0.168431 0.481841 0.670144 -0.208709
C63   C     C_3   0.817061 0.647931 0.718716 -0.371782
C64   C     C_3   0.319217 0.317797 0.395858 0.312515
C65   C     C_3   0.313661 0.237255 0.379200 -0.382156
C66   C     C_3   0.146675 0.678564 0.744422 0.271857
C67   C     C_3   0.395040 0.302229 0.681245 0.300199
C68   C     C_3   0.154345 0.758471 0.740153 -0.173430
C69   C     C_3   0.259202 0.800599 0.790354 -0.482784
C70   C     C_3   0.226665 0.451729 0.194840 0.350724
C71   C     C_3   0.067454 0.410205 0.199098 -0.172758
C72   C     C_3   0.955358 0.414399 0.146545 -0.516954
C73   C     C_3   0.460783 0.289930 0.740968 -0.352521
C74   C     C_R   0.954501 0.197942 0.470710 -0.151191
H1    H     H_    0.348633 0.642497 0.314597 0.065232
H2    H     H_    0.401829 0.332879 0.434742 0.080848
H3    H     H_    0.227019 0.723897 0.252854 0.152631
H4    H     H_    0.227158 0.220325 0.341694 0.127749
H5    H     H_    0.274944 0.212453 0.417785 0.058969
H6    H     H_    0.435134 0.218551 0.365745 0.124128
H7    H     H_    0.527411 0.700495 0.325499 -0.054697
H8    H     H_    0.419609 0.696028 0.224873 0.140620
H9    H     H_    0.604943 0.659022 0.597965 -0.022599
H10   H     H_    0.401954 0.671940 0.573828 0.096809
H11   H     H_    0.596318 0.775904 0.668053 0.122525
H12   H     H_    0.654578 0.293424 0.278810 0.149103
H13   H     H_    0.575564 0.784115 0.590492 0.063920
H14   H     H_    0.401641 0.789721 0.636078 0.111648
H15   H     H_    0.401205 0.783639 0.267096 0.110873
H16   H     H_    0.899467 0.838812 0.363242 0.069984
H17   H     H_    0.774054 0.286129 0.620953 0.108829
H18   H     H_    0.991228 0.291581 0.625785 -0.038859
H19   H     H_    0.871572 0.169929 0.632168 0.072403
H20   H     H_    0.990795 0.208069 0.697028 0.118726
H21   H     H_    0.773172 0.207292 0.699797 0.138216
H22   H     H_    0.265699 0.285168 0.677919 -0.015000
H23   H     H_    0.698502 0.376901 0.253730 0.084800
H24   H     H_    0.407625 0.360045 0.679594 0.049042
H25   H     H_    0.394116 0.321428 0.777386 0.133601
H26   H     H_    0.589616 0.306952 0.745676 0.155170
H27   H     H_    0.983341 0.726589 0.394109 0.068840
H28   H     H_    0.447668 0.232770 0.744758 0.113437
H29   H     H_    0.871050 0.176294 0.435183 0.074692
H30   H     H_    0.178279 0.163857 0.588388 0.065247
H31   H     H_    0.632703 0.834117 0.409440 0.065469
H32   H     H_    0.945227 0.822537 0.561415 0.077559
H33   H     H_    0.161135 0.353528 0.517411 0.060903
H34   H     H_    0.852259 0.312709 0.251880 0.118955
H35   H     H_    0.648273 0.646070 0.483268 0.066295
H36   H     H_    0.293513 0.083150 0.538979 0.075874
H37   H     H_    0.441439 0.994735 0.574294 0.079741
H38   H     H_    0.360055 0.870241 0.542036 0.100558
H39   H     H_    0.793030 0.713091 0.353022 -0.062087
H40   H     H_    0.109557 0.841352 0.483252 0.126467
H41   H     H_    0.520548 0.915736 0.458222 0.075539
H42   H     H_    0.372546 0.004299 0.423231 0.079354
H43   H     H_    0.455302 0.128931 0.455672 0.097643
H44   H     H_    0.706618 0.157234 0.513184 0.126776
H45   H     H_    0.911533 0.585506 0.641649 0.019505
H46   H     H_    0.401643 0.315945 0.032722 0.121689
H47   H     H_    0.282366 0.316571 0.934802 0.119052
H48   H     H_    0.560289 0.670937 0.062147 0.119783
H49   H     H_    0.810335 0.556168 0.205629 0.117866
H50   H     H_    0.470235 0.669426 0.960381 0.118462
H51   H     H_    0.078943 0.808741 0.325387 0.148092
H52   H     H_    0.472595 0.521753 0.762637 0.103698
H53   H     H_    0.977234 0.468274 0.804125 0.096771
H54   H     H_    0.667996 0.531984 0.380947 0.095712
H55   H     H_    0.160830 0.456402 0.623743 0.045760
H56   H     H_    0.832933 0.699320 0.749008 0.078237
H57   H     H_    0.887002 0.795943 0.286538 0.120711
H58   H     H_    0.693679 0.387063 0.365672 0.020500
H59   H     H_    0.887147 0.414061 0.338851 0.033902
H60   H     H_    0.268533 0.663210 0.756828 0.127357
H61   H     H_    0.070928 0.666624 0.781887 0.030315
H62   H     H_    0.204518 0.766251 0.696663 0.155853
H63   H     H_    0.032148 0.780286 0.742783 0.103550
H64   H     H_    0.213994 0.791460 0.834503 0.149223
H65   H     H_    0.256300 0.858517 0.788235 0.136806
H66   H     H_    0.385965 0.783927 0.785701 0.151679
H67   H     H_    0.819146 0.603579 0.744785 0.064809
H68   H     H_    0.255694 0.443903 0.147357 0.036655
H69   H     H_    0.212648 0.509701 0.208675 0.036390
H70   H     H_    0.091405 0.353331 0.199328 0.146604
H71   H     H_    0.006748 0.430505 0.241156 0.118140
H72   H     H_    0.942993 0.470352 0.140004 0.129589
H73   H     H_    0.835438 0.391198 0.155207 0.193168
H74   H     H_    0.003057 0.383422 0.105074 0.151586
H75   H     H_    0.696682 0.649561 0.699451 0.124982
H76   H     H_    0.197204 0.335852 0.407430 0.002511
N1    N     N_R   0.272688 0.493135 0.853328 -0.424957
N2    N     N_R   0.551326 0.496091 0.146001 -0.430722
O1    O     O_2   0.108070 0.674980 0.540650 -0.444505
O2    O     O_2   0.692538 0.443967 0.698354 -0.491292
O3    O     O_3   0.877091 0.338909 0.700212 -0.599529
O4    O     O_3   0.861930 0.586170 0.535430 -0.500435
O5    O     O_3   0.451480 0.461630 0.428900 -0.503280
O6    O     O_2   0.599240 0.538720 0.642170 -0.494012
O7    O     O_3   0.427752 0.655717 0.661396 -0.626181
O8    O     O_2   0.527677 0.246731 0.520211 -0.507678
O9    O     O_3   0.482332 0.262497 0.635635 -0.603167
O10   O     O_2   0.346951 0.609877 0.863773 -0.621993
O11   O     O_2   0.194802 0.377714 0.850391 -0.601339
O12   O     O_3   0.372627 0.347236 0.346844 -0.609832
O13   O     O_2   0.538478 0.375807 0.128322 -0.574120
O14   O     O_2   0.587531 0.615544 0.153358 -0.619730
O15   O     O_3   0.366390 0.628250 0.433820 -0.472516
O16   O     O_2   0.289019 0.752393 0.483832 -0.506957
O17   O     O_3   0.933023 0.693008 0.635043 -0.658749
O18   O     O_3   0.319167 0.740071 0.367603 -0.594432
O19   O     O_2   0.211060 0.461230 0.357810 -0.439546
O20   O     O_3   0.958150 0.591500 0.402390 -0.477206
O21   O     O_2   0.088446 0.544894 0.300539 -0.496703
O22   O     O_3   0.104373 0.634979 0.689051 -0.688653
O23   O     O_3   0.992249 0.672364 0.307703 -0.591756
O24   O     O_3   0.346239 0.423184 0.227809 -0.619739
O25   O     O_2   0.702240 0.324970 0.459330 -0.467554
O26   O     O_3   0.948380 0.413820 0.464520 -0.485281
O27   O     O_3   0.443920 0.371740 0.566130 -0.467983
O28   O     O_3   0.878071 0.316005 0.365191 -0.631093
O29   O     O_3   0.358830 0.538360 0.571050 -0.465881
O30   O     O_3   0.852160 0.408490 0.597560 -0.489383
P1    P     P_3+3 0.933470 0.664380 0.557030 0.987035
P2    P     P_3+3 0.383600 0.440030 0.365120 1.034860
P3    P     P_3+3 0.945825 0.588547 0.325907 0.951381
P4    P     P_3+3 0.876840 0.335610 0.442930 0.983137
P5    P     P_3+3 0.860724 0.420883 0.675878 0.954171
P6    P     P_3+3 0.397159 0.718092 0.433411 0.927986
P7    P     P_3+3 0.419872 0.562672 0.644837 0.991519
P8    P     P_3+3 0.412667 0.282054 0.567845 0.916104

loop_
_geom_bond_atom_site_label_1
_geom_bond_atom_site_label_2
_ccdc_geom_bond_type
C34   H13   S    
C36   O11   D    
C53   C54   D    
O4    P1    S    
C49   N2    Am   
C74   H29   S    
C28   O28   S    
C71   C72   S    
C8    H32   S    
C17   C18   A    
C70   O24   S    
O7    P7    S    
C1    H3    S    
O8    P8    D    
C66   O22   S    
O19   P2    D    
C52   C63   S    
Ba1   P2    S    
C25   C31   A    
Ba1   O19   S    
C24   C25   A    
C15   C21   A    
C71   H71   S    
C50   H53   S    
O15   P6    S    
O5    P2    S    
C72   H72   S    
Ba1   O4    S    
C33   C35   A    
C7    C14   A    
C22   C24   A    
C8    C13   A    
C46   H46   S    
C36   C37   A    
O20   P3    S    
O27   P8    S    
C17   H37   S    
C70   H69   S    
C54   C55   S    
C16   H57   S    
C1    H15   S    
Ba1   Ba2   S    
C12   H1    S    
C52   O22   S    
C2    C11   A    
Ba1   O1    S    
C56   H20   S    
C31   H44   S    
C59   P2    S    
C11   H33   S    
C5    C11   A    
O26   P4    S    
C35   O10   D    
C15   C17   A    
C6    H31   S    
C23   O7    S    
C6    C7    A    
C28   H58   S    
C65   H4    S    
C73   H26   S    
C72   H73   S    
C68   C69   S    
C43   C47   A    
C28   H59   S    
C44   H47   S    
C69   H65   S    
C67   H22   S    
C64   C65   S    
C57   C58   A    
C9    P1    S    
C19   C20   A    
C32   C58   A    
C39   C41   A    
C49   O14   D    
C56   H21   S    
Ba2   O26   S    
C12   H7    S    
C19   H40   S    
C64   H2    S    
C52   O17   S    
C27   C29   A    
O3    P5    S    
C3    H30   S    
C34   H11   S    
Ba1   O29   S    
C38   C43   A    
C4    C16   S    
C44   C46   A    
Ba1   O20   S    
C64   O12   S    
C35   N1    Am   
Ba1   O5    S    
C61   N2    S    
C3    C10   A    
C12   O18   S    
O1    P1    D    
C37   C38   A    
C3    C5    A    
O17   P1    S    
Ba2   O5    S    
O28   P4    S    
O25   P4    D    
O18   P6    S    
C21   C26   A    
C55   N1    S    
C32   C59   A    
Ba2   O27   S    
C53   P7    S    
C63   H75   S    
C56   H19   S    
C29   H42   S    
C64   H76   S    
C60   C61   A    
C16   H51   S    
C9    C14   A    
C29   C30   A    
C62   H55   S    
C66   H60   S    
Ba2   O4    S    
C53   C62   D    
C23   H9    S    
C45   H17   S    
Ba2   O30   S    
C4    H27   S    
O9    P8    S    
C1    C12   S    
C65   H6    S    
C37   C44   A    
C42   C49   A    
Ba2   O6    S    
C46   C47   A    
C48   O13   D    
C52   H45   S    
C10   C26   S    
C68   H62   S    
C58   P3    S    
C8    C9    A    
C69   H66   S    
C41   C42   A    
C73   H28   S    
C20   C22   A    
C5    P8    S    
C40   H12   S    
Ba2   O25   S    
C30   H43   S    
C7    P6    S    
C15   H36   S    
C25   C26   A    
C63   H56   S    
C50   C51   S    
C45   O3    S    
C34   H14   S    
C70   H68   S    
C13   C22   S    
O12   P2    S    
C39   H50   S    
C28   C40   S    
C42   C43   A    
C67   O9    S    
O6    P7    D    
C70   C71   S    
O29   P7    S    
C60   O24   S    
C66   H61   S    
C65   H5    S    
C69   H64   S    
Ba1   P1    S    
C6    C13   A    
O16   P6    D    
C57   C61   A    
Ba1   O26   S    
O23   P3    S    
C71   H70   S    
C16   H16   S    
C30   C31   A    
C2    P4    S    
C10   C74   A    
C33   C38   A    
C40   H34   S    
C4    O23   S    
C57   H49   S    
O2    P5    D    
C45   C56   S    
C18   H38   S    
C27   H41   S    
C48   N2    Am   
C63   H67   S    
Ba1   O15   S    
C23   H10   S    
C51   C62   S    
C45   H18   S    
C67   C73   S    
Ba2   O29   S    
C54   H52   S    
C59   C60   A    
C33   C39   A    
Ba2   P4    S    
C4    H39   S    
C2    C74   A    
C50   C55   D    
C23   C34   S    
O21   P3    D    
C67   H24   S    
C68   H63   S    
C18   C19   A    
C32   H54   S    
C24   C27   A    
C66   C68   S    
C47   C48   A    
C1    H8    S    
C73   H25   S    
C20   C21   A    
C72   H74   S    
C36   N1    Am   
C40   H23   S    
C51   P5    S    
C41   H48   S    
O30   P5    S    
C14   H35   S    
