data_mof_unit_52739.cif
_audit_creation_date              2012-12-10T19:03:04-0500
_audit_creation_method            fapswitch 2.2
_symmetry_space_group_name_H-M    P1
_symmetry_Int_Tables_number       1
_space_group_crystal_system       triclinic
_cell_length_a                    10.756863
_cell_length_b                    10.88494
_cell_length_c                    9.559218
_cell_angle_alpha                 91.070915
_cell_angle_beta                  90.043954
_cell_angle_gamma                 91.044128
_cell_volume                      1118.88587997

loop_
_atom_site_label
_atom_site_type_symbol
_atom_type_description
_atom_site_fract_x
_atom_site_fract_y
_atom_site_fract_z
_atom_type_partial_charge
C1    C     C_R   0.498217 0.262966 0.498796 0.802624
C2    C     C_3   0.877777 0.491167 0.498864 -0.077607
C3    C     C_3   0.928244 0.625465 0.511770 -0.539075
C4    C     C_3   0.928571 0.429090 0.360906 0.378041
C5    C     C_R   0.488192 0.066137 0.619112 0.116623
C6    C     C_R   0.494896 0.130765 0.496135 -0.062570
C7    C     C_R   0.499570 0.062462 0.369743 -0.204718
C8    C     C_R   0.500096 0.933554 0.371792 -0.176114
C9    C     C_R   0.497242 0.870700 0.500215 -0.102472
C10   C     C_R   0.490731 0.942252 0.622198 0.049328
C11   C     C_3   0.487596 0.943089 0.778924 -0.202222
C12   C     C_R   0.260106 0.495871 0.500247 0.833800
C13   C     C_3   0.482391 0.084019 0.773283 -0.535153
C14   C     C_R   0.601291 0.541780 0.074293 0.275472
C15   C     C_R   0.408314 0.439435 0.070786 0.077278
C16   C     C_R   0.407132 0.444332 0.922178 -0.034746
C17   C     C_R   0.603124 0.537775 0.927428 0.208883
C18   C     C_3   0.668056 0.658924 0.920941 -0.497137
C19   C     C_3   0.660934 0.666353 0.079776 -0.441827
C20   C     C_R   0.499484 0.737555 0.500916 0.824878
C21   C     C_R   0.739775 0.494725 0.499577 0.852627
C22   C     C_3   0.069780 0.411415 0.624595 -0.205114
C23   C     C_3   0.924447 0.416770 0.626852 0.280423
C24   C     C_3   0.072146 0.626048 0.508638 0.357467
C25   C     C_3   0.072224 0.432936 0.362513 -0.478802
C26   C     C_3   0.122220 0.491373 0.501862 -0.134932
Cu1   Cu    Cu3+1 0.499990 0.499980 0.640670 0.952437
Cu2   Cu    Cu3+1 0.500010 0.500020 0.359330 0.953850
H1    H     H_    0.103146 0.450916 0.725490 0.086152
H2    H     H_    0.096664 0.665849 0.405473 0.143921
H3    H     H_    0.893201 0.679538 0.422616 0.197682
H4    H     H_    0.503563 0.107832 0.269912 0.158905
H5    H     H_    0.503401 0.883997 0.272807 0.173485
H6    H     H_    0.575669 0.913516 0.826564 0.157495
H7    H     H_    0.392883 0.124470 0.807433 0.194503
H8    H     H_    0.567145 0.131335 0.815698 0.193151
H9    H     H_    0.333044 0.399966 0.862392 0.158154
H10   H     H_    0.764491 0.650730 0.880476 0.172441
H11   H     H_    0.610727 0.726063 0.867344 0.239989
H12   H     H_    0.753639 0.667185 0.130877 0.229326
H13   H     H_    0.596844 0.738124 0.118478 0.217649
H14   H     H_    0.897080 0.469932 0.722924 0.067499
H15   H     H_    0.890943 0.671746 0.606822 0.173249
H16   H     H_    0.106536 0.487541 0.272590 0.226798
H17   H     H_    0.108278 0.339142 0.344646 0.209238
H18   H     H_    0.895667 0.331014 0.360179 0.147329
N1    N     N_R   0.500800 0.500930 0.147930 -0.231772
N2    N     N_R   0.500800 0.500890 0.852020 -0.196419
O1    O     O_R   0.500000 0.319640 0.618810 -0.587061
O2    O     O_R   0.500010 0.319680 0.381230 -0.629799
O3    O     O_R   0.317690 0.499960 0.618790 -0.589328
O4    O     O_R   0.317700 0.500000 0.381210 -0.611877
O5    O     O_R   0.499990 0.680320 0.618770 -0.565757
O6    O     O_R   0.500000 0.680360 0.381190 -0.581148
O7    O     O_R   0.682300 0.500000 0.618790 -0.597413
O8    O     O_R   0.682310 0.500040 0.381210 -0.544396
O9    O     O_3   0.886539 0.491243 0.240844 -0.572982
C27   C     C_3   0.878695 0.409649 0.124298 -0.356771
H19   H     H_    0.797869 0.345486 0.135381 0.162147
H20   H     H_    0.965450 0.357080 0.109025 0.206658
H21   H     H_    0.864512 0.463720 0.028622 0.173215
C28   C     C_2   0.371337 0.884597 0.835885 0.439118
H22   H     H_    0.281238 0.910470 0.796095 0.092695
O10   O     O_2   0.377416 0.808452 0.927589 -0.572034
C29   C     C_2   0.312178 0.360084 0.135814 0.313108
H23   H     H_    0.325345 0.321132 0.237064 0.141268
O11   O     O_2   0.216413 0.332550 0.073032 -0.625097
C30   C     C_2   0.121468 0.282100 0.624097 0.424271
H24   H     H_    0.195765 0.260806 0.696130 0.046902
O12   O     O_2   0.084077 0.202107 0.542404 -0.517585
O13   O     O_3   0.867764 0.297525 0.623720 -0.545757
C31   C     C_3   0.838020 0.259194 0.760142 -0.273707
H25   H     H_    0.761317 0.314735 0.804694 0.150770
H26   H     H_    0.920644 0.264411 0.830273 0.148858
H27   H     H_    0.805398 0.161977 0.754455 0.189318
O14   O     O_3   0.131632 0.709624 0.605297 -0.577256
C32   C     C_3   0.109004 0.687151 0.748242 -0.226462
H28   H     H_    0.189243 0.639280 0.793732 0.207736
H29   H     H_    0.021965 0.636175 0.771007 0.110638
H30   H     H_    0.101758 0.776854 0.804071 0.177708

loop_
_geom_bond_atom_site_label_1
_geom_bond_atom_site_label_2
_ccdc_geom_bond_type
Cu1   N2    S    
C8    C9    A    
Cu2   N1    S    
C22   H1    S    
C11   C13   S    
C17   N2    A    
C15   N1    A    
C11   C28   S    
C16   N2    A    
C4    C25   S    
Cu2   O8    S    
C7    C8    A    
C4    H18   S    
C32   H28   S    
C3    H15   S    
C23   H14   S    
C24   C26   S    
C13   H7    S    
C5    C6    A    
Cu1   O7    S    
C27   H20   S    
C15   C16   A    
C15   C29   S    
C18   C19   S    
C28   O10   D    
Cu2   O2    S    
C30   H24   S    
C29   O11   D    
C4    O9    S    
C1    O2    A    
C5    C13   S    
C16   H9    S    
C27   H21   S    
C14   C17   A    
C3    C24   S    
C31   H27   S    
C25   H16   S    
C12   O4    A    
Cu1   O3    S    
C32   H29   S    
C1    C6    S    
C23   O13   S    
O14   C32   S    
C13   H8    S    
C20   O6    A    
C19   H12   S    
C21   O7    A    
Cu2   O6    S    
C20   O5    A    
C27   H19   S    
C12   C26   S    
C2    C4    S    
C18   H11   S    
C28   H22   S    
C9    C20   S    
C2    C21   S    
C17   C18   S    
C3    H3    S    
C22   C30   S    
C6    C7    A    
C31   H26   S    
C25   H17   S    
C2    C23   S    
C12   O3    A    
C9    C10   A    
C32   H30   S    
C7    H4    S    
C14   C19   S    
C11   H6    S    
C24   O14   S    
C31   H25   S    
C21   O8    A    
Cu1   O5    S    
C14   N1    A    
C2    C3    S    
C25   C26   S    
O13   C31   S    
Cu2   O4    S    
O9    C27   S    
C8    H5    S    
C18   H10   S    
C24   H2    S    
C10   C11   S    
C19   H13   S    
C5    C10   A    
C30   O12   D    
C29   H23   S    
C22   C26   S    
Cu1   Cu2   S    
C22   C23   S    
C1    O1    A    
Cu1   O1    S    
