data_mof_unit_43984.cif
_audit_creation_date              2012-12-10T16:59:22-0500
_audit_creation_method            fapswitch 2.2
_symmetry_space_group_name_H-M    P1
_symmetry_Int_Tables_number       1
_space_group_crystal_system       triclinic
_cell_length_a                    7.732346
_cell_length_b                    8.545808
_cell_length_c                    27.284457
_cell_angle_alpha                 90.252116
_cell_angle_beta                  86.917229
_cell_angle_gamma                 93.613127
_cell_volume                      1796.74512197

loop_
_atom_site_label
_atom_site_type_symbol
_atom_type_description
_atom_site_fract_x
_atom_site_fract_y
_atom_site_fract_z
_atom_type_partial_charge
C1    C     C_R   0.545875 0.794824 0.498692 0.986797
C2    C     C_R   0.540369 0.685766 0.123241 -0.061005
C3    C     C_R   0.514036 0.485513 0.647065 -0.056366
C4    C     C_R   0.485963 0.514077 0.352922 -0.056492
C5    C     C_R   0.587823 0.634060 0.021182 -0.002845
C6    C     C_R   0.414080 0.363780 0.978735 -0.002827
C7    C     C_R   0.371531 0.408734 0.027887 0.062420
C8    C     C_R   0.630385 0.589070 0.972035 0.062367
C9    C     C_R   0.467076 0.536162 0.049585 0.066523
C10   C     C_R   0.534745 0.461727 0.950331 0.066521
C11   C     C_R   0.649923 0.778848 0.042331 -0.087311
C12   C     C_R   0.454125 0.205176 0.501308 0.986897
C13   C     C_R   0.351930 0.219049 0.957565 -0.087466
C14   C     C_R   0.631875 0.802468 0.093592 -0.045082
C15   C     C_R   0.369678 0.195635 0.906288 -0.044974
C16   C     C_R   0.504217 0.500394 0.594135 0.936105
C17   C     C_R   0.495781 0.499564 0.405865 0.936007
C18   C     C_R   0.773541 0.660420 0.944450 -0.195692
C19   C     C_R   0.228370 0.337350 0.055461 -0.195592
C20   C     C_2   0.570145 0.958308 0.497938 -0.326694
C21   C     C_2   0.429855 0.041692 0.502062 -0.326656
C22   C     C_R   0.682116 0.520273 0.820109 0.533657
C23   C     C_R   0.559863 0.433502 0.899493 -0.075037
C24   C     C_R   0.318938 0.478236 0.179785 0.533576
C25   C     C_R   0.456391 0.316370 0.825003 0.560888
C26   C     C_R   0.544568 0.682217 0.174903 0.560829
C27   C     C_R   0.620122 0.338370 0.713777 -0.073972
C28   C     C_R   0.379957 0.660660 0.286074 -0.073940
C29   C     C_R   0.606300 0.361667 0.663909 -0.240879
C30   C     C_R   0.393532 0.637652 0.335969 -0.240951
C31   C     C_R   0.434493 0.588368 0.681016 -0.045101
C32   C     C_R   0.565868 0.411175 0.319058 -0.044969
C33   C     C_R   0.448011 0.561620 0.731147 -0.186840
C34   C     C_R   0.441703 0.564586 0.100407 -0.074913
C35   C     C_R   0.552616 0.437638 0.268902 -0.186917
C36   C     C_R   0.541716 0.438630 0.747288 0.305324
C37   C     C_R   0.458775 0.560376 0.252649 0.305368
C38   C     C_2   0.344781 0.728542 0.666685 0.416220
C39   C     C_2   0.655725 0.271233 0.333515 0.416282
C40   C     C_2   0.695415 0.955883 0.114287 0.528227
C41   C     C_2   0.306016 0.042306 0.885556 0.527971
C42   C     C_1   0.703457 0.914134 0.011745 0.144132
C43   C     C_1   0.298656 0.083651 0.988130 0.144167
C44   C     C_R   0.680698 0.530076 0.871125 -0.006449
C45   C     C_R   0.320740 0.468112 0.128768 -0.006420
C46   C     C_R   0.794689 0.635658 0.894326 -0.116500
C47   C     C_R   0.206974 0.362323 0.105568 -0.116377
C48   C     C_R   0.460994 0.312483 0.876651 -0.060892
H1    H     H_    0.013598 0.383190 0.463424 0.204935
H2    H     H_    0.693023 0.243645 0.726411 0.158556
H3    H     H_    0.871719 0.735324 0.961059 0.158414
H4    H     H_    0.130313 0.262313 0.038855 0.158395
H5    H     H_    0.702595 0.009467 0.493990 0.180091
H6    H     H_    0.297405 0.990533 0.506009 0.180069
H7    H     H_    0.260005 0.784467 0.693520 0.099448
H8    H     H_    0.741386 0.215719 0.306821 0.099138
H9    H     H_    0.817875 0.012241 0.100342 0.036980
H10   H     H_    0.183804 0.985733 0.899600 0.037041
H11   H     H_    0.986402 0.616810 0.536576 0.205014
H12   H     H_    0.390388 0.639301 0.758047 0.156379
H13   H     H_    0.610550 0.359913 0.242071 0.156282
H14   H     H_    0.898638 0.701523 0.873790 0.189419
H15   H     H_    0.102969 0.296494 0.126093 0.189424
H16   H     H_    0.332343 0.717295 0.361548 0.166955
H17   H     H_    0.667225 0.282063 0.638263 0.166883
H18   H     H_    0.306965 0.755199 0.273352 0.158576
N1    N     N_R   0.563668 0.421409 0.798450 -0.360772
N2    N     N_R   0.437147 0.577305 0.201459 -0.360735
N3    N     N_2   0.950320 0.457960 0.486880 -0.172515
N4    N     N_2   0.049680 0.542040 0.513120 -0.172453
N5    N     N_1   0.745566 0.022420 0.987599 -0.201378
N6    N     N_1   0.256752 0.975275 0.012259 -0.201298
O1    O     O_R   0.389250 0.738570 0.503220 -0.598752
O2    O     O_2   0.205616 0.385297 0.207658 -0.544717
O3    O     O_2   0.660960 0.775301 0.198343 -0.517198
O4    O     O_2   0.339740 0.223509 0.801584 -0.517139
O5    O     O_2   0.369047 0.787366 0.626022 -0.574525
O6    O     O_2   0.630558 0.212119 0.374116 -0.574550
O7    O     O_2   0.606821 0.024497 0.144812 -0.530068
O8    O     O_2   0.394260 0.973983 0.854877 -0.530201
O9    O     O_R   0.610750 0.261430 0.496780 -0.598756
O10   O     O_R   0.678390 0.711630 0.494810 -0.637603
O11   O     O_R   0.321610 0.288370 0.505190 -0.637639
O12   O     O_R   0.355440 0.513440 0.575450 -0.578294
O13   O     O_R   0.644560 0.486560 0.424550 -0.578620
O14   O     O_R   0.644590 0.486500 0.567040 -0.639641
O15   O     O_R   0.355410 0.513500 0.432960 -0.639565
O16   O     O_2   0.795289 0.613329 0.792228 -0.544670
Zn1   Zn    Zn3+2 0.306940 0.517990 0.505620 0.984055
Zn2   Zn    Zn3+2 0.693060 0.482010 0.494380 0.983917

loop_
_geom_bond_atom_site_label_1
_geom_bond_atom_site_label_2
_ccdc_geom_bond_type
C43   N6    T    
C30   H16   S    
C27   C29   A    
C25   N1    A    
C41   O8    D    
C36   N1    S    
C46   H14   S    
C17   O13   A    
C24   C45   A    
C35   C37   A    
C41   H10   S    
C5    C11   A    
C47   H15   S    
C21   H6    S    
C11   C14   A    
C19   C47   A    
C37   N2    S    
C16   O12   A    
C33   C36   A    
C11   C42   S    
C32   C39   S    
C3    C29   A    
C19   H4    S    
C22   C44   A    
C38   H7    S    
C31   C33   A    
C23   C48   A    
C22   O16   S    
C27   H2    S    
C2    C34   A    
H1    N3    S    
C16   O14   A    
C15   C48   A    
C18   C46   A    
C44   C46   A    
C18   H3    S    
C45   C47   A    
O11   Zn1   S    
C32   C35   A    
C15   C41   S    
C35   H13   S    
O14   Zn2   S    
C1    O10   A    
C14   C40   S    
C12   C21   S    
C8    C18   A    
C23   C44   A    
C12   O11   A    
C28   H18   S    
C39   O6    D    
C5    C9    A    
C39   H8    S    
C26   O3    S    
C40   O7    D    
C2    C26   A    
C34   C45   A    
C3    C31   A    
C25   C48   A    
C4    C32   A    
C29   H17   S    
O9    Zn2   S    
C33   H12   S    
C7    C19   A    
C13   C15   A    
C9    C34   A    
C10   C23   A    
N4    Zn1   S    
O12   Zn1   S    
C4    C17   S    
N3    Zn2   S    
C13   C43   S    
C7    C9    A    
C1    C20   S    
C40   H9    S    
C17   O15   A    
C20   H5    S    
C6    C10   A    
C5    C8    A    
O13   Zn2   S    
C6    C7    A    
C38   O5    D    
C27   C36   A    
O10   Zn2   S    
C31   C38   S    
C25   O4    S    
C26   N2    A    
C28   C30   A    
C1    O1    A    
C6    C13   A    
C24   O2    S    
C28   C37   A    
C42   N5    T    
C12   O9    A    
N3    N4    D    
C2    C14   A    
C22   N1    A    
C24   N2    A    
H11   N4    S    
O1    Zn1   S    
C20   C21   D    
C8    C10   A    
O15   Zn1   S    
C4    C30   A    
C3    C16   S    
