data_mof_unit_19244.cif
_audit_creation_date              2012-12-10T17:00:41-0500
_audit_creation_method            fapswitch 2.2
_symmetry_space_group_name_H-M    P1
_symmetry_Int_Tables_number       1
_space_group_crystal_system       triclinic
_cell_length_a                    27.820015
_cell_length_b                    10.976202
_cell_length_c                    9.760797
_cell_angle_alpha                 89.956878
_cell_angle_beta                  88.319838
_cell_angle_gamma                 90.739494
_cell_volume                      2979.00700373

loop_
_atom_site_label
_atom_site_type_symbol
_atom_type_description
_atom_site_fract_x
_atom_site_fract_y
_atom_site_fract_z
_atom_type_partial_charge
C1    C     C_R   0.498057 0.265810 0.499784 0.893224
C2    C     C_R   0.274127 0.446080 0.584483 -0.065137
C3    C     C_R   0.254080 0.533376 0.495909 0.245983
C4    C     C_R   0.102715 0.526633 0.501809 -0.041608
C5    C     C_R   0.129084 0.425556 0.452492 -0.066283
C6    C     C_R   0.105298 0.311464 0.435629 -0.082896
C7    C     C_R   0.127203 0.636264 0.535551 -0.078895
C8    C     C_R   0.354633 0.507228 0.502241 -0.088697
C9    C     C_R   0.646034 0.492541 0.498829 -0.100128
C10   C     C_R   0.976966 0.410880 0.470475 0.081931
C11   C     C_R   0.974642 0.611497 0.582821 -0.014025
C12   C     C_R   0.407594 0.499704 0.501342 0.827410
C13   C     C_R   0.950553 0.510502 0.524255 0.063236
C14   C     C_R   0.952004 0.319641 0.398269 -0.119079
C15   C     C_R   0.902099 0.317127 0.396267 -0.109314
C16   C     C_R   0.875499 0.410108 0.458643 -0.025424
C17   C     C_R   0.899688 0.509085 0.518535 -0.041783
C18   C     C_R   0.872952 0.606796 0.571747 -0.041781
C19   C     C_R   0.822661 0.605136 0.561103 0.624115
C20   C     C_R   0.825060 0.407087 0.461161 0.581529
C21   C     C_R   0.724844 0.479252 0.386086 -0.160446
C22   C     C_R   0.674785 0.466056 0.380784 -0.045223
C23   C     C_R   0.500977 0.734062 0.499753 0.772288
C24   C     C_R   0.668985 0.514931 0.623285 -0.274548
C25   C     C_R   0.719057 0.511751 0.632215 0.020552
C26   C     C_R   0.747548 0.499875 0.510535 0.306460
C27   C     C_R   0.027738 0.408773 0.483300 0.041273
C28   C     C_R   0.051920 0.518724 0.515908 0.063665
C29   C     C_R   0.025462 0.621171 0.562087 0.049506
C30   C     C_R   0.055264 0.301406 0.463424 -0.091977
C31   C     C_R   0.100117 0.741952 0.565314 -0.019989
C32   C     C_R   0.946441 0.699926 0.655268 -0.058291
C33   C     C_R   0.896506 0.700634 0.640848 -0.154449
C34   C     C_R   0.592595 0.496451 0.498620 0.848989
C35   C     C_R   0.050062 0.733102 0.574887 -0.169976
C36   C     C_2   0.481638 0.933068 0.409675 -0.165379
C37   C     C_2   0.508061 0.865237 0.495630 -0.228278
C38   C     C_2   0.492518 0.062696 0.390599 0.065978
C39   C     C_2   0.488717 0.135508 0.501224 -0.350161
C40   C     C_2   0.470039 0.435051 0.926543 0.045207
C41   C     C_2   0.465346 0.456939 0.078720 -0.036454
C42   C     C_R   0.179129 0.441396 0.429360 0.624503
C43   C     C_R   0.177854 0.633784 0.541235 0.672747
C44   C     C_R   0.284480 0.607537 0.411159 -0.004461
C45   C     C_R   0.334306 0.594772 0.417980 -0.253703
C46   C     C_R   0.324530 0.429306 0.582745 -0.087157
Cu1   Cu    Cu3+1 0.500010 0.500020 0.638630 0.996882
Cu2   Cu    Cu3+1 0.499990 0.499980 0.361370 1.044244
H1    H     H_    0.647695 0.530288 0.716320 0.176253
H2    H     H_    0.875525 0.770437 0.692349 0.223788
H3    H     H_    0.030290 0.816846 0.585540 0.164744
H4    H     H_    0.477445 0.096114 0.599550 0.150717
H5    H     H_    0.513515 0.577462 0.887370 0.220723
H6    H     H_    0.431586 0.431585 0.130069 0.209844
H7    H     H_    0.746841 0.464953 0.294140 0.190675
H8    H     H_    0.884494 0.242953 0.343454 0.197162
H9    H     H_    0.970740 0.250070 0.340415 0.151857
H10   H     H_    0.357814 0.651747 0.354071 0.185140
N1    N     N_R   0.202555 0.538406 0.485431 -0.440824
N2    N     N_R   0.799465 0.504056 0.511554 -0.446540
N3    N     N_2   0.499480 0.498660 0.846910 -0.312343
N4    N     N_2   0.499460 0.498630 0.153040 -0.268055
O1    O     O_R   0.500010 0.321960 0.617040 -0.606213
O2    O     O_2   0.801819 0.307260 0.414917 -0.511036
O3    O     O_2   0.202267 0.722928 0.605234 -0.478238
O4    O     O_2   0.797120 0.703184 0.601345 -0.517336
O5    O     O_R   0.499990 0.321920 0.382900 -0.544163
O6    O     O_R   0.430270 0.500040 0.617060 -0.609851
O7    O     O_R   0.430260 0.500000 0.382910 -0.585398
O8    O     O_R   0.500010 0.678080 0.617100 -0.542156
O9    O     O_R   0.499990 0.678040 0.382960 -0.575477
O10   O     O_R   0.569740 0.500000 0.617090 -0.568404
O11   O     O_R   0.569730 0.499960 0.382940 -0.555677
O12   O     O_2   0.204689 0.360438 0.354260 -0.480748
C47   C     C_2   0.345270 0.324692 0.655396 0.795001
O13   O     O_2   0.334996 0.306486 0.776394 -0.546700
O14   O     O_R   0.375642 0.245030 0.583563 -0.750456
H11   H     H_    0.386132 0.174363 0.642062 0.340572
C48   C     C_2   0.265649 0.696888 0.311738 0.926977
O15   O     O_2   0.224880 0.686309 0.269396 -0.553871
O16   O     O_R   0.295273 0.792652 0.263755 -0.721253
H12   H     H_    0.278716 0.847027 0.196156 0.371547
C49   C     C_2   0.121551 0.865804 0.576278 0.923487
O17   O     O_2   0.153466 0.899312 0.495552 -0.525214
O18   O     O_R   0.103363 0.946246 0.675423 -0.721787
H13   H     H_    0.120403 0.028379 0.673002 0.363701
C50   C     C_2   0.965970 0.781064 0.762598 0.858234
O19   O     O_2   0.998022 0.745565 0.835330 -0.539117
O20   O     O_R   0.946560 0.896702 0.783560 -0.720866
H14   H     H_    0.962639 0.942980 0.859922 0.365108
C51   C     C_2   0.739418 0.515868 0.771063 0.466856
H15   H     H_    0.717787 0.549745 0.856892 0.100009
O21   O     O_2   0.779357 0.476810 0.792936 -0.512958
C52   C     C_2   0.438534 0.883332 0.339799 0.473438
H16   H     H_    0.424263 0.793368 0.363955 0.053915
O22   O     O_2   0.417662 0.944361 0.256024 -0.460010
C53   C     C_2   0.550254 0.914315 0.570447 0.870708
O23   O     O_2   0.559423 0.873254 0.683099 -0.551231
O24   O     O_R   0.580541 0.003373 0.510448 -0.717993
H17   H     H_    0.607887 0.028027 0.571430 0.354623
C54   C     C_2   0.510167 0.101962 0.252738 0.985597
O25   O     O_2   0.548275 0.062906 0.206640 -0.540218
O26   O     O_R   0.482131 0.177001 0.172671 -0.680924
H18   H     H_    0.498088 0.195282 0.080114 0.352378
C55   C     C_2   0.242026 0.367983 0.673560 0.501542
H19   H     H_    0.250789 0.273552 0.692211 0.127808
O27   O     O_2   0.205820 0.409013 0.729057 -0.508378
C56   C     C_2   0.439277 0.336850 0.871980 0.456757
H20   H     H_    0.434957 0.325211 0.764477 0.131593
O28   O     O_2   0.417500 0.266491 0.949187 -0.484963
C57   C     C_2   0.547543 0.503320 0.098132 1.026639
O29   O     O_2   0.572771 0.592828 0.119678 -0.559154
O30   O     O_R   0.566013 0.405876 0.021457 -0.784980
H21   H     H_    0.599180 0.424109 0.980269 0.344743
C58   C     C_2   0.132698 0.199206 0.404146 0.907872
O31   O     O_2   0.164086 0.166171 0.480511 -0.534547
O32   O     O_R   0.122128 0.131289 0.287501 -0.734798
H22   H     H_    0.143301 0.057311 0.276111 0.377240
C59   C     C_2   0.655161 0.408103 0.257415 0.912105
O33   O     O_2   0.671331 0.435999 0.143663 -0.594849
O34   O     O_R   0.621134 0.313735 0.272308 -0.727017
H23   H     H_    0.613893 0.272440 0.182352 0.373615
C60   C     C_2   0.034351 0.178545 0.497336 0.368598
H24   H     H_    0.047743 0.097248 0.447030 0.101199
O35   O     O_2   0.003010 0.166637 0.586800 -0.483200

loop_
_geom_bond_atom_site_label_1
_geom_bond_atom_site_label_2
_ccdc_geom_bond_type
C10   C27   A    
C25   C51   S    
C21   C26   A    
C54   O25   D    
C57   O29   D    
Cu2   O7    S    
C12   O7    A    
C43   O3    S    
C37   C53   S    
C53   O23   D    
C60   H24   S    
O14   H11   S    
C2    C46   A    
C55   O27   D    
C49   O17   D    
C28   C29   A    
C38   C54   S    
Cu1   O1    S    
C5    C6    A    
C9    C22   A    
C60   O35   D    
C15   C16   A    
C31   C49   S    
C56   H20   S    
C19   O4    S    
C18   C19   A    
C8    C45   A    
C53   O24   S    
H5    N3    S    
N4    C57   S    
Cu1   Cu2   S    
C16   C17   A    
C58   O32   S    
C7    C43   A    
C20   N2    A    
C16   C20   A    
C40   C56   S    
C39   H4    S    
C54   O26   S    
C21   C22   A    
C27   C30   A    
C23   O8    A    
C41   N4    D    
C4    C7    A    
C1    O1    A    
C46   C47   S    
C4    C28   A    
O16   H12   S    
C59   O34   S    
C22   C59   S    
C3    C44   A    
C45   H10   S    
C42   O12   S    
C7    C31   A    
C23   O9    A    
C24   C25   A    
C10   C14   A    
C51   H15   S    
C48   O16   S    
C33   H2    S    
C23   C37   S    
C32   C50   S    
C40   N3    D    
C20   O2    S    
C47   O13   D    
Cu1   O8    S    
C51   O21   D    
C12   O6    A    
Cu2   N4    S    
O24   H17   S    
C8    C12   S    
C17   C18   A    
C57   O30   S    
C30   C60   S    
C52   O22   D    
C41   H6    S    
C47   O14   S    
O34   H23   S    
C40   C41   S    
C49   O18   S    
C11   C32   A    
C50   O20   S    
C35   H3    S    
C9    C34   S    
C31   C35   A    
Cu2   O9    S    
C34   O10   A    
Cu1   O6    S    
O26   H18   S    
C44   C45   A    
C5    C42   A    
C21   H7    S    
O30   H21   S    
C24   H1    S    
C14   H9    S    
C36   C37   D    
C6    C30   A    
Cu2   O11   S    
C44   C48   S    
C4    C5    A    
C10   C13   A    
O18   H13   S    
C42   N1    A    
Cu1   N3    S    
C59   O33   D    
C9    C24   A    
C43   N1    A    
C19   N2    A    
C55   H19   S    
C29   C35   A    
C2    C55   S    
C13   C17   A    
C32   C33   A    
C36   C38   S    
C2    C3    A    
C25   C26   A    
O32   H22   S    
C15   H8    S    
C11   C13   A    
C38   C39   D    
C1    O5    A    
C56   O28   D    
Cu2   O5    S    
C52   H16   S    
C18   C33   A    
C8    C46   A    
C6    C58   S    
C1    C39   S    
C34   O11   A    
C48   O15   D    
C36   C52   S    
Cu1   O10   S    
C11   C29   A    
C50   O19   D    
C27   C28   A    
C14   C15   A    
O20   H14   S    
C26   N2    S    
C58   O31   D    
C3    N1    S    
