data_mof_unit_61374.cif
_audit_creation_date              2012-12-10T20:33:30-0500
_audit_creation_method            fapswitch 2.2
_symmetry_space_group_name_H-M    P1
_symmetry_Int_Tables_number       1
_space_group_crystal_system       triclinic
_cell_length_a                    14.149461
_cell_length_b                    10.695138
_cell_length_c                    9.887745
_cell_angle_alpha                 89.938586
_cell_angle_beta                  90.330993
_cell_angle_gamma                 89.848417
_cell_volume                      1496.28569305

loop_
_atom_site_label
_atom_site_type_symbol
_atom_type_description
_atom_site_fract_x
_atom_site_fract_y
_atom_site_fract_z
_atom_type_partial_charge
C1    C     C_R   0.502057 0.260039 0.500076 0.907502
C2    C     C_1   0.772284 0.500341 0.500857 -0.142930
C3    C     C_R   0.511784 0.063691 0.622759 0.004616
C4    C     C_R   0.514410 0.128442 0.500677 -0.115596
C5    C     C_R   0.532900 0.064580 0.379808 -0.183039
C6    C     C_R   0.532630 0.935378 0.379713 -0.209921
C7    C     C_R   0.513976 0.871488 0.500518 -0.054308
C8    C     C_R   0.511328 0.936010 0.622658 -0.046460
C9    C     C_3   0.441708 0.928243 0.735710 -0.487267
C10   C     C_3   0.442071 0.069864 0.735738 1.120343
C11   C     C_R   0.417510 0.486916 0.069875 0.031342
C12   C     C_R   0.329208 0.500270 0.499684 0.903061
C13   C     C_R   0.582297 0.502294 0.072921 -0.202489
C14   C     C_R   0.582454 0.503250 0.929632 0.665635
C15   C     C_R   0.417908 0.483031 0.927611 0.040612
C16   C     C_3   0.331897 0.562752 0.916883 1.085523
C17   C     C_3   0.331998 0.571242 0.071145 -0.310095
C18   C     C_R   0.501709 0.739975 0.499941 0.869683
C19   C     C_R   0.670811 0.500059 0.500298 0.879984
C20   C     C_1   0.227768 0.500690 0.499052 -0.119512
C21   C     C_1   0.142530 0.500936 0.499099 0.038556
C22   C     C_1   0.042662 0.501003 0.499608 0.039556
C23   C     C_1   0.957415 0.500888 0.500177 0.036170
C24   C     C_1   0.857537 0.500614 0.500737 0.021369
H1    H     H_    0.541745 0.113476 0.284725 0.192410
H2    H     H_    0.270227 0.524501 0.118331 0.189377
H3    H     H_    0.541210 0.886590 0.284572 0.176644
H4    H     H_    0.373053 0.887282 0.703332 0.231339
H5    H     H_    0.473269 0.886389 0.828582 0.219479
H6    H     H_    0.648670 0.507553 0.127240 0.184173
N1    N     N_R   0.499420 0.499140 0.142800 -0.118070
N2    N     N_R   0.499420 0.499180 0.857150 -0.156923
O1    O     O_R   0.500010 0.316790 0.614690 -0.569077
O2    O     O_R   0.500000 0.316760 0.385350 -0.611400
O3    O     O_R   0.373720 0.500020 0.614700 -0.527847
O4    O     O_R   0.373710 0.499980 0.385350 -0.624966
O5    O     O_R   0.500000 0.683240 0.614650 -0.570330
O6    O     O_R   0.499990 0.683210 0.385310 -0.650259
O7    O     O_R   0.626290 0.500020 0.614650 -0.524680
O8    O     O_R   0.626280 0.499980 0.385300 -0.619785
Zn1   Zn    Zn3+2 0.500010 0.500020 0.653130 1.098488
Zn2   Zn    Zn3+2 0.499990 0.499980 0.346870 0.945203
F1    F     F_    0.255219 0.497749 0.865699 -0.647831
C25   C     C_3   0.351155 0.702993 0.127816 -0.368831
C26   C     C_3   0.265605 0.789939 0.110367 -0.336378
C27   C     C_3   0.286255 0.919155 0.168873 -0.803721
H7    H     H_    0.303243 0.912026 0.278487 0.256662
H8    H     H_    0.346765 0.962646 0.115489 0.281857
H9    H     H_    0.223248 0.980198 0.155988 0.265957
H10   H     H_    0.247121 0.800445 0.001674 0.285328
H11   H     H_    0.203695 0.749494 0.163408 0.223051
H12   H     H_    0.365132 0.694366 0.237314 0.251080
H13   H     H_    0.414505 0.744795 0.079383 0.224261
F2    F     F_    0.356173 0.122203 0.698233 -0.657466
F3    F     F_    0.479947 0.121032 0.852524 -0.665199
F4    F     F_    0.666377 0.511796 0.865459 -0.644124
F5    F     F_    0.348616 0.673559 0.848568 -0.700757

loop_
_geom_bond_atom_site_label_1
_geom_bond_atom_site_label_2
_ccdc_geom_bond_type
C5    H1    S    
C14   F4    S    
N2    Zn1   S    
C6    C7    A    
N1    Zn2   S    
C13   C14   A    
C12   O4    A    
C9    C10   S    
O4    Zn2   S    
C6    H3    S    
C16   F1    S    
C9    H5    S    
C23   C24   S    
C1    C4    S    
O1    Zn1   S    
C25   H12   S    
O8    Zn2   S    
C18   O6    A    
C17   C25   S    
C11   N1    A    
C7    C8    A    
O7    Zn1   S    
C3    C10   S    
C21   C22   S    
C20   C21   T    
C12   O3    A    
O5    Zn1   S    
C10   F3    S    
C27   H9    S    
C12   C20   S    
C19   O7    A    
C26   H10   S    
O3    Zn1   S    
C17   H2    S    
C18   O5    A    
C1    O2    A    
O6    Zn2   S    
C16   F5    S    
C22   C23   T    
C2    C24   T    
C5    C6    A    
C10   F2    S    
C27   H8    S    
C19   O8    A    
C26   H11   S    
C1    O1    A    
C3    C4    A    
C13   H6    S    
C15   N2    A    
C7    C18   S    
C25   C26   S    
C8    C9    S    
C3    C8    A    
C27   H7    S    
C16   C17   S    
C2    C19   S    
C26   C27   S    
C11   C15   A    
C25   H13   S    
C13   N1    A    
C11   C17   S    
C15   C16   S    
C9    H4    S    
C14   N2    A    
C4    C5    A    
O2    Zn2   S    
