data_mof_unit_65338.cif
_audit_creation_date              2013-03-05T16:19:44-0500
_audit_creation_method            fapswitch 2.2
_symmetry_space_group_name_H-M    P1
_symmetry_Int_Tables_number       1
_space_group_crystal_system       triclinic
_cell_length_a                    24.402095
_cell_length_b                    24.400109
_cell_length_c                    39.801208
_cell_angle_alpha                 89.992637
_cell_angle_beta                  89.9819
_cell_angle_gamma                 90.0069
_cell_volume                      23698.1860673

loop_
_atom_site_label
_atom_site_type_symbol
_atom_site_description
_atom_site_fract_x
_atom_site_fract_y
_atom_site_fract_z
_atom_type_partial_charge
Zn1   Zn    Zn3+2 0.500000 0.064990 0.221970 1.113956
Zn2   Zn    Zn3+2 0.500000 0.935010 0.778030 1.108872
Zn3   Zn    Zn3+2 0.935010 0.500000 0.221970 1.105813
Zn4   Zn    Zn3+2 0.064990 0.500000 0.778030 1.106048
Zn5   Zn    Zn3+2 0.500000 0.935010 0.221970 1.117960
Zn6   Zn    Zn3+2 0.500000 0.064990 0.778030 1.110037
Zn7   Zn    Zn3+2 0.064990 0.500000 0.221970 1.116312
Zn8   Zn    Zn3+2 0.935010 0.500000 0.778030 1.131253
Zn9   Zn    Zn3+2 0.000000 0.564990 0.721970 1.108979
Zn10  Zn    Zn3+2 0.000000 0.435010 0.278030 1.126777
Zn11  Zn    Zn3+2 0.435010 0.000000 0.721970 1.110854
Zn12  Zn    Zn3+2 0.564990 1.000000 0.278030 1.118035
Zn13  Zn    Zn3+2 0.000000 0.435010 0.721970 1.111057
Zn14  Zn    Zn3+2 0.000000 0.564990 0.278030 1.113882
Zn15  Zn    Zn3+2 0.564990 0.000000 0.721970 1.107614
Zn16  Zn    Zn3+2 0.435010 1.000000 0.278030 1.113932
C1    C     C_R   0.271317 0.229003 0.250019 0.066674
C2    C     C_R   0.729340 0.771564 0.749630 0.068392
C3    C     C_R   0.770426 0.272315 0.249101 0.066077
C4    C     C_R   0.229217 0.728559 0.749766 0.064629
C5    C     C_R   0.728461 0.771718 0.249974 0.075690
C6    C     C_R   0.271661 0.229186 0.750277 0.068451
C7    C     C_R   0.228432 0.729103 0.249971 0.066443
C8    C     C_R   0.772393 0.270527 0.749381 0.064469
C9    C     C_R   0.271750 0.770816 0.749849 0.061162
C10   C     C_R   0.727608 0.229818 0.249267 0.067128
C11   C     C_R   0.771895 0.729166 0.749714 0.062762
C12   C     C_R   0.228783 0.271615 0.250002 0.066549
C13   C     C_R   0.729935 0.227787 0.749514 0.066295
C14   C     C_R   0.270898 0.771820 0.250027 0.067498
C15   C     C_R   0.229179 0.271762 0.750205 0.066408
C16   C     C_R   0.771220 0.729000 0.249979 0.068566
O1    O     O_3   0.500000 0.000000 0.250000 -0.530173
O2    O     O_3   0.500000 1.000000 0.750000 -0.526940
O3    O     O_3   0.000000 0.500000 0.250000 -0.530567
O4    O     O_3   0.000000 0.500000 0.750000 -0.529281
O5    O     O_R   0.454490 0.000000 0.324820 -0.622845
O6    O     O_R   0.545510 1.000000 0.675180 -0.617719
O7    O     O_R   0.000000 0.454490 0.324820 -0.620558
O8    O     O_R   0.000000 0.545510 0.675180 -0.618740
O9    O     O_R   0.545510 0.000000 0.324820 -0.619195
O10   O     O_R   0.454490 1.000000 0.675180 -0.614999
O11   O     O_R   0.000000 0.545510 0.324820 -0.618802
O12   O     O_R   0.000000 0.454490 0.675180 -0.619431
O13   O     O_R   0.954490 0.500000 0.824820 -0.614709
O14   O     O_R   0.045510 0.500000 0.175180 -0.620614
O15   O     O_R   0.500000 0.954490 0.824820 -0.617661
O16   O     O_R   0.500000 0.045510 0.175180 -0.621376
O17   O     O_R   0.045510 0.500000 0.824820 -0.622604
O18   O     O_R   0.954490 0.500000 0.175180 -0.621641
O19   O     O_R   0.500000 0.045510 0.824820 -0.614873
O20   O     O_R   0.500000 0.954490 0.175180 -0.620757
O21   O     O_R   0.609450 0.064000 0.269610 -0.614766
O22   O     O_R   0.390550 0.936000 0.730390 -0.615203
O23   O     O_R   0.936000 0.609450 0.269610 -0.616191
O24   O     O_R   0.064000 0.390550 0.730390 -0.608147
O25   O     O_R   0.390550 0.936000 0.269610 -0.613860
O26   O     O_R   0.609450 0.064000 0.730390 -0.613297
O27   O     O_R   0.064000 0.390550 0.269610 -0.607262
O28   O     O_R   0.936000 0.609450 0.730390 -0.623362
O29   O     O_R   0.609450 0.936000 0.730390 -0.616048
O30   O     O_R   0.390550 0.064000 0.269610 -0.616508
O31   O     O_R   0.936000 0.390550 0.730390 -0.630206
O32   O     O_R   0.064000 0.609450 0.269610 -0.622431
O33   O     O_R   0.390550 0.064000 0.730390 -0.618749
O34   O     O_R   0.609450 0.936000 0.269610 -0.615701
O35   O     O_R   0.064000 0.609450 0.730390 -0.613400
O36   O     O_R   0.936000 0.390550 0.269610 -0.593338
O37   O     O_R   0.109450 0.564000 0.769610 -0.621451
O38   O     O_R   0.890550 0.436000 0.230390 -0.631713
O39   O     O_R   0.436000 0.109450 0.769610 -0.619058
O40   O     O_R   0.564000 0.890550 0.230390 -0.615236
O41   O     O_R   0.890550 0.436000 0.769610 -0.594743
O42   O     O_R   0.109450 0.564000 0.230390 -0.614476
O43   O     O_R   0.564000 0.890550 0.769610 -0.615423
O44   O     O_R   0.436000 0.109450 0.230390 -0.616706
O45   O     O_R   0.109450 0.436000 0.230390 -0.615849
O46   O     O_R   0.890550 0.564000 0.769610 -0.597664
O47   O     O_R   0.436000 0.890550 0.230390 -0.614413
O48   O     O_R   0.564000 0.109450 0.769610 -0.615900
O49   O     O_R   0.890550 0.564000 0.230390 -0.619191
O50   O     O_R   0.109450 0.436000 0.769610 -0.621119
O51   O     O_R   0.564000 0.109450 0.230390 -0.615217
O52   O     O_R   0.436000 0.890550 0.769610 -0.611123
C17   C     C_R   0.040817 0.529876 0.431177 0.107948
C18   C     C_R   0.958649 0.471777 0.568844 0.108199
C19   C     C_R   0.472498 0.041864 0.431173 0.108571
C20   C     C_R   0.529293 0.958755 0.568855 0.107678
C21   C     C_R   0.959823 0.469888 0.431240 0.112181
C22   C     C_R   0.042284 0.528054 0.568952 0.112883
C23   C     C_R   0.527768 0.957568 0.431033 0.112363
C24   C     C_R   0.470906 0.040909 0.568808 0.112361
C25   C     C_R   0.459175 0.029317 0.931196 0.112350
C26   C     C_R   0.542408 0.972286 0.068951 0.112065
C27   C     C_R   0.970521 0.459928 0.931122 0.113608
C28   C     C_R   0.028238 0.541371 0.068999 0.113559
C29   C     C_R   0.541080 0.970588 0.931156 0.107508
C30   C     C_R   0.458105 0.027541 0.068847 0.108924
C31   C     C_R   0.030178 0.541244 0.930879 0.100069
C32   C     C_R   0.970843 0.458428 0.069155 0.100329
C33   C     C_R   0.039737 0.531196 0.395643 -0.040404
C34   C     C_R   0.959416 0.470521 0.604376 -0.040972
C35   C     C_R   0.471021 0.040992 0.395639 -0.041287
C36   C     C_R   0.530541 0.959757 0.604395 -0.040946
C37   C     C_R   0.960383 0.469121 0.395707 -0.045776
C38   C     C_R   0.041385 0.529116 0.604484 -0.045386
C39   C     C_R   0.528577 0.958309 0.395496 -0.042305
C40   C     C_R   0.469939 0.040243 0.604343 -0.045992
C41   C     C_R   0.459848 0.030251 0.895660 -0.045937
C42   C     C_R   0.541670 0.971446 0.104487 -0.042330
C43   C     C_R   0.969758 0.460331 0.895613 -0.046086
C44   C     C_R   0.029218 0.540770 0.104512 -0.044964
C45   C     C_R   0.540084 0.969320 0.895617 -0.040676
C46   C     C_R   0.458981 0.028987 0.104380 -0.041412
C47   C     C_R   0.030730 0.540421 0.895357 -0.052424
C48   C     C_R   0.970277 0.459139 0.104671 -0.053675
C49   C     C_R   0.000102 0.500077 0.377989 -0.245255
C50   C     C_R   0.000233 0.499927 0.622082 -0.243523
C51   C     C_R   0.499906 0.999816 0.377919 -0.244053
C52   C     C_R   0.500122 0.999940 0.622039 -0.244889
C53   C     C_R   0.500037 0.999896 0.877966 -0.244817
C54   C     C_R   0.500163 0.000096 0.122082 -0.244168
C55   C     C_R   0.000072 0.500362 0.877860 -0.241074
C56   C     C_R   0.999918 0.499905 0.122193 -0.240163
C57   C     C_R   0.499977 0.999992 0.340819 0.921780
C58   C     C_R   0.500026 0.999965 0.659165 0.926342
C59   C     C_R   0.000047 0.500016 0.340846 0.920687
C60   C     C_R   0.000014 0.499990 0.659180 0.923017
C61   C     C_R   0.000008 0.500047 0.840800 0.926527
C62   C     C_R   0.999995 0.500015 0.159220 0.925499
C63   C     C_R   0.500033 0.999979 0.840837 0.926280
C64   C     C_R   0.500005 0.000021 0.159181 0.921802
C65   C     C_R   0.605011 0.105087 0.249998 0.939402
C66   C     C_R   0.394923 0.894897 0.750015 0.925311
C67   C     C_R   0.894925 0.605092 0.249998 0.926962
C68   C     C_R   0.105152 0.395019 0.749891 0.932148
C69   C     C_R   0.394937 0.894984 0.249995 0.944074
C70   C     C_R   0.605120 0.105074 0.749981 0.917637
C71   C     C_R   0.105051 0.394986 0.250013 0.949721
C72   C     C_R   0.895041 0.605160 0.750121 0.940107
C73   C     C_R   0.605126 0.894876 0.749991 0.936630
C74   C     C_R   0.394914 0.105105 0.250007 0.917570
C75   C     C_R   0.894674 0.395293 0.749771 0.923903
C76   C     C_R   0.105129 0.605013 0.250022 0.926563
C77   C     C_R   0.394920 0.105083 0.750010 0.955129
C78   C     C_R   0.604954 0.895056 0.249994 0.930535
C79   C     C_R   0.105069 0.605198 0.750022 0.943712
C80   C     C_R   0.895330 0.394617 0.249729 0.924127
C81   C     C_R   0.000417 0.499798 0.448645 0.094044
C82   C     C_R   0.000518 0.499928 0.551459 0.093860
C83   C     C_R   0.500251 0.999727 0.448548 0.093304
C84   C     C_R   0.500087 0.999785 0.551388 0.093891
C85   C     C_R   0.500174 0.999980 0.948618 0.093888
C86   C     C_R   0.500242 0.999808 0.051454 0.093348
C87   C     C_R   0.000172 0.500803 0.948567 0.106123
C88   C     C_R   0.999731 0.499729 0.051510 0.105104
C89   C     C_1   0.000522 0.499812 0.484951 -0.005099
C90   C     C_1   0.000593 0.499895 0.515154 -0.005009
C91   C     C_1   0.500273 0.999677 0.484863 -0.004870
C92   C     C_1   0.500177 0.999731 0.515072 -0.005252
C93   C     C_1   0.500222 0.999904 0.984933 -0.005253
C94   C     C_1   0.500281 0.999805 0.015141 -0.004881
C95   C     C_1   0.000068 0.500472 0.984912 -0.008796
C96   C     C_1   0.999872 0.500107 0.015165 -0.008932
C97   C     C_R   0.257327 0.174658 0.243183 -0.170860
C98   C     C_R   0.743396 0.826145 0.755465 -0.172741
C99   C     C_R   0.760100 0.323730 0.263166 -0.171781
C100  C     C_R   0.174802 0.743075 0.755581 -0.173102
C101  C     C_R   0.682689 0.766610 0.270912 -0.171317
C102  C     C_R   0.258389 0.175694 0.759657 -0.176725
C103  C     C_R   0.174602 0.742218 0.241200 -0.172534
C104  C     C_R   0.761990 0.320875 0.733988 -0.162686
C105  C     C_R   0.300579 0.782345 0.720448 -0.167589
C106  C     C_R   0.698407 0.218781 0.278721 -0.176686
C107  C     C_R   0.779794 0.696503 0.721367 -0.168017
C108  C     C_R   0.223186 0.306452 0.277616 -0.169940
C109  C     C_R   0.703589 0.213461 0.719643 -0.167171
C110  C     C_R   0.304172 0.778916 0.278238 -0.168981
C111  C     C_R   0.219244 0.301934 0.721047 -0.168538
C112  C     C_R   0.788451 0.705519 0.280254 -0.178181
C113  C     C_R   0.803878 0.721182 0.778338 -0.164921
C114  C     C_R   0.193957 0.277179 0.222386 -0.170178
C115  C     C_R   0.283052 0.799474 0.779330 -0.165279
C116  C     C_R   0.716637 0.199895 0.220095 -0.169291
C117  C     C_R   0.198378 0.281563 0.779137 -0.170612
C118  C     C_R   0.794707 0.711734 0.219710 -0.178349
C119  C     C_R   0.715488 0.201962 0.779559 -0.173346
C120  C     C_R   0.278165 0.805084 0.221816 -0.173191
C121  C     C_R   0.821749 0.260952 0.235212 -0.165460
C122  C     C_R   0.243238 0.674046 0.743836 -0.173462
C123  C     C_R   0.325682 0.242866 0.256885 -0.171360
C124  C     C_R   0.674809 0.757114 0.744020 -0.173855
C125  C     C_R   0.242038 0.675308 0.258556 -0.171871
C126  C     C_R   0.822802 0.261050 0.764916 -0.168446
C127  C     C_R   0.733498 0.817494 0.229033 -0.171549
C128  C     C_R   0.325165 0.242126 0.740733 -0.175296
H1    H     H_    0.214949 0.164628 0.237801 0.185387
H2    H     H_    0.785958 0.836506 0.760048 0.181162
H3    H     H_    0.719994 0.332051 0.273695 0.186491
H4    H     H_    0.164876 0.785714 0.760282 0.182857
H5    H     H_    0.678399 0.730418 0.286465 0.182838
H6    H     H_    0.216663 0.166366 0.767090 0.179754
H7    H     H_    0.164758 0.784095 0.234396 0.184635
H8    H     H_    0.722373 0.327690 0.722416 0.189612
H9    H     H_    0.291318 0.759182 0.697909 0.188086
H10   H     H_    0.707291 0.242226 0.301197 0.183174
H11   H     H_    0.754129 0.703065 0.699504 0.187654
H12   H     H_    0.250676 0.301546 0.298789 0.188435
H13   H     H_    0.715144 0.233958 0.696533 0.189074
H14   H     H_    0.298031 0.752683 0.299897 0.186594
H15   H     H_    0.243595 0.293597 0.698844 0.188341
H16   H     H_    0.770322 0.719108 0.303673 0.184362
H17   H     H_    0.796879 0.747076 0.800046 0.191848
H18   H     H_    0.198901 0.249725 0.201191 0.187441
H19   H     H_    0.259816 0.789937 0.801807 0.190351
H20   H     H_    0.739590 0.208766 0.197416 0.188856
H21   H     H_    0.206352 0.257393 0.801464 0.184992
H22   H     H_    0.781157 0.729871 0.196289 0.184507
H23   H     H_    0.736385 0.213398 0.802544 0.182898
H24   H     H_    0.251918 0.799089 0.200159 0.185552
H25   H     H_    0.829272 0.220617 0.224797 0.188596
H26   H     H_    0.285740 0.663720 0.739000 0.181632
H27   H     H_    0.335805 0.285228 0.262261 0.185011
H28   H     H_    0.664721 0.714491 0.739403 0.179836
H29   H     H_    0.284035 0.665843 0.265263 0.186987
H30   H     H_    0.830223 0.221639 0.776622 0.189669
H31   H     H_    0.769680 0.821830 0.213476 0.182844
H32   H     H_    0.334706 0.283818 0.733330 0.181345
C129  C     C_R   0.297204 0.133487 0.242822 -0.058981
C130  C     C_R   0.703282 0.867169 0.755857 -0.059253
C131  C     C_R   0.800757 0.364132 0.264026 -0.068941
C132  C     C_R   0.133400 0.703351 0.755733 -0.062451
C133  C     C_R   0.641722 0.806640 0.271361 -0.077675
C134  C     C_R   0.298239 0.134428 0.759840 -0.061683
C135  C     C_R   0.133740 0.702015 0.240700 -0.060695
C136  C     C_R   0.801178 0.362718 0.734123 -0.059774
C137  C     C_R   0.341202 0.822806 0.719932 -0.063844
C138  C     C_R   0.657664 0.178475 0.279425 -0.062144
C139  C     C_R   0.819742 0.655396 0.721087 -0.060230
C140  C     C_R   0.183010 0.347364 0.278141 -0.070334
C141  C     C_R   0.662141 0.173911 0.719309 -0.057905
C142  C     C_R   0.345334 0.818819 0.278689 -0.065701
C143  C     C_R   0.178695 0.342475 0.720248 -0.065586
C144  C     C_R   0.827785 0.663923 0.280688 -0.056617
C145  C     C_R   0.844306 0.680499 0.779249 -0.069898
C146  C     C_R   0.152940 0.317227 0.221907 -0.063765
C147  C     C_R   0.323304 0.840288 0.780015 -0.061062
C148  C     C_R   0.677305 0.158229 0.219978 -0.062906
C149  C     C_R   0.157197 0.321423 0.779428 -0.060446
C150  C     C_R   0.836236 0.672325 0.219286 -0.056978
C151  C     C_R   0.675097 0.161309 0.780229 -0.058505
C152  C     C_R   0.318391 0.845944 0.221332 -0.066620
C153  C     C_R   0.863584 0.300175 0.235279 -0.060900
C154  C     C_R   0.203089 0.633069 0.743636 -0.056705
C155  C     C_R   0.366756 0.202880 0.257262 -0.057946
C156  C     C_R   0.633448 0.796871 0.744008 -0.058420
C157  C     C_R   0.202301 0.633977 0.258855 -0.064974
C158  C     C_R   0.863347 0.301589 0.765598 -0.074919
C159  C     C_R   0.693403 0.858408 0.228590 -0.077142
C160  C     C_R   0.366122 0.201944 0.740272 -0.062995
C161  C     C_R   0.352526 0.147585 0.250037 -0.166346
C162  C     C_R   0.647700 0.852517 0.749998 -0.164324
C163  C     C_R   0.853019 0.352296 0.249985 -0.162098
C164  C     C_R   0.147605 0.647646 0.749844 -0.166238
C165  C     C_R   0.647151 0.852900 0.249976 -0.159165
C166  C     C_R   0.352620 0.147585 0.750000 -0.165646
C167  C     C_R   0.147511 0.647428 0.249885 -0.167886
C168  C     C_R   0.852412 0.352968 0.750106 -0.160521
C169  C     C_R   0.352676 0.852290 0.749981 -0.169617
C170  C     C_R   0.647263 0.147563 0.249858 -0.166176
C171  C     C_R   0.852589 0.647446 0.750197 -0.165786
C172  C     C_R   0.147425 0.352717 0.250038 -0.164168
C173  C     C_R   0.647735 0.147340 0.749875 -0.170590
C174  C     C_R   0.352484 0.852752 0.249985 -0.165619
C175  C     C_R   0.147460 0.352548 0.749822 -0.167944
C176  C     C_R   0.852537 0.647545 0.249989 -0.168387
C177  C     C_3   0.085391 0.558739 0.451107 -0.810621
H33   H     H_    0.118319 0.576664 0.435474 0.260572
H34   H     H_    0.066955 0.592017 0.466409 0.249797
H35   H     H_    0.105713 0.528920 0.468094 0.230496
C178  C     C_3   0.912915 0.444959 0.548836 -0.809721
H36   H     H_    0.879105 0.428606 0.564407 0.261663
H37   H     H_    0.894088 0.475658 0.531789 0.230296
H38   H     H_    0.929884 0.410832 0.533601 0.249455
C179  C     C_3   0.446333 0.087975 0.451186 -0.809732
H39   H     H_    0.430484 0.122005 0.435605 0.261049
H40   H     H_    0.411977 0.071489 0.466436 0.249637
H41   H     H_    0.477293 0.106396 0.468217 0.230132
C180  C     C_3   0.557281 0.913630 0.548919 -0.809323
H42   H     H_    0.574389 0.880276 0.564546 0.260909
H43   H     H_    0.527119 0.893993 0.531860 0.230148
H44   H     H_    0.591025 0.931391 0.533691 0.249939
C181  C     C_3   0.915612 0.440604 0.451246 -0.808297
H45   H     H_    0.882967 0.422094 0.435665 0.260947
H46   H     H_    0.934455 0.407624 0.466601 0.250060
H47   H     H_    0.894958 0.470275 0.468180 0.229803
C182  C     C_3   0.088018 0.555095 0.549054 -0.807730
H48   H     H_    0.121566 0.571685 0.564729 0.260879
H49   H     H_    0.107139 0.524491 0.532063 0.229011
H50   H     H_    0.070980 0.589117 0.533760 0.250768
C183  C     C_3   0.554407 0.911603 0.450917 -0.808900
H51   H     H_    0.570811 0.877959 0.435240 0.261450
H52   H     H_    0.588531 0.928368 0.466234 0.250626
H53   H     H_    0.523622 0.892707 0.467888 0.229027
C184  C     C_3   0.442623 0.085767 0.548822 -0.807571
H54   H     H_    0.424908 0.118833 0.564424 0.261064
H55   H     H_    0.472740 0.105757 0.531876 0.229441
H56   H     H_    0.409216 0.067670 0.533482 0.250313
C185  C     C_3   0.414438 0.057802 0.951181 -0.808303
H57   H     H_    0.381453 0.075654 0.935580 0.260903
H58   H     H_    0.394319 0.027778 0.968131 0.229414
H59   H     H_    0.432672 0.091143 0.966519 0.250429
C186  C     C_3   0.588376 0.945676 0.049049 -0.808287
H60   H     H_    0.622027 0.929277 0.064714 0.261647
H61   H     H_    0.571624 0.911550 0.033724 0.250500
H62   H     H_    0.607253 0.976482 0.032086 0.229081
C187  C     C_3   0.941917 0.415161 0.950989 -0.820805
H63   H     H_    0.922173 0.383312 0.935367 0.262786
H64   H     H_    0.972483 0.393574 0.966835 0.230001
H65   H     H_    0.909842 0.433590 0.967237 0.251014
C188  C     C_3   0.055486 0.587033 0.049183 -0.816956
H66   H     H_    0.073077 0.620060 0.064858 0.262897
H67   H     H_    0.088927 0.569751 0.033513 0.250968
H68   H     H_    0.024608 0.606980 0.032760 0.229740
C189  C     C_3   0.586076 0.942415 0.951095 -0.808734
H69   H     H_    0.619353 0.925140 0.935472 0.261039
H70   H     H_    0.605844 0.972510 0.968144 0.230266
H71   H     H_    0.568166 0.908762 0.966333 0.249762
C190  C     C_3   0.411991 0.053716 0.048852 -0.810332
H72   H     H_    0.377967 0.069555 0.064444 0.260850
H73   H     H_    0.428470 0.088085 0.033610 0.249740
H74   H     H_    0.393571 0.022763 0.031812 0.230131
C191  C     C_3   0.060677 0.586348 0.949335 -0.804050
H75   H     H_    0.052176 0.587452 0.976542 0.228073
H76   H     H_    0.105503 0.580756 0.946144 0.275933
H77   H     H_    0.048435 0.626997 0.939278 0.245236
C192  C     C_3   0.941595 0.412546 0.050664 -0.803616
H78   H     H_    0.950192 0.411698 0.023470 0.227939
H79   H     H_    0.954900 0.372227 0.060711 0.245412
H80   H     H_    0.896629 0.416936 0.053827 0.275603
C193  C     C_2   0.080452 0.564218 0.376675 0.926318
O53   O     O_2   0.083395 0.613697 0.381240 -0.592843
O54   O     O_R   0.114578 0.538779 0.353173 -0.768726
H81   H     H_    0.140276 0.565644 0.341806 0.367181
C194  C     C_2   0.917105 0.439533 0.623323 0.925095
O55   O     O_2   0.911735 0.390256 0.618772 -0.591281
O56   O     O_R   0.884244 0.466649 0.646796 -0.775721
H82   H     H_    0.857198 0.441128 0.658135 0.358690
C195  C     C_2   0.440080 0.083360 0.376712 0.923374
O57   O     O_2   0.390950 0.089243 0.381608 -0.593266
O58   O     O_R   0.467012 0.115653 0.352855 -0.767001
H83   H     H_    0.441491 0.142705 0.341516 0.369134
C196  C     C_2   0.562751 0.918434 0.623397 0.928346
O59   O     O_2   0.612117 0.914333 0.618715 -0.591185
O60   O     O_R   0.536709 0.885118 0.647100 -0.770080
H84   H     H_    0.563058 0.859008 0.658560 0.367914
C197  C     C_2   0.918714 0.437157 0.376868 0.934837
O61   O     O_2   0.887998 0.460405 0.357221 -0.573955
O62   O     O_R   0.915256 0.380434 0.381331 -0.775608
H85   H     H_    0.885576 0.363206 0.366974 0.353279
C198  C     C_2   0.083879 0.559840 0.623453 0.932168
O63   O     O_2   0.112818 0.536001 0.643843 -0.586071
O64   O     O_R   0.090084 0.616169 0.618270 -0.773777
H86   H     H_    0.120027 0.632577 0.632781 0.354897
C199  C     C_2   0.558095 0.915044 0.376473 0.923894
O65   O     O_2   0.533187 0.886177 0.356540 -0.594270
O66   O     O_R   0.614442 0.907970 0.381081 -0.773765
H87   H     H_    0.629905 0.877508 0.366575 0.355893
C200  C     C_2   0.438429 0.082267 0.623209 0.935662
O67   O     O_2   0.461856 0.112227 0.643218 -0.586561
O68   O     O_R   0.381879 0.086882 0.618367 -0.773922
H88   H     H_    0.364942 0.116670 0.632775 0.354996
C201  C     C_2   0.417941 0.061898 0.876793 0.935333
O69   O     O_2   0.387879 0.038555 0.856805 -0.587013
O70   O     O_R   0.413552 0.118479 0.881610 -0.773922
H89   H     H_    0.383825 0.135511 0.867202 0.354874
C202  C     C_2   0.584936 0.941913 0.123491 0.924459
O71   O     O_2   0.613791 0.966807 0.143438 -0.592181
O72   O     O_R   0.592027 0.885570 0.118850 -0.774067
H90   H     H_    0.622489 0.870096 0.133346 0.355870
C203  C     C_2   0.938574 0.418080 0.876776 0.932006
O73   O     O_2   0.962619 0.386909 0.857769 -0.575068
O74   O     O_R   0.881711 0.414629 0.880484 -0.773139
H91   H     H_    0.865078 0.384538 0.866182 0.353225
C204  C     C_2   0.060043 0.583280 0.123416 0.931001
O75   O     O_2   0.036102 0.612916 0.143386 -0.579751
O76   O     O_R   0.116556 0.588660 0.118677 -0.774803
H92   H     H_    0.133008 0.618688 0.133107 0.353732
C205  C     C_2   0.581277 0.936918 0.876629 0.929232
O77   O     O_2   0.585124 0.887526 0.881297 -0.591408
O78   O     O_R   0.614773 0.962814 0.852962 -0.770004
H93   H     H_    0.640791 0.936341 0.841528 0.367892
C206  C     C_2   0.416604 0.059897 0.123327 0.922584
O79   O     O_2   0.410717 0.109037 0.118465 -0.592780
O80   O     O_R   0.384307 0.032919 0.147162 -0.769195
H94   H     H_    0.357245 0.058416 0.158516 0.369717
C207  C     C_2   0.061236 0.583222 0.876315 0.936825
O81   O     O_2   0.109850 0.591167 0.881937 -0.598463
O82   O     O_R   0.034266 0.614003 0.851735 -0.771397
H95   H     H_    0.059351 0.641583 0.840499 0.369386
C208  C     C_2   0.941015 0.415447 0.123698 0.933652
O83   O     O_2   0.892663 0.406069 0.118060 -0.598695
O84   O     O_R   0.968874 0.385454 0.148272 -0.777854
H96   H     H_    0.944645 0.357107 0.159493 0.359786
C209  C     C_2   0.279263 0.076879 0.233921 0.922481
O85   O     O_2   0.311019 0.044530 0.220841 -0.611309
O86   O     O_R   0.224980 0.061018 0.239716 -0.781766
H97   H     H_    0.217455 0.021915 0.232428 0.361372
C210  C     C_2   0.720973 0.924339 0.763442 0.923452
O87   O     O_2   0.767198 0.939344 0.755865 -0.587516
O88   O     O_R   0.685847 0.960663 0.780012 -0.805731
H98   H     H_    0.703021 0.998022 0.783662 0.371603
C211  C     C_2   0.786903 0.417642 0.280170 0.926122
O89   O     O_2   0.822844 0.447805 0.290946 -0.584169
O90   O     O_R   0.731984 0.433084 0.283701 -0.786144
H99   H     H_    0.727599 0.469931 0.295171 0.365052
C212  C     C_2   0.076330 0.721698 0.762904 0.919620
O91   O     O_2   0.062092 0.768155 0.755302 -0.590283
O92   O     O_R   0.039185 0.686975 0.779073 -0.804710
H100  H     H_    0.002065 0.704769 0.782433 0.370253
C213  C     C_2   0.594314 0.798376 0.294571 0.922670
O93   O     O_2   0.550524 0.821318 0.289612 -0.574220
O94   O     O_R   0.599689 0.763202 0.322140 -0.792491
H101  H     H_    0.564953 0.760809 0.336054 0.372578
C214  C     C_2   0.281756 0.078672 0.771316 0.918894
O95   O     O_2   0.234366 0.063380 0.767709 -0.593734
O96   O     O_R   0.319508 0.044118 0.787090 -0.775701
H102  H     H_    0.302691 0.007831 0.793944 0.379704
C215  C     C_2   0.077834 0.718638 0.229507 0.929517
O97   O     O_2   0.047016 0.685591 0.216218 -0.588934
O98   O     O_R   0.060976 0.773078 0.233334 -0.784192
H103  H     H_    0.022504 0.779623 0.224588 0.362014
C216  C     C_2   0.786838 0.415167 0.716778 0.888580
O99   O     O_2   0.811885 0.457479 0.722611 -0.597294
O100  O     O_R   0.743538 0.416195 0.693740 -0.786803
H104  H     H_    0.737573 0.453855 0.683603 0.366875
C217  C     C_2   0.371222 0.831708 0.687712 0.924640
O101  O     O_2   0.417813 0.850134 0.687543 -0.613467
O102  O     O_R   0.346320 0.817447 0.657286 -0.782673
H105  H     H_    0.370676 0.824913 0.637151 0.363307
C218  C     C_2   0.626173 0.171225 0.311240 0.929961
O103  O     O_2   0.579036 0.154216 0.310800 -0.581614
O104  O     O_R   0.650216 0.185588 0.341904 -0.787263
H106  H     H_    0.624829 0.179345 0.361712 0.362963
C219  C     C_2   0.824599 0.620996 0.690226 0.930135
O105  O     O_2   0.842735 0.574340 0.691677 -0.583691
O106  O     O_R   0.806828 0.641783 0.659335 -0.786056
H107  H     H_    0.811739 0.614666 0.640266 0.363237
C220  C     C_2   0.180538 0.383916 0.308229 0.925388
O107  O     O_2   0.158420 0.428821 0.306807 -0.582580
O108  O     O_R   0.204904 0.367169 0.338350 -0.787450
H108  H     H_    0.201053 0.395428 0.356876 0.365001
C221  C     C_2   0.634260 0.162963 0.686654 0.931982
O109  O     O_2   0.586569 0.147666 0.685824 -0.620606
O110  O     O_R   0.662458 0.171870 0.656535 -0.777862
H109  H     H_    0.639283 0.163524 0.636021 0.362506
C222  C     C_2   0.380387 0.822708 0.309336 0.928043
O111  O     O_2   0.426548 0.842065 0.307885 -0.578661
O112  O     O_R   0.360771 0.802733 0.340019 -0.787089
H110  H     H_    0.388226 0.807212 0.358940 0.363070
C223  C     C_2   0.171246 0.373459 0.688185 0.921108
O113  O     O_2   0.149644 0.418650 0.687922 -0.615141
O114  O     O_R   0.190240 0.351004 0.658003 -0.783845
H111  H     H_    0.183249 0.375758 0.637992 0.363971
C224  C     C_2   0.840139 0.637520 0.313571 0.933288
O115  O     O_2   0.852210 0.588927 0.315038 -0.588316
O116  O     O_R   0.835936 0.668088 0.343187 -0.782335
H112  H     H_    0.844721 0.645683 0.363956 0.361012
C225  C     C_2   0.876908 0.674754 0.810874 0.917198
O117  O     O_2   0.920652 0.650370 0.811138 -0.614831
O118  O     O_R   0.857586 0.698351 0.840651 -0.782958
H113  H     H_    0.883147 0.692050 0.860360 0.364833
C226  C     C_2   0.116457 0.319732 0.191812 0.927471
O119  O     O_2   0.071042 0.340720 0.193447 -0.584288
O120  O     O_R   0.133885 0.296690 0.161447 -0.788704
H114  H     H_    0.105637 0.300516 0.142913 0.362951
C227  C     C_2   0.332177 0.869767 0.812430 0.926371
O121  O     O_2   0.351367 0.916032 0.812942 -0.621962
O122  O     O_R   0.317132 0.844674 0.842669 -0.781051
H115  H     H_    0.324693 0.868637 0.862958 0.363097
C228  C     C_2   0.670142 0.126071 0.188414 0.930897
O123  O     O_2   0.654316 0.078533 0.189287 -0.580181
O124  O     O_R   0.683221 0.149980 0.157486 -0.783390
H116  H     H_    0.677164 0.124136 0.137886 0.362245
C229  C     C_2   0.124456 0.327877 0.810835 0.925489
O125  O     O_2   0.077214 0.344522 0.809840 -0.585011
O126  O     O_R   0.147469 0.313203 0.841741 -0.785486
H117  H     H_    0.121304 0.318912 0.861226 0.362975
C230  C     C_2   0.862645 0.659914 0.186410 0.934647
O127  O     O_2   0.911207 0.647730 0.184957 -0.583587
O128  O     O_R   0.832125 0.664194 0.156784 -0.783641
H118  H     H_    0.854534 0.655361 0.136021 0.360717
C231  C     C_2   0.664221 0.133610 0.812951 0.928821
O129  O     O_2   0.648582 0.086021 0.813885 -0.612009
O130  O     O_R   0.673681 0.161802 0.842997 -0.782251
H119  H     H_    0.665361 0.138738 0.863571 0.362476
C232  C     C_2   0.322458 0.881050 0.190708 0.927415
O131  O     O_2   0.342132 0.927078 0.192174 -0.580532
O132  O     O_R   0.302278 0.861658 0.160034 -0.787929
H120  H     H_    0.306909 0.889134 0.141128 0.364393
C233  C     C_2   0.916773 0.284915 0.219059 0.890462
O133  O     O_2   0.958501 0.311268 0.224235 -0.597025
O134  O     O_R   0.919151 0.239336 0.197765 -0.788647
H121  H     H_    0.957170 0.232987 0.188243 0.365192
C234  C     C_2   0.220520 0.576056 0.735662 0.926273
O135  O     O_2   0.266382 0.560450 0.743579 -0.592009
O136  O     O_R   0.185596 0.540648 0.718230 -0.772429
H122  H     H_    0.202714 0.503364 0.714282 0.372618
C235  C     C_2   0.423408 0.220687 0.266168 0.922647
O137  O     O_2   0.455714 0.188832 0.279199 -0.615908
O138  O     O_R   0.439362 0.274961 0.260429 -0.781465
H123  H     H_    0.478481 0.282398 0.267711 0.361855
C236  C     C_2   0.576345 0.778708 0.736737 0.921480
O139  O     O_2   0.561840 0.732358 0.744399 -0.589909
O140  O     O_R   0.539506 0.813510 0.720362 -0.803724
H124  H     H_    0.502284 0.795949 0.716923 0.371872
C237  C     C_2   0.219842 0.577909 0.269321 0.917141
O141  O     O_2   0.186928 0.545301 0.281006 -0.608337
O142  O     O_R   0.274958 0.562790 0.266503 -0.783431
H125  H     H_    0.282045 0.524011 0.274575 0.362005
C238  C     C_2   0.916027 0.288513 0.782995 0.927047
O143  O     O_2   0.946848 0.324928 0.792369 -0.576732
O144  O     O_R   0.930008 0.233839 0.789242 -0.783198
H126  H     H_    0.966414 0.230030 0.801296 0.367478
C239  C     C_2   0.701593 0.905840 0.205383 0.922572
O145  O     O_2   0.678576 0.949602 0.210338 -0.578113
O146  O     O_R   0.736786 0.900513 0.177816 -0.791919
H127  H     H_    0.739126 0.935249 0.163899 0.373412
C240  C     C_2   0.421920 0.218041 0.728623 0.920561
O147  O     O_2   0.437525 0.265356 0.732115 -0.592291
O148  O     O_R   0.456174 0.179991 0.712846 -0.776796
H128  H     H_    0.492625 0.196447 0.705971 0.379672

loop_
_geom_bond_atom_site_label_1
_geom_bond_atom_site_label_2
_geom_bond_distance
_ccdc_geom_bond_type
C20   C36   1.415094 A    
O96   H102  1.013185 S    
C128  H32   1.084310 S    
C197  O61   1.222853 D    
C156  C162  1.421737 A    
C190  H73   1.110231 S    
C214  O95   1.223579 D    
C40   C52   1.416331 A    
O148  H128  1.013403 S    
C107  H11   1.084167 S    
O112  H110  1.014048 S    
Zn4   O4    1.939278 S    
C192  H78   1.102651 S    
C2    C98   1.394714 A    
C191  H75   1.102828 S    
C1    C123  1.396116 A    
C66   C169  1.464010 S    
C2    C124  1.394604 A    
C89   C90   1.202104 T    
Zn16  O30   1.930925 S    
C145  C171  1.424235 A    
C44   C56   1.414186 A    
C146  C172  1.421901 A    
C207  O82   1.398065 S    
C113  C145  1.400082 A    
C191  H77   1.110521 S    
C24   C184  1.519006 S    
O22   C66   1.275616 A    
C222  O111  1.222737 D    
C120  C152  1.399163 A    
Zn8   O13   1.922154 S    
C228  O124  1.398945 S    
O6    C58   1.280093 A    
O130  H119  1.014010 S    
C124  C156  1.399982 A    
C149  C175  1.421881 A    
C77   C166  1.463281 S    
C150  C176  1.420303 A    
C100  H4    1.084514 S    
C177  H34   1.110272 S    
Zn2   O2    1.938768 S    
C185  H58   1.110152 S    
C211  O90   1.399192 S    
C13   C109  1.396252 A    
C38   C50   1.416152 A    
C97   C129  1.398736 A    
C116  C148  1.398067 A    
C3    C99   1.396742 A    
Zn4   O37   1.930595 S    
C196  O60   1.397862 S    
C93   C94   1.202318 T    
C120  H24   1.083961 S    
C104  C136  1.398795 A    
C115  H19   1.084235 S    
Zn6   O39   1.931015 S    
C134  C214  1.490240 S    
C47   C55   1.414352 A    
O114  H111  1.014045 S    
O20   C64   1.280454 A    
O9    C57   1.280476 A    
O21   C65   1.275134 A    
O11   C59   1.280204 A    
C235  O138  1.399009 S    
O19   C63   1.280806 A    
C225  O117  1.222164 D    
C158  C238  1.494789 S    
Zn12  O34   1.930876 S    
C85   C93   1.445367 S    
C178  H38   1.110233 S    
C187  H65   1.110331 S    
C98   H2    1.084419 S    
C100  C132  1.399988 A    
Zn6   O48   1.930632 S    
O60   H84   1.013682 S    
Zn13  O31   1.930632 S    
Zn14  O32   1.930632 S    
C67   C176  1.463961 S    
Zn15  O29   1.930925 S    
C56   C62   1.473716 S    
C6    C102  1.395541 A    
C19   C35   1.414929 A    
O47   C69   1.274428 A    
O24   C68   1.274041 A    
C225  O118  1.399393 S    
C231  O130  1.398903 S    
O35   C79   1.275200 A    
C203  O73   1.222701 D    
O37   C79   1.276579 A    
C17   C177  1.519459 S    
C140  C220  1.494451 S    
C76   C167  1.463018 S    
O38   C80   1.274963 A    
C27   C187  1.518189 S    
C160  C166  1.420376 A    
O74   H91   1.013934 S    
C123  H27   1.084096 S    
O94   H101  1.014030 S    
C192  H80   1.109614 S    
C183  H53   1.110237 S    
C141  C221  1.491337 S    
C152  C232  1.492921 S    
O98   H103  1.014029 S    
C127  C159  1.398002 A    
C19   C179  1.519237 S    
C151  C231  1.490954 S    
C29   C189  1.519385 S    
O70   H89   1.013918 S    
Zn1   O16   1.922058 S    
Zn10  O36   1.930852 S    
Zn2   O15   1.922058 S    
C206  O79   1.223010 D    
C159  C239  1.494030 S    
C26   C186  1.518892 S    
C127  H31   1.083410 S    
Zn4   O17   1.921863 S    
C108  H12   1.083899 S    
C25   C85   1.412319 A    
C226  O119  1.222608 D    
C125  H29   1.083997 S    
C179  H40   1.110232 S    
C209  O85   1.222509 D    
C31   C47   1.414032 A    
C39   C199  1.485463 S    
C41   C53   1.416399 A    
C237  O141  1.222251 D    
C119  C151  1.398513 A    
C219  O105  1.222822 D    
C102  H6    1.084333 S    
C218  O104  1.398944 S    
O10   C58   1.280833 A    
C117  C149  1.398621 A    
C182  H48   1.106164 S    
C9    C105  1.393795 A    
C7    C103  1.396455 A    
C227  O122  1.399173 S    
C188  H66   1.105948 S    
O62   H85   1.013928 S    
C106  H10   1.083862 S    
C16   C112  1.398990 A    
C121  C153  1.399238 A    
C34   C194  1.485122 S    
C236  O140  1.397978 S    
Zn12  O1    1.939278 S    
C199  O65   1.222855 D    
C152  C174  1.421603 A    
Zn13  O12   1.921940 S    
C111  C143  1.399597 A    
Zn2   O43   1.930892 S    
Zn14  O11   1.921940 S    
C204  O76   1.397986 S    
O8    C60   1.280369 A    
C109  C141  1.397945 A    
C30   C86   1.412157 A    
C195  O57   1.223012 D    
C122  C154  1.399772 A    
O92   H100  1.013366 S    
C157  C167  1.422365 A    
C22   C82   1.412380 A    
C158  C168  1.422319 A    
C156  C236  1.490627 S    
C11   C113  1.394823 A    
C208  O83   1.222709 D    
C103  C135  1.398827 A    
C215  O97   1.223006 D    
C118  H22   1.083645 S    
C229  O125  1.222949 D    
C101  C133  1.397831 A    
C160  C240  1.490839 S    
Zn5   O40   1.931015 S    
C122  H26   1.084497 S    
C105  C137  1.399115 A    
C186  H61   1.110248 S    
O82   H95   1.013545 S    
C110  H14   1.083987 S    
C138  C170  1.420739 A    
C189  H70   1.110224 S    
C12   C114  1.396180 A    
O43   C73   1.275718 A    
O78   H93   1.013635 S    
C24   C40   1.414609 A    
C155  C161  1.422566 A    
C184  H55   1.110147 S    
Zn5   O1    1.939005 S    
Zn3   O49   1.930876 S    
Zn9   O4    1.938769 S    
Zn10  O3    1.938768 S    
C74   C161  1.464440 S    
C8    C126  1.396221 A    
Zn5   O47   1.930632 S    
Zn12  O21   1.930595 S    
O36   C80   1.273351 A    
C26   C86   1.412492 A    
Zn7   O45   1.930925 S    
Zn13  O24   1.931015 S    
O26   C70   1.274264 A    
Zn14  O23   1.931015 S    
C142  C222  1.493035 S    
C154  C164  1.421481 A    
C36   C196  1.485516 S    
C177  H33   1.106155 S    
C182  H49   1.110258 S    
O30   C74   1.275033 A    
C212  O92   1.397460 S    
Zn3   O18   1.921863 S    
C104  H8    1.083837 S    
C228  O123  1.222967 D    
C143  C223  1.494324 S    
C193  O54   1.397653 S    
C135  C167  1.421509 A    
C234  O136  1.398019 S    
O34   C78   1.272765 A    
C41   C201  1.485426 S    
Zn7   O14   1.922154 S    
Zn3   O38   1.930595 S    
C87   C95   1.446614 S    
C232  O132  1.399083 S    
C83   C91   1.445381 S    
C78   C165  1.455537 S    
Zn9   O35   1.930852 S    
C181  H45   1.106093 S    
C230  O128  1.398750 S    
O124  H116  1.014018 S    
Zn3   O3    1.939282 S    
C188  H68   1.110061 S    
C15   C117  1.395602 A    
C240  O147  1.223556 D    
C14   C110  1.396639 A    
O25   C69   1.273863 A    
C35   C195  1.485466 S    
C238  O144  1.399271 S    
Zn11  O22   1.930595 S    
C3    C121  1.396644 A    
C129  C209  1.491679 S    
O39   C77   1.274860 A    
O28   C72   1.275187 A    
Zn15  O26   1.930783 S    
C233  O133  1.221780 D    
C68   C175  1.462882 S    
C28   C88   1.414635 A    
O140  H124  1.013564 S    
C18   C34   1.414679 A    
C143  C175  1.423527 A    
C205  O78   1.397831 S    
O29   C73   1.275281 A    
C131  C163  1.421915 A    
C132  C164  1.422198 A    
Zn1   O44   1.930892 S    
C148  C228  1.491590 S    
C86   C94   1.445317 S    
C37   C197  1.484891 S    
O14   C62   1.279678 A    
C137  C169  1.423635 A    
O144  H126  1.014063 S    
C138  C218  1.491484 S    
C129  C161  1.422457 A    
C178  H37   1.110234 S    
C30   C46   1.414897 A    
C71   C172  1.460529 S    
C72   C171  1.462175 S    
C233  O134  1.399547 S    
C210  O87   1.223518 D    
C207  O81   1.222718 D    
C65   C170  1.461845 S    
C5    C101  1.398891 A    
C21   C81   1.412131 A    
C224  O116  1.398756 S    
C8    C104  1.396059 A    
C202  O72   1.397934 S    
C133  C165  1.419734 A    
O108  H108  1.013961 S    
C45   C53   1.416208 A    
C23   C183  1.518906 S    
C98   C130  1.400206 A    
C220  O107  1.222788 D    
C177  H35   1.110225 S    
C21   C37   1.414452 A    
O126  H117  1.014011 S    
C144  C176  1.420288 A    
O31   C75   1.274748 A    
C113  H17   1.083954 S    
C110  C142  1.398931 A    
O33   C77   1.275253 A    
C201  O70   1.397963 S    
C217  O101  1.222544 D    
O138  H123  1.014053 S    
C25   C41   1.414627 A    
C200  O68   1.397963 S    
C183  H52   1.110249 S    
C130  C162  1.421942 A    
O13   C61   1.280105 A    
C211  O89   1.222701 D    
C199  O66   1.397932 S    
C222  O112  1.399092 S    
Zn2   O52   1.930852 S    
O122  H115  1.014029 S    
C32   C48   1.413743 A    
C196  O59   1.223008 D    
O72   H90   1.014025 S    
C198  O64   1.397996 S    
O52   C66   1.274666 A    
C213  O93   1.222450 D    
C181  H47   1.110142 S    
C114  C146  1.399030 A    
C4    C122  1.393603 A    
C235  O137  1.222649 D    
C52   C58   1.477649 S    
C116  H20   1.083930 S    
C149  C229  1.491686 S    
C4    C9    1.462909 S    
C10   C106  1.397832 A    
O68   H88   1.013905 S    
C69   C174  1.461097 S    
C180  H44   1.110270 S    
Zn11  O10   1.921863 S    
C75   C168  1.459433 S    
Zn8   O4    1.938703 S    
C141  C173  1.422485 A    
C221  O110  1.398975 S    
C3    C10   1.471978 S    
C8    C13   1.469934 S    
C131  C211  1.494012 S    
C135  C215  1.491491 S    
C95   C96   1.204122 T    
C216  O100  1.399430 S    
C31   C87   1.415903 A    
C125  C157  1.398991 A    
O64   H86   1.013907 S    
O49   C67   1.275133 A    
C29   C85   1.411957 A    
C194  O56   1.397650 S    
Zn15  O2    1.938703 S    
Zn16  O5    1.922154 S    
C32   C88   1.415987 A    
C146  C226  1.493887 S    
C217  O102  1.399081 S    
O110  H109  1.014010 S    
C197  O62   1.397928 S    
C231  O129  1.222784 D    
C145  C225  1.495825 S    
C214  O96   1.397896 S    
C130  C210  1.491110 S    
C37   C49   1.416472 A    
C39   C51   1.415971 A    
C192  H79   1.110522 S    
C187  H64   1.109864 S    
C139  C219  1.492484 S    
Zn7   O42   1.930783 S    
C191  H76   1.109600 S    
C203  O74   1.397877 S    
C70   C173  1.464482 S    
C43   C55   1.414152 A    
O106  H107  1.014031 S    
O136  H122  1.013336 S    
C124  H28   1.084443 S    
C11   C107  1.394743 A    
O56   H82   1.013225 S    
C12   C108  1.396204 A    
C193  O53   1.223015 D    
C25   C185  1.519007 S    
C26   C42   1.414630 A    
Zn9   O8    1.922058 S    
C123  C155  1.398914 A    
C20   C180  1.519350 S    
C15   C111  1.395560 A    
Zn10  O7    1.922058 S    
C14   C120  1.396607 A    
Zn11  O33   1.930876 S    
O102  H105  1.014024 S    
C47   C207  1.489463 S    
C43   C203  1.484702 S    
C179  H39   1.106183 S    
C23   C39   1.414648 A    
C28   C44   1.413756 A    
C91   C92   1.202353 T    
O27   C71   1.273967 A    
O134  H121  1.014006 S    
C7    C125  1.396406 A    
C115  C147  1.398937 A    
C5    C127  1.398956 A    
C49   C59   1.478342 S    
C22   C38   1.414640 A    
C157  C237  1.492803 S    
C51   C57   1.476611 S    
C108  C140  1.399403 A    
C42   C202  1.485453 S    
C48   C208  1.489684 S    
C226  O120  1.399117 S    
C73   C162  1.465552 S    
C237  O142  1.399128 S    
C204  O75   1.223083 D    
O41   C75   1.272924 A    
C46   C206  1.485458 S    
O42   C76   1.274092 A    
C82   C90   1.444996 S    
C183  H51   1.106125 S    
O45   C71   1.273862 A    
O46   C72   1.273606 A    
O116  H112  1.013971 S    
O80   H94   1.013555 S    
C44   C204  1.485982 S    
Zn1   O51   1.930852 S    
C223  O114  1.399278 S    
C16   C118  1.398975 A    
Zn9   O28   1.930892 S    
C33   C49   1.416350 A    
C126  H30   1.083783 S    
C18   C82   1.411990 A    
Zn10  O27   1.930892 S    
C1    C97   1.396058 A    
C42   C54   1.415939 A    
C21   C181  1.519079 S    
C186  H60   1.106122 S    
C31   C191  1.518247 S    
C154  C234  1.488982 S    
O40   C78   1.272827 A    
Zn8   O41   1.930783 S    
C102  C134  1.399904 A    
C121  H25   1.083636 S    
Zn16  O25   1.930783 S    
C103  H7    1.084056 S    
C189  H69   1.106148 S    
C118  C150  1.397177 A    
C101  H5    1.083419 S    
C13   C119  1.396718 A    
C147  C227  1.493034 S    
C229  O126  1.398963 S    
C184  H54   1.106122 S    
O15   C63   1.280070 A    
O88   H98   1.013730 S    
C136  C168  1.422984 A    
O16   C64   1.279705 A    
C105  H9    1.084215 S    
C79   C164  1.466250 S    
C81   C89   1.445026 S    
O132  H120  1.014044 S    
C36   C52   1.416171 A    
C40   C200  1.485425 S    
O54   H81   1.013529 S    
C84   C92   1.445422 S    
C190  H72   1.106182 S    
O84   H96   1.013452 S    
C227  O121  1.222268 D    
O118  H113  1.014068 S    
Zn6   O2    1.939001 S    
C212  O91   1.223626 D    
Zn1   O1    1.938769 S    
O142  H125  1.014116 S    
C119  H23   1.084053 S    
C185  H57   1.106117 S    
C206  O80   1.397744 S    
C234  O135  1.223522 D    
Zn12  O9    1.921863 S    
C117  H21   1.084148 S    
O48   C70   1.276005 A    
C236  O139  1.223552 D    
C179  H41   1.110240 S    
C97   H1    1.084087 S    
C106  C138  1.398644 A    
C147  C169  1.423972 A    
C107  C139  1.398810 A    
C134  C166  1.420177 A    
C209  O86   1.399000 S    
O146  H127  1.014031 S    
C111  H15   1.084008 S    
C112  H16   1.083658 S    
C232  O131  1.222741 D    
C109  H13   1.084127 S    
C132  C212  1.490377 S    
C128  C160  1.400249 A    
O18   C62   1.279099 A    
C180  H43   1.110229 S    
C48   C56   1.413962 A    
C188  H67   1.110225 S    
C24   C84   1.412332 A    
O86   H97   1.014053 S    
Zn5   O20   1.921940 S    
C144  C224  1.489586 S    
C38   C198  1.485816 S    
Zn6   O19   1.921940 S    
C210  O88   1.398292 S    
C238  O143  1.222463 D    
C34   C50   1.415579 A    
C213  O94   1.399196 S    
C19   C83   1.412190 A    
C55   C61   1.475083 S    
Zn8   O46   1.930925 S    
C20   C84   1.412014 A    
C6    C128  1.395752 A    
C187  H63   1.105833 S    
C50   C60   1.476570 S    
C53   C63   1.477756 S    
C54   C64   1.476570 S    
C208  O84   1.398105 S    
O5    C57   1.279832 A    
C112  C144  1.397117 A    
C4    C100  1.393596 A    
C5    C16   1.474920 S    
O7    C59   1.281025 A    
C6    C15   1.467718 S    
C215  O98   1.398947 S    
C7    C14   1.469683 S    
C32   C192  1.518132 S    
C142  C174  1.421517 A    
Zn13  O4    1.939005 S    
C137  C217  1.492520 S    
Zn14  O3    1.939001 S    
C186  H62   1.110238 S    
C182  H50   1.110235 S    
O32   C76   1.275281 A    
C220  O108  1.399309 S    
C178  H36   1.106135 S    
C155  C235  1.491896 S    
O17   C61   1.279428 A    
C126  C158  1.399244 A    
C189  H71   1.110265 S    
O120  H114  1.014058 S    
C45   C205  1.485440 S    
Zn15  O6    1.922154 S    
C223  O113  1.222281 D    
C159  C165  1.419778 A    
Zn16  O1    1.938703 S    
O66   H87   1.014007 S    
O90   H99   1.014035 S    
O128  H118  1.013977 S    
C184  H56   1.110245 S    
C224  O115  1.223148 D    
C148  C170  1.420827 A    
C202  O71   1.222856 D    
C22   C182  1.518927 S    
C133  C213  1.493863 S    
C136  C216  1.495612 S    
C239  O146  1.399198 S    
C190  H74   1.110249 S    
C29   C45   1.415045 A    
C33   C193  1.485070 S    
C150  C230  1.489585 S    
C17   C33   1.414933 A    
C180  H42   1.106146 S    
C200  O67   1.223011 D    
C230  O127  1.223132 D    
C185  H59   1.110249 S    
O12   C60   1.279814 A    
C99   H3    1.083735 S    
C1    C12   1.469217 S    
Zn7   O3    1.938703 S    
Zn11  O2    1.939282 S    
C35   C51   1.415527 A    
C2    C11   1.465912 S    
C151  C173  1.421983 A    
C99   C131  1.398946 A    
C219  O106  1.399030 S    
C198  O63   1.223120 D    
C30   C190  1.519254 S    
C153  C233  1.496549 S    
C139  C171  1.422344 A    
C140  C172  1.422271 A    
O104  H106  1.014011 S    
C181  H46   1.110254 S    
C27   C43   1.413471 A    
C201  O69   1.223024 D    
C23   C83   1.412483 A    
O58   H83   1.013588 S    
C153  C163  1.423580 A    
C218  O103  1.222931 D    
C205  O77   1.223009 D    
O23   C67   1.275047 A    
C28   C188  1.518118 S    
C240  O148  1.398222 S    
C18   C178  1.519325 S    
C27   C87   1.414436 A    
C80   C163  1.460204 S    
O50   C68   1.275582 A    
C221  O109  1.222576 D    
C17   C81   1.411806 A    
O51   C65   1.273745 A    
O100  H104  1.014073 S    
C46   C54   1.415537 A    
C9    C115  1.393637 A    
Zn4   O50   1.930876 S    
C88   C96   1.446594 S    
C195  O58   1.397753 S    
C216  O99   1.222035 D    
C114  H18   1.083996 S    
C194  O55   1.222996 D    
C239  O145  1.222577 D    
O76   H92   1.013907 S    
C10   C116  1.397576 A    
O44   C74   1.274946 A    
