data_mof_unit_34303.cif
_audit_creation_date              2012-12-10T18:09:48-0500
_audit_creation_method            fapswitch 2.2
_symmetry_space_group_name_H-M    P1
_symmetry_Int_Tables_number       1
_space_group_crystal_system       triclinic
_cell_length_a                    10.661976
_cell_length_b                    12.579632
_cell_length_c                    13.178831
_cell_angle_alpha                 82.482233
_cell_angle_beta                  89.185946
_cell_angle_gamma                 102.455777
_cell_volume                      1709.50964518

loop_
_atom_site_label
_atom_site_type_symbol
_atom_type_description
_atom_site_fract_x
_atom_site_fract_y
_atom_site_fract_z
_atom_type_partial_charge
C1    C     C_R   0.480786 0.438760 0.691366 0.871179
C2    C     C_3   0.120065 0.498394 0.501032 0.093081
C3    C     C_3   0.067511 0.475811 0.394915 -0.378858
C4    C     C_3   0.099378 0.613683 0.518702 -0.413797
C5    C     C_R   0.434581 0.711186 0.064538 -0.189439
C6    C     C_R   0.512283 0.598354 0.200405 -0.053264
C7    C     C_R   0.493295 0.299180 0.837302 -0.186322
C8    C     C_R   0.509264 0.271737 0.940809 -0.148799
C9    C     C_R   0.503799 0.347387 0.007783 -0.175270
C10   C     C_R   0.473921 0.450304 0.972797 0.037341
C11   C     C_R   0.434868 0.469287 0.871158 0.070287
C12   C     C_R   0.741847 0.500974 0.498635 0.833496
C13   C     C_R   0.479118 0.533967 0.035918 0.074080
C14   C     C_R   0.433627 0.629749 0.001044 0.127656
C15   C     C_R   0.379143 0.639709 0.906412 -0.268812
C16   C     C_R   0.372325 0.557907 0.843847 0.195416
C17   C     C_R   0.527011 0.524668 0.133696 -0.244853
C18   C     C_R   0.471435 0.694460 0.165076 -0.207451
C19   C     C_R   0.461964 0.399638 0.801118 -0.093328
C20   C     C_R   0.323370 0.086997 0.348792 -0.299944
C21   C     C_R   0.650470 0.800064 0.629178 0.013020
C22   C     C_R   0.680651 0.904968 0.657154 -0.239000
C23   C     C_R   0.515685 0.561309 0.308894 0.854909
C24   C     C_R   0.623559 0.986318 0.608418 -0.181688
C25   C     C_R   0.535603 0.962822 0.530796 0.015853
C26   C     C_R   0.508504 0.854580 0.504946 0.236905
C27   C     C_R   0.473598 0.041794 0.478022 -0.014273
C28   C     C_R   0.385812 0.010809 0.401329 0.196847
C29   C     C_R   0.361505 0.904253 0.377350 -0.303279
C30   C     C_R   0.422452 0.827736 0.428111 -0.228152
C31   C     C_R   0.495007 0.151064 0.497661 -0.052348
C32   C     C_R   0.348753 0.193524 0.372030 0.037219
C33   C     C_R   0.257668 0.499334 0.500733 0.811403
C34   C     C_3   0.899272 0.410743 0.584673 -0.452767
C35   C     C_3   0.043619 0.411110 0.588972 -0.171264
C36   C     C_3   0.923481 0.476197 0.394286 -0.388265
C37   C     C_3   0.957067 0.614333 0.519871 -0.391476
C38   C     C_3   0.877972 0.501014 0.499230 0.161366
H1    H     H_    0.842282 0.329148 0.570570 0.194647
H2    H     H_    0.150504 0.678017 0.456852 0.187923
H3    H     H_    0.906045 0.539295 0.331808 0.151255
H4    H     H_    0.120195 0.540354 0.333930 0.150639
H5    H     H_    0.460594 0.752835 0.216273 0.151786
H6    H     H_    0.335133 0.708784 0.883296 0.154861
H7    H     H_    0.399208 0.784236 0.038533 0.134358
H8    H     H_    0.569983 0.457281 0.162523 0.144847
H9    H     H_    0.510962 0.243798 0.785020 0.150804
H10   H     H_    0.520631 0.321654 0.086688 0.132743
H11   H     H_    0.532780 0.193803 0.968536 0.141738
H12   H     H_    0.863147 0.425984 0.660022 0.143787
H13   H     H_    0.301834 0.253913 0.332139 0.139535
H14   H     H_    0.295232 0.879819 0.318656 0.149059
H15   H     H_    0.256117 0.064439 0.290268 0.146869
H16   H     H_    0.560100 0.182531 0.553813 0.124563
H17   H     H_    0.694183 0.736392 0.666970 0.137234
H18   H     H_    0.649992 0.066171 0.633159 0.136193
H19   H     H_    0.747900 0.923179 0.716579 0.153303
H20   H     H_    0.400200 0.748060 0.405110 0.213473
H21   H     H_    0.074333 0.438107 0.663140 0.121461
H22   H     H_    0.868663 0.394787 0.377991 0.197544
H23   H     H_    0.082712 0.395964 0.375779 0.213504
H24   H     H_    0.940424 0.680699 0.460299 0.185046
H25   H     H_    0.927246 0.633081 0.595747 0.177767
H26   H     H_    0.138259 0.636027 0.592704 0.186954
N1    N     N_R   0.433240 0.222190 0.444680 -0.104702
N2    N     N_R   0.566070 0.776970 0.554790 -0.132816
O1    O     O_R   0.468120 0.366740 0.627160 -0.603229
O2    O     O_R   0.510770 0.544830 0.662520 -0.609797
O3    O     O_R   0.663880 0.410950 0.482330 -0.629173
O4    O     O_R   0.706530 0.589040 0.517700 -0.627814
O5    O     O_R   0.489230 0.455170 0.337480 -0.618590
O6    O     O_R   0.531880 0.633260 0.372840 -0.633643
O7    O     O_R   0.293470 0.410960 0.482300 -0.597300
O8    O     O_R   0.336120 0.589050 0.517670 -0.651037
Zn1   Zn    Zn3+2 0.471520 0.381090 0.476390 0.952210
Zn2   Zn    Zn3+2 0.528480 0.618910 0.523610 0.915990
C39   C     C_3   0.281980 0.561800 0.757831 -0.860516
H27   H     H_    0.320094 0.635225 0.700820 0.263418
H28   H     H_    0.266195 0.486243 0.721416 0.231347
H29   H     H_    0.186469 0.568216 0.788058 0.214345
C40   C     C_2   0.066820 0.296050 0.591274 0.934013
O9    O     O_2   0.030607 0.241779 0.522447 -0.639742
O10   O     O_R   0.130311 0.252190 0.673195 -0.815374
H30   H     H_    0.141723 0.175471 0.666281 0.343108

loop_
_geom_bond_atom_site_label_1
_geom_bond_atom_site_label_2
_ccdc_geom_bond_type
C2    C35   S    
C12   O3    A    
C3    H4    S    
C21   N2    A    
O6    Zn2   S    
C22   H19   S    
C40   O9    D    
C35   C40   S    
C7    C8    A    
C39   H27   S    
C11   C19   A    
C29   C30   A    
O8    Zn2   S    
C28   C29   A    
C15   H6    S    
C16   C39   S    
C15   C16   A    
C1    O2    A    
C35   H21   S    
C34   C35   S    
C37   H25   S    
C4    H2    S    
C8    C9    A    
C9    C10   A    
C39   H28   S    
C13   C14   A    
O7    Zn1   S    
C36   H3    S    
C40   O10   S    
C37   H24   S    
C3    H23   S    
C6    C18   A    
C34   H12   S    
C1    C19   S    
C27   C31   A    
C34   H1    S    
C26   N2    A    
C23   O5    A    
C17   H8    S    
C21   H17   S    
C5    C18   A    
C20   C28   A    
C25   C26   A    
C5    H7    S    
C7    H9    S    
C2    C4    S    
C32   H13   S    
C37   C38   S    
C11   C16   A    
O10   H30   S    
N2    Zn2   S    
O2    Zn2   S    
C24   C25   A    
C5    C14   A    
C2    C33   S    
C33   O7    A    
C26   C30   A    
C7    C19   A    
O4    Zn2   S    
C22   C24   A    
C24   H18   S    
C20   C32   A    
C39   H29   S    
C31   N1    A    
C6    C17   A    
C12   O4    A    
C34   C38   S    
C23   O6    A    
C20   H15   S    
C36   H22   S    
C10   C13   A    
C25   C27   A    
C4    H26   S    
N1    Zn1   S    
C13   C17   A    
C36   C38   S    
C2    C3    S    
C18   H5    S    
O5    Zn1   S    
C3    C36   S    
C6    C23   S    
C30   H20   S    
C1    O1    A    
O3    Zn1   S    
C31   H16   S    
C12   C38   S    
C10   C11   A    
C33   O8    A    
O1    Zn1   S    
C4    C37   S    
C9    H10   S    
C27   C28   A    
C14   C15   A    
C21   C22   A    
C8    H11   S    
C32   N1    A    
C29   H14   S    
