data_mof_unit_39463.cif
_audit_creation_date              2013-03-05T15:42:09-0500
_audit_creation_method            fapswitch 2.2
_symmetry_space_group_name_H-M    P1
_symmetry_Int_Tables_number       1
_space_group_crystal_system       triclinic
_cell_length_a                    22.038949
_cell_length_b                    7.205786
_cell_length_c                    15.081183
_cell_angle_alpha                 89.856381
_cell_angle_beta                  108.46789
_cell_angle_gamma                 89.533734
_cell_volume                      2271.5639823

loop_
_atom_site_label
_atom_site_type_symbol
_atom_site_description
_atom_site_fract_x
_atom_site_fract_y
_atom_site_fract_z
_atom_type_partial_charge
O1    O     O_R   0.584770 0.505770 0.002090 -0.529022
O2    O     O_R   0.415230 0.005770 0.997910 -0.535710
O3    O     O_R   0.467060 0.173340 0.861950 -0.534816
O4    O     O_R   0.532940 0.673340 0.138050 -0.550709
C1    C     C_R   0.455898 0.345857 0.825917 0.852140
C2    C     C_R   0.545614 0.844302 0.173611 0.881890
O5    O     O_R   0.587510 0.175890 0.993210 -0.533638
O6    O     O_R   0.412490 0.675890 0.006790 -0.533394
O7    O     O_R   0.536540 0.008150 0.130100 -0.560992
O8    O     O_R   0.463460 0.508150 0.869900 -0.581040
C3    C     C_R   0.612739 0.345695 0.995541 0.823264
C4    C     C_R   0.387018 0.846848 0.002756 0.874184
O9    O     O_3   0.483140 0.340040 0.044760 -0.278187
O10   O     O_3   0.516860 0.840040 0.955240 -0.282907
V1    V     V_3+5 0.503130 0.064190 0.991700 1.233710
V2    V     V_3+5 0.496870 0.564190 0.008300 1.222079
C5    C     C_2   0.225638 0.796463 0.056946 -0.179095
C6    C     C_2   0.781395 0.246821 0.968147 -0.128476
C7    C     C_2   0.176449 0.871253 0.987929 -0.238229
C8    C     C_2   0.822990 0.380205 0.011744 -0.248439
H1    H     H_    0.216733 0.756743 0.121206 0.095568
H2    H     H_    0.797609 0.141788 0.929024 0.109307
H3    H     H_    0.180968 0.904882 0.920251 0.080022
H4    H     H_    0.811133 0.481433 0.056632 0.093887
C9    C     C_2   0.291571 0.756087 0.049476 0.380877
C10   C     C_2   0.714661 0.225022 0.972909 0.351036
C11   C     C_2   0.319818 0.873883 0.003780 -0.193472
C12   C     C_2   0.677954 0.369279 0.985751 -0.226648
C13   C     C_R   0.926787 0.875962 0.723683 -0.123134
C14   C     C_R   0.075477 0.373084 0.275873 -0.116314
C15   C     C_R   0.571102 0.856776 0.275500 -0.229773
C16   C     C_R   0.432035 0.364453 0.723438 -0.247900
C17   C     C_R   0.927941 0.696058 0.587777 0.417486
C18   C     C_R   0.077459 0.205248 0.417660 0.419203
C19   C     C_R   0.958982 0.766605 0.677120 -0.104775
C20   C     C_R   0.043918 0.275961 0.327710 -0.151890
C21   C     C_R   0.862600 0.921113 0.680567 -0.097896
C22   C     C_R   0.140157 0.412419 0.314801 -0.106532
C23   C     C_R   0.827525 0.845020 0.592735 0.006226
C24   C     C_R   0.176760 0.337605 0.402638 -0.009082
C25   C     C_R   0.860981 0.730901 0.545111 -0.103025
C26   C     C_R   0.145629 0.217558 0.449802 -0.090424
C27   C     C_R   0.759761 0.873513 0.552730 -0.031436
C28   C     C_R   0.243638 0.373643 0.443456 -0.025888
C29   C     C_R   0.727303 0.796390 0.464795 -0.035232
C30   C     C_R   0.278210 0.289749 0.529687 -0.032635
C31   C     C_R   0.758510 0.657893 0.428656 0.438509
C32   C     C_R   0.250164 0.138097 0.561725 0.445141
C33   C     C_R   0.825417 0.642165 0.460506 -0.108273
C34   C     C_R   0.183944 0.106873 0.525356 -0.093359
C35   C     C_R   0.722329 0.967442 0.599441 -0.078396
C36   C     C_R   0.277447 0.488769 0.400427 -0.090936
C37   C     C_R   0.655316 0.980776 0.562151 0.007499
C38   C     C_R   0.343179 0.519318 0.439316 -0.028979
C39   C     C_R   0.623880 0.920665 0.469066 -0.108862
C40   C     C_R   0.376413 0.455839 0.531568 -0.134809
C41   C     C_R   0.662691 0.849148 0.417364 -0.067327
C42   C     C_R   0.341439 0.351069 0.579029 -0.068652
C43   C     C_R   0.556129 0.934709 0.424733 0.373335
C44   C     C_R   0.441265 0.504664 0.580350 0.379833
C45   C     C_R   0.530275 0.898651 0.327476 -0.175285
C46   C     C_R   0.468559 0.458911 0.676463 -0.169623
C47   C     C_R   0.636900 0.839980 0.318678 0.406806
C48   C     C_R   0.367645 0.326650 0.677255 0.426934
H5    H     H_    0.007638 0.723451 0.714241 0.074371
H6    H     H_    0.993480 0.250276 0.294845 0.052751
H7    H     H_    0.840729 0.005585 0.720983 0.060996
H8    H     H_    0.161095 0.488781 0.270580 0.055825
H9    H     H_    0.743310 0.022501 0.668539 0.099089
H10   H     H_    0.254424 0.552786 0.333664 0.097210
O11   O     O_R   0.036450 0.233070 0.130130 -0.559046
O12   O     O_R   0.963550 0.733070 0.869870 -0.557043
O13   O     O_R   0.912470 0.560570 0.006790 -0.557433
O14   O     O_R   0.087530 0.060570 0.993210 -0.558215
C49   C     C_R   0.887634 0.391512 0.003591 0.840424
C50   C     C_R   0.112423 0.890086 0.997227 0.845336
O15   O     O_R   0.032920 0.562940 0.138050 -0.563343
O16   O     O_R   0.967080 0.062940 0.861950 -0.556789
O17   O     O_R   0.084790 0.730500 0.002090 -0.557128
O18   O     O_R   0.915210 0.230500 0.997910 -0.555880
C51   C     C_R   0.045142 0.392983 0.174606 0.820499
C52   C     C_R   0.954704 0.894023 0.825383 0.820993
O19   O     O_3   0.016820 0.396170 0.955260 -0.283053
O20   O     O_3   0.983180 0.896170 0.044740 -0.286378
V3    V     V_3+5 0.996880 0.672090 0.008300 1.145031
V4    V     V_3+5 0.003120 0.172090 0.991700 1.148506
O21   O     O_3   0.723376 0.533829 0.362360 -0.569256
C53   C     C_3   0.697758 0.398286 0.407902 0.254733
H11   H     H_    0.666720 0.460652 0.445734 -0.010786
H12   H     H_    0.736501 0.313150 0.456767 0.040979
H13   H     H_    0.667208 0.304217 0.354531 0.040210
O22   O     O_3   0.288049 0.011956 0.625550 -0.567628
C54   C     C_3   0.315904 0.886582 0.577735 0.230069
H14   H     H_    0.348395 0.958130 0.545590 0.034493
H15   H     H_    0.278626 0.808845 0.523725 -0.000331
H16   H     H_    0.345097 0.784104 0.628915 0.071113
O23   O     O_3   0.516400 0.940094 0.480061 -0.638204
C55   C     C_3   0.473156 0.091368 0.458509 0.228090
H17   H     H_    0.424508 0.041977 0.419838 0.130781
H18   H     H_    0.487215 0.205055 0.419121 0.014599
H19   H     H_    0.469721 0.147763 0.524955 0.016385
O24   O     O_3   0.474768 0.617837 0.537899 -0.609823
C56   C     C_3   0.529898 0.526908 0.529035 0.289129
H20   H     H_    0.540365 0.388439 0.562956 -0.008679
H21   H     H_    0.572331 0.614567 0.560567 0.120331
H22   H     H_    0.525181 0.512246 0.454018 -0.009480
O25   O     O_3   0.329295 0.609481 0.099216 -0.625089
C57   C     C_3   0.292892 0.464441 0.119070 0.231455
H23   H     H_    0.250656 0.430431 0.057875 0.019678
H24   H     H_    0.278091 0.498877 0.180952 0.033941
H25   H     H_    0.323551 0.338167 0.137089 0.091831
O26   O     O_3   0.690495 0.046997 0.963783 -0.593299
C58   C     C_3   0.662790 0.008865 0.867741 0.299135
H26   H     H_    0.700037 0.996024 0.832647 0.007691
H27   H     H_    0.626285 0.115403 0.831913 0.020764
H28   H     H_    0.637689 0.874382 0.860352 0.104356
C59   C     C_2   0.289117 0.054339 0.964707 0.480658
H29   H     H_    0.259992 0.130137 0.998435 -0.029113
O27   O     O_2   0.296418 0.119573 0.894062 -0.514186
C60   C     C_2   0.698400 0.563679 0.978743 0.477718
H30   H     H_    0.719257 0.601772 0.925058 -0.020342
O28   O     O_2   0.693960 0.680653 0.034865 -0.490506
C61   C     C_2   0.856330 0.539692 0.400568 0.617358
H31   H     H_    0.898077 0.596792 0.387414 -0.015646
O29   O     O_2   0.835135 0.392534 0.364250 -0.584754
C62   C     C_2   0.157792 0.940843 0.558941 0.615712
H32   H     H_    0.121871 0.857303 0.509854 -0.035305
O30   O     O_2   0.176417 0.895244 0.641290 -0.549951
O31   O     O_3   0.675669 0.817749 0.262648 -0.595820
C63   C     C_3   0.702663 0.990299 0.252834 0.249203
H33   H     H_    0.735527 0.039416 0.320825 0.017399
H34   H     H_    0.665035 0.096637 0.221348 0.032917
H35   H     H_    0.731330 0.972785 0.204745 0.124173
O32   O     O_3   0.328538 0.289623 0.731266 -0.571097
C64   C     C_3   0.297519 0.456085 0.742747 0.284669
H36   H     H_    0.265207 0.509995 0.674879 0.011228
H37   H     H_    0.332584 0.564297 0.777924 0.021081
H38   H     H_    0.267471 0.427652 0.787800 0.115750
C65   C     C_2   0.460673 0.899281 0.277582 0.522706
H39   H     H_    0.436981 0.769504 0.252607 0.044453
O33   O     O_2   0.431151 0.045206 0.255432 -0.594764
C66   C     C_2   0.533346 0.525450 0.731495 0.620198
H40   H     H_    0.564061 0.440153 0.787471 -0.101409
O34   O     O_2   0.551649 0.679179 0.717942 -0.594724
C67   C     C_2   0.621866 0.071861 0.621817 0.415048
H41   H     H_    0.579366 0.012935 0.631285 0.115037
O35   O     O_2   0.643603 0.212587 0.664767 -0.641107
C68   C     C_2   0.373506 0.623314 0.380189 0.541406
H42   H     H_    0.418905 0.578126 0.374262 0.015662
O36   O     O_2   0.346314 0.757122 0.334315 -0.603478
O37   O     O_3   0.959485 0.564617 0.550641 -0.672098
C69   C     C_3   0.019199 0.630468 0.548293 0.131040
H43   H     H_    0.057283 0.597406 0.614940 0.091511
H44   H     H_    0.018299 0.781537 0.532822 0.057039
H45   H     H_    0.031828 0.557863 0.491721 0.069359
O38   O     O_3   0.047334 0.122942 0.476725 -0.676877
C70   C     C_3   0.979945 0.136708 0.445577 0.183795
H46   H     H_    0.959196 0.043849 0.384927 0.030321
H47   H     H_    0.963419 0.282457 0.429267 0.096105
H48   H     H_    0.962042 0.089470 0.502730 0.081991

loop_
_geom_bond_atom_site_label_1
_geom_bond_atom_site_label_2
_geom_bond_distance
_ccdc_geom_bond_type
C64   H38   1.108483 S    
O21   C53   1.412715 S    
C54   H14   1.112766 S    
C39   C43   1.432316 A    
C15   C45   1.399523 A    
C63   H34   1.112963 S    
O1    C3    1.322029 A    
C50   O17   1.318294 A    
O2    C4    1.320329 A    
C2    O7    1.331791 A    
O12   V3    2.027236 S    
C64   H36   1.112370 S    
C31   C33   1.402200 A    
O5    C3    1.344045 A    
C29   C41   1.424228 A    
C70   H46   1.111987 S    
O14   C50   1.334692 A    
C7    C50   1.466800 S    
C68   O36   1.221481 D    
C58   H26   1.112103 S    
C59   O27   1.220359 D    
C67   H41   1.081151 S    
C20   H6    1.081820 S    
C61   O29   1.221278 D    
C19   H5    1.083218 S    
C1    O8    1.331316 A    
C33   C61   1.487221 S    
O23   C55   1.409696 S    
C57   H23   1.113030 S    
C14   C22   1.390749 A    
C44   C46   1.419005 A    
C29   C31   1.412470 A    
O18   V4    2.010347 S    
C17   C19   1.402501 A    
C8    H4    1.081703 S    
C28   C30   1.413509 A    
C18   C26   1.428648 A    
C22   H8    1.075982 S    
C6    C10   1.504506 S    
O25   C57   1.410640 S    
C69   H45   1.108782 S    
C34   C62   1.487673 S    
C40   C42   1.425726 A    
C49   O18   1.320914 A    
C18   C20   1.414703 A    
C58   H28   1.108030 S    
O16   V4    2.027728 S    
C32   C34   1.407200 A    
C2    C15   1.462686 S    
O37   C69   1.413488 S    
O15   V3    2.018891 S    
C70   H47   1.109899 S    
C30   C42   1.430231 A    
O13   C49   1.334296 A    
C46   C66   1.489887 S    
C44   O24   1.388085 S    
C25   C33   1.424723 A    
O26   C58   1.410915 S    
C67   O35   1.221457 D    
C36   C38   1.399505 A    
C41   C47   1.416918 A    
C48   O32   1.387420 S    
C37   C39   1.424809 A    
C42   C48   1.419133 A    
C38   C40   1.423756 A    
C43   C45   1.420697 A    
C4    C11   1.497149 S    
C15   C47   1.392842 A    
C61   H31   1.084681 S    
O20   V3    1.761246 S    
C16   C48   1.397917 A    
C23   C25   1.436780 A    
C17   O37   1.390184 S    
C45   C65   1.479139 S    
C23   C27   1.435300 A    
O5    V1    2.025897 S    
C5    H1    1.086116 S    
C40   C44   1.432174 A    
C8    C49   1.471152 S    
C35   C37   1.406385 A    
C31   O21   1.386966 S    
O4    V2    2.027789 S    
C7    H3    1.083481 S    
O11   V4    2.032091 S    
O16   C52   1.331737 A    
C53   H13   1.107918 S    
O15   C51   1.331721 A    
O6    C4    1.342799 A    
C37   C67   1.483022 S    
C56   H21   1.108629 S    
O1    V2    2.010145 S    
O14   V4    2.013890 S    
O2    V1    2.016642 S    
C27   C29   1.410098 A    
O13   V3    2.025983 S    
C26   C34   1.422110 A    
O4    C2    1.340617 A    
C53   H12   1.113128 S    
C54   H16   1.108948 S    
C55   H18   1.112776 S    
C39   C41   1.422169 A    
C12   C60   1.488678 S    
C43   O23   1.388121 S    
C66   O34   1.220640 D    
C63   H35   1.109278 S    
C9    C11   1.363964 D    
C10   O26   1.383397 S    
O17   V3    2.016839 S    
O3    V1    2.018945 S    
C60   H30   1.085759 S    
C60   O28   1.221117 D    
C38   C68   1.478454 S    
O31   C63   1.410205 S    
C11   C59   1.491683 S    
C64   H37   1.113022 S    
O38   C70   1.411244 S    
C62   O30   1.221314 D    
C6    H2    1.086292 S    
C69   H44   1.111423 S    
O3    C1    1.344664 A    
C65   H39   1.083570 S    
O32   C64   1.413796 S    
C18   O38   1.401589 S    
C70   H48   1.109355 S    
C55   H19   1.106628 S    
C13   C19   1.388114 A    
C10   C12   1.363484 D    
C57   H25   1.109393 S    
C14   C20   1.390814 A    
C5    C9    1.518490 S    
C1    C16   1.471720 S    
C14   C51   1.466435 S    
C63   H33   1.112087 S    
O7    V1    2.019664 S    
C17   C25   1.430528 A    
C13   C52   1.467077 S    
C21   C23   1.419370 A    
O8    V2    2.024146 S    
C59   H29   1.082415 S    
C22   C24   1.417216 A    
C65   O33   1.220656 D    
C28   C36   1.406478 A    
C54   H15   1.112667 S    
C3    C12   1.501574 S    
C27   C35   1.412948 A    
C62   H32   1.084356 S    
C21   H7    1.075901 S    
C24   C26   1.428521 A    
O22   C54   1.409864 S    
C5    C7    1.349762 D    
C57   H24   1.109794 S    
C56   H22   1.108224 S    
C6    C8    1.353550 D    
C68   H42   1.080102 S    
C47   O31   1.387670 S    
O24   C56   1.419078 S    
C36   H10   1.074335 S    
C16   C46   1.407446 A    
C30   C32   1.416751 A    
C24   C28   1.432141 A    
O19   V4    1.763224 S    
C53   H11   1.113070 S    
O6    V2    2.013795 S    
C55   H17   1.107867 S    
C32   O22   1.387052 S    
O9    V2    1.763979 S    
C13   C21   1.392304 A    
C56   H20   1.108789 S    
C66   H40   1.085003 S    
O10   V1    1.761992 S    
C69   H43   1.110208 S    
C35   H9    1.075604 S    
O11   C51   1.319263 A    
C9    O25   1.398767 S    
O12   C52   1.320155 A    
C58   H27   1.114017 S    
