data_mof_unit_14211.cif
_audit_creation_date              2012-12-11T14:17:36-0500
_audit_creation_method            fapswitch 2.2
_symmetry_space_group_name_H-M    P1
_symmetry_Int_Tables_number       1
_space_group_crystal_system       triclinic
_cell_length_a                    6.940735
_cell_length_b                    13.626343
_cell_length_c                    20.443169
_cell_angle_alpha                 102.123515
_cell_angle_beta                  89.882795
_cell_angle_gamma                 90.501199
_cell_volume                      1890.25636993

loop_
_atom_site_label
_atom_site_type_symbol
_atom_type_description
_atom_site_fract_x
_atom_site_fract_y
_atom_site_fract_z
_atom_type_partial_charge
O1    O     O_R   0.506860 0.599390 0.449240 -0.540880
O2    O     O_R   0.180220 0.594600 0.586780 -0.504184
O3    O     O_R   0.004500 0.400610 0.550760 -0.543197
C1    C     C_R   0.348183 0.613670 0.614278 0.741476
O4    O     O_R   0.177490 0.611290 0.451970 -0.536515
O5    O     O_R   0.001750 0.417420 0.414990 -0.506622
C2    C     C_R   0.346828 0.638359 0.435659 0.702628
O6    O     O_R   0.509610 0.582580 0.585010 -0.548653
O7    O     O_3   0.337420 0.436370 0.488020 -0.371940
V1    V     V_3+5 0.064680 0.511800 0.502220 1.546940
O8    O     O_R   0.671710 0.405400 0.413220 -0.549932
C3    C     C_R   0.840679 0.384248 0.386314 0.764713
O9    O     O_R   0.674440 0.388710 0.548030 -0.548175
C4    C     C_R   0.842827 0.362287 0.565021 0.687916
V2    V     V_3+5 0.564010 0.488200 0.497780 1.474454
O10   O     O_3   0.841140 0.563630 0.511980 -0.364210
C5    C     C_R   0.873633 0.110636 0.611072 -0.082012
H1    H     H_    0.852539 0.161971 0.519145 0.111283
H2    H     H_    0.873070 0.033537 0.584058 0.177575
C6    C     C_R   0.851414 0.284768 0.604699 -0.033411
C7    C     C_R   0.843817 0.314380 0.927633 -0.157399
C8    C     C_R   0.834604 0.389969 0.891667 -0.129255
C9    C     C_R   0.842836 0.366955 0.822022 -0.156029
C10   C     C_R   0.861498 0.266368 0.786069 0.082342
C11   C     C_R   0.872143 0.189427 0.823408 0.071087
C12   C     C_R   0.867028 0.239788 0.714569 0.050242
C13   C     C_R   0.884022 0.136692 0.681676 0.107948
C14   C     C_R   0.905332 0.062183 0.720126 -0.037802
C15   C     C_R   0.894007 0.089150 0.789703 -0.277845
C16   C     C_R   0.854589 0.312571 0.674410 -0.204651
C17   C     C_R   0.858328 0.183956 0.573219 -0.188398
C18   C     C_R   0.862440 0.214435 0.894325 -0.065043
H3    H     H_    0.847209 0.391824 0.695390 0.100533
H4    H     H_    0.836442 0.333857 0.981774 0.121746
H5    H     H_    0.833509 0.430046 0.798209 0.108179
H6    H     H_    0.820234 0.467274 0.917980 0.117243
H7    H     H_    0.907394 0.030326 0.817764 0.103915
C19   C     C_2   0.011164 0.293518 0.282713 0.385805
C20   C     C_2   0.847874 0.314570 0.319699 -0.313352
H8    H     H_    0.712336 0.279164 0.301664 0.084594
C21   C     C_2   0.014236 0.220910 0.216156 -0.207030
C22   C     C_2   0.857883 0.185303 0.179531 -0.324186
H9    H     H_    0.155074 0.197566 0.195688 0.149852
H10   H     H_    0.714343 0.207755 0.197102 0.129309
C23   C     C_2   0.220612 0.766238 0.792006 -0.278575
C24   C     C_2   0.362530 0.832729 0.814632 0.194804
H11   H     H_    0.106378 0.755713 0.826385 0.087974
C25   C     C_2   0.201401 0.709157 0.721079 0.421855
C26   C     C_2   0.358041 0.674588 0.683529 -0.250585
H12   H     H_    0.500830 0.686116 0.705395 0.137621
C27   C     C_R   0.387810 0.892292 0.390569 -0.130501
H13   H     H_    0.407245 0.017381 0.309858 0.117904
H14   H     H_    0.402884 0.970612 0.415290 0.137739
C28   C     C_R   0.357820 0.718251 0.397906 -0.143260
C29   C     C_R   0.333846 0.688288 0.074701 -0.297668
C30   C     C_R   0.319608 0.612332 0.110483 0.059410
C31   C     C_R   0.328029 0.636799 0.180414 -0.127563
C32   C     C_R   0.350764 0.737515 0.216078 -0.003590
C33   C     C_R   0.364255 0.815349 0.178818 0.033846
C34   C     C_R   0.359558 0.762910 0.287619 0.076577
C35   C     C_R   0.379674 0.864884 0.320473 0.023497
C36   C     C_R   0.391872 0.939757 0.283673 -0.259284
C37   C     C_R   0.384987 0.917072 0.213695 0.315380
C38   C     C_R   0.349445 0.690529 0.328067 -0.237755
C39   C     C_R   0.376922 0.820345 0.429844 0.356813
C40   C     C_R   0.355807 0.788437 0.107554 -0.075625
H15   H     H_    0.335795 0.611352 0.307329 0.126036
H16   H     H_    0.327060 0.669437 0.020469 0.091187
H17   H     H_    0.315398 0.575107 0.205411 0.152745
O11   O     O_R   0.203230 0.917310 0.915020 -0.551224
O12   O     O_R   0.535500 0.888690 0.048040 -0.536747
O13   O     O_R   0.711080 0.082610 0.085000 -0.530412
C41   C     C_R   0.366304 0.862613 0.065238 0.811066
O14   O     O_R   0.532630 0.905370 0.913230 -0.554025
O15   O     O_R   0.708190 0.099410 0.949230 -0.542208
C42   C     C_R   0.364913 0.887600 0.885586 0.632555
O16   O     O_R   0.206120 0.900510 0.050790 -0.537381
O17   O     O_3   0.375360 0.063570 0.011990 -0.359020
V3    V     V_3+5 0.648170 0.988200 0.997780 1.454880
O18   O     O_R   0.038240 0.111390 0.951940 -0.540290
C43   C     C_R   0.869956 0.137504 0.934787 0.685061
O19   O     O_R   0.041120 0.094710 0.086750 -0.530480
C44   C     C_R   0.872116 0.115999 0.113399 0.793502
V4    V     V_3+5 0.148810 0.011930 0.002180 1.478201
O20   O     O_3   0.871750 0.936430 0.988010 -0.383808
O21   O     O_3   0.501561 0.853412 0.770737 -0.649901
H18   H     H_    0.584988 0.908923 0.794437 0.279741
O22   O     O_3   0.018992 0.685493 0.695045 -0.632682
H19   H     H_    0.922517 0.716014 0.728935 0.278698
O23   O     O_3   0.385700 0.853531 0.498513 -0.622526
H20   H     H_    0.375819 0.795956 0.520853 0.291001
C45   C     C_2   0.944637 0.954870 0.691016 0.416926
H21   H     H_    0.890363 0.897445 0.716004 0.064949
O24   O     O_2   0.048180 0.929769 0.642134 -0.508915
C46   C     C_2   0.295120 0.507085 0.073669 0.355164
H22   H     H_    0.288769 0.490111 0.019386 0.045607
O25   O     O_2   0.281610 0.438168 0.103211 -0.534703
O26   O     O_3   0.398010 0.994080 0.179252 -0.649092
H23   H     H_    0.413289 0.059444 0.211118 0.272473
O27   O     O_3   0.182170 0.339498 0.307707 -0.632569
H24   H     H_    0.286554 0.318005 0.274791 0.278119

loop_
_geom_bond_atom_site_label_1
_geom_bond_atom_site_label_2
_ccdc_geom_bond_type
C30   C46   S    
C29   C30   A    
C21   C22   D    
C46   H22   S    
C27   C35   A    
O18   V4    S    
C24   C42   S    
C29   H16   S    
C31   C32   A    
C28   C39   A    
C6    C16   A    
C23   C24   D    
C18   C43   S    
C12   C13   A    
O14   C42   A    
C14   C15   A    
C10   C12   A    
C37   O26   S    
C33   C40   A    
O5    C3    A    
C19   C20   D    
C32   C34   A    
V2    O10   S    
O26   H23   S    
C30   C31   A    
C27   C39   A    
C26   H12   S    
C45   H21   S    
O8    V2    S    
C9    C10   A    
C25   O22   S    
O1    V2    S    
O11   V4    S    
O7    V1    S    
C1    O6    A    
C11   C18   A    
O1    C2    A    
O9    C4    A    
C21   H9    S    
C22   H10   S    
O12   V3    S    
C23   H11   S    
C11   C15   A    
C39   O23   S    
C7    C18   A    
C5    C13   A    
C38   H15   S    
C4    C6    S    
C10   C11   A    
C19   C21   S    
C19   O27   S    
C20   H8    S    
O4    C2    A    
O21   H18   S    
O15   C43   A    
C7    H4    S    
O16   V4    S    
C32   C33   A    
C40   C41   S    
C34   C35   A    
C27   H14   S    
O2    C1    A    
C36   C37   A    
C45   O24   D    
C14   C45   S    
V4    O20   S    
O3    C4    A    
C25   C26   D    
C12   C16   A    
O6    V2    S    
O19   V4    S    
O14   V3    S    
O9    V2    S    
O11   C42   A    
C5    C17   A    
O2    V1    S    
V3    O20   S    
C29   C40   A    
O12   C41   A    
C23   C25   S    
C16   H3    S    
O17   V3    S    
C22   C44   S    
O18   C43   A    
O5    V1    S    
O8    C3    A    
C46   O25   D    
O13   V3    S    
C8    H6    S    
C33   C37   A    
C1    C26   S    
C34   C38   A    
C3    C20   S    
O7    V2    S    
O4    V1    S    
O3    V1    S    
V1    O10   S    
O23   H20   S    
C28   C38   A    
O27   H24   S    
C5    H2    S    
C35   C36   A    
C9    H5    S    
O13   C44   A    
O17   V4    S    
O22   H19   S    
O19   C44   A    
C15   H7    S    
C13   C14   A    
C41   O16   A    
C8    C9    A    
H13   C36   S    
H1    C17   S    
C2    C28   S    
C31   H17   S    
C7    C8    A    
O15   V3    S    
C24   O21   S    
C6    C17   A    
