data_mof_unit_59719.cif
_audit_creation_date              2012-12-11T15:55:49-0500
_audit_creation_method            fapswitch 2.2
_symmetry_space_group_name_H-M    P1
_symmetry_Int_Tables_number       1
_space_group_crystal_system       triclinic
_cell_length_a                    6.954904
_cell_length_b                    14.531333
_cell_length_c                    16.103275
_cell_angle_alpha                 89.996847
_cell_angle_beta                  89.993586
_cell_angle_gamma                 90.137199
_cell_volume                      1627.45712479

loop_
_atom_site_label
_atom_site_type_symbol
_atom_type_description
_atom_site_fract_x
_atom_site_fract_y
_atom_site_fract_z
_atom_type_partial_charge
O1    O     O_R   0.505680 0.583900 0.413320 -0.551127
O2    O     O_R   0.176010 0.594950 0.586080 -0.539056
O3    O     O_R   0.005680 0.416100 0.586680 -0.503828
C1    C     C_R   0.345200 0.617029 0.614866 0.766221
O4    O     O_R   0.175960 0.594930 0.413930 -0.552995
O5    O     O_R   0.005640 0.416080 0.413300 -0.544150
C2    C     C_R   0.345095 0.617145 0.385064 0.652923
O6    O     O_R   0.505720 0.583920 0.586700 -0.544099
O7    O     O_3   0.339190 0.441320 0.500000 -0.327800
V1    V     V_3+5 0.064350 0.510890 0.500000 1.497342
O8    O     O_R   0.675920 0.405050 0.413920 -0.542813
C3    C     C_R   0.844881 0.382756 0.385083 0.678266
O9    O     O_R   0.675960 0.405070 0.586070 -0.510252
C4    C     C_R   0.844692 0.383234 0.615121 0.778765
V2    V     V_3+5 0.564340 0.489110 0.500000 1.527521
O10   O     O_3   0.839370 0.558680 0.500000 -0.389778
C5    C     C_R   0.012682 0.255381 0.691833 0.077403
C6    C     C_R   0.853829 0.313199 0.682375 -0.090436
C7    C     C_R   0.706870 0.305126 0.741466 -0.081179
H1    H     H_    0.591307 0.353297 0.740235 0.201031
C8    C     C_R   0.716179 0.240372 0.806315 -0.175076
H2    H     H_    0.601773 0.238407 0.851782 0.132297
C9    C     C_R   0.878196 0.183593 0.815912 -0.089976
C10   C     C_R   0.024326 0.191051 0.756420 0.062064
C11   C     C_3   0.231847 0.211156 0.770958 -0.464141
C12   C     C_3   0.216939 0.282940 0.702774 0.622600
H3    H     H_    0.323950 0.151342 0.754823 0.201378
H4    H     H_    0.258400 0.240294 0.833773 0.174214
C13   C     C_R   0.046475 0.224437 0.217949 -0.150790
H5    H     H_    0.186889 0.205851 0.194338 0.116259
C14   C     C_R   0.035225 0.287953 0.283202 -0.135618
H6    H     H_    0.167602 0.316462 0.307640 0.121846
C15   C     C_R   0.856050 0.314346 0.316263 -0.040551
C16   C     C_R   0.688460 0.275363 0.282184 -0.141584
H7    H     H_    0.548049 0.293938 0.305807 0.122121
C17   C     C_R   0.699712 0.211844 0.216934 -0.146900
H8    H     H_    0.567337 0.183321 0.192508 0.118913
C18   C     C_R   0.878881 0.185493 0.183835 -0.041497
C19   C     C_R   0.200411 0.744189 0.699252 -0.178269
H9    H     H_    0.071686 0.739802 0.661532 0.154533
C20   C     C_R   0.209283 0.810201 0.762541 0.388969
C21   C     C_R   0.376025 0.817595 0.813321 -0.132666
C22   C     C_R   0.532397 0.759312 0.796044 -0.158120
H10   H     H_    0.662181 0.762808 0.833069 0.173796
C23   C     C_R   0.523201 0.694843 0.731519 -0.112044
H11   H     H_    0.646301 0.650976 0.720493 0.137794
C24   C     C_R   0.356349 0.685983 0.682873 -0.109061
C25   C     C_R   0.188688 0.724382 0.282402 -0.150442
H12   H     H_    0.048333 0.705722 0.306237 0.115801
C26   C     C_R   0.199756 0.787934 0.217169 -0.144998
H13   H     H_    0.067391 0.816400 0.192967 0.118544
C27   C     C_R   0.378793 0.814397 0.183821 -0.041175
C28   C     C_R   0.546449 0.775518 0.217630 -0.150648
H14   H     H_    0.686799 0.794182 0.193793 0.116611
C29   C     C_R   0.535380 0.711962 0.282866 -0.146589
H15   H     H_    0.667739 0.683493 0.307072 0.116217
C30   C     C_R   0.356338 0.685499 0.316210 -0.036862
O11   O     O_R   0.229200 0.915950 0.913350 -0.504981
O12   O     O_R   0.559090 0.905000 0.086080 -0.548504
O13   O     O_R   0.729280 0.083880 0.086680 -0.547266
C31   C     C_R   0.389985 0.882749 0.114963 0.670440
O14   O     O_R   0.558920 0.904980 0.913920 -0.531608
O15   O     O_R   0.729110 0.083860 0.913300 -0.538749
C32   C     C_R   0.389394 0.884442 0.883653 0.755924
O16   O     O_R   0.229360 0.915970 0.086730 -0.545145
O17   O     O_3   0.395680 0.058580 0.000030 -0.382101
V3    V     V_3+5 0.670570 0.989070 0.999990 1.466094
O18   O     O_R   0.058820 0.094950 0.913870 -0.534935
C33   C     C_R   0.889990 0.117099 0.885385 0.765631
O19   O     O_R   0.058990 0.094970 0.086020 -0.549451
C34   C     C_R   0.890041 0.117167 0.114937 0.665254
V4    V     V_3+5 0.170560 0.010930 0.999930 1.467802
O20   O     O_3   0.895590 0.941310 0.999960 -0.356550
Cl1   Cl    Cl    0.009571 0.884304 0.771339 -0.668772
Cl2   Cl    Cl    0.353844 0.257136 0.612062 -0.624185
Cl3   Cl    Cl    0.239600 0.399135 0.740136 -0.707807

loop_
_geom_bond_atom_site_label_1
_geom_bond_atom_site_label_2
_ccdc_geom_bond_type
C29   H15   S    
C20   C21   A    
C4    C6    S    
C7    H1    S    
C1    O6    A    
C25   C30   A    
C19   C20   A    
C28   H14   S    
C11   H4    S    
O14   V3    S    
C5    C12   S    
C17   H8    S    
C7    C8    A    
C16   H7    S    
C27   C31   S    
O5    C3    A    
V2    O10   S    
C6    C7    A    
C23   C24   A    
C9    C33   S    
O14   C32   A    
O12   V3    S    
C20   Cl1   S    
O8    V2    S    
O17   V4    S    
O15   C33   A    
O13   V3    S    
O18   C33   A    
C13   C18   A    
C12   Cl3   S    
C9    C10   A    
C14   C15   A    
O19   C34   A    
V3    O20   S    
O7    V1    S    
C25   C26   A    
O17   V3    S    
C8    H2    S    
C15   C16   A    
C28   C29   A    
O11   C32   A    
O15   V3    S    
O12   C31   A    
C5    C10   A    
C10   C11   S    
C19   H9    S    
O4    C2    A    
O13   C34   A    
C26   H13   S    
C11   C12   S    
C23   H11   S    
O2    C1    A    
C22   H10   S    
C13   H5    S    
C26   C27   A    
C14   H6    S    
O9    V2    S    
O18   V4    S    
C5    C6    A    
C22   C23   A    
O3    C4    A    
O1    V2    S    
C25   H12   S    
O6    V2    S    
C29   C30   A    
C21   C22   A    
O2    V1    S    
C21   C32   S    
C27   C28   A    
C19   C24   A    
C18   C34   S    
O1    C2    A    
V4    O20   S    
O5    V1    S    
O8    C3    A    
C11   H3    S    
O16   V4    S    
C8    C9    A    
O7    V2    S    
O4    V1    S    
C13   C14   A    
O3    V1    S    
V1    O10   S    
O11   V4    S    
C17   C18   A    
C16   C17   A    
C31   O16   A    
C12   Cl2   S    
O19   V4    S    
C3    C15   S    
O9    C4    A    
C2    C30   S    
C1    C24   S    
