data_mof_unit_17169.cif
_audit_creation_date              2012-12-10T18:59:13-0500
_audit_creation_method            fapswitch 2.2
_symmetry_space_group_name_H-M    P1
_symmetry_Int_Tables_number       1
_space_group_crystal_system       triclinic
_cell_length_a                    9.868625
_cell_length_b                    10.652012
_cell_length_c                    16.795591
_cell_angle_alpha                 88.301116
_cell_angle_beta                  94.006127
_cell_angle_gamma                 90.709857
_cell_volume                      1760.38204462

loop_
_atom_site_label
_atom_site_type_symbol
_atom_type_description
_atom_site_fract_x
_atom_site_fract_y
_atom_site_fract_z
_atom_type_partial_charge
C1    C     C_R   0.499266 0.260234 0.499779 0.925648
C2    C     C_R   0.500734 0.739766 0.500221 0.925648
C3    C     C_R   0.399104 0.935100 0.454592 -0.338903
C4    C     C_R   0.600896 0.064900 0.545408 -0.338903
C5    C     C_R   0.501548 0.872114 0.500644 -0.205776
C6    C     C_R   0.498452 0.127885 0.499356 -0.205775
C7    C     C_R   0.068567 0.582798 0.452499 -0.107763
C8    C     C_R   0.931433 0.417202 0.547500 -0.107766
C9    C     C_R   0.925332 0.582929 0.451913 0.234555
C10   C     C_R   0.074668 0.417071 0.548087 0.234553
C11   C     C_R   0.517370 0.500884 0.653623 0.934822
C12   C     C_R   0.482629 0.499115 0.346377 0.934820
C13   C     C_R   0.526070 0.515262 0.740078 -0.281929
C14   C     C_R   0.473930 0.484732 0.259922 -0.281944
C15   C     C_R   0.404470 0.527002 0.777562 -0.354672
C16   C     C_R   0.595529 0.472985 0.222439 -0.354641
C17   C     C_R   0.406260 0.546183 0.858623 0.500948
C18   C     C_R   0.593739 0.453796 0.141379 0.500947
C19   C     C_R   0.531575 0.549641 0.903986 0.061187
C20   C     C_R   0.468423 0.450339 0.096016 0.061168
C21   C     C_R   0.653707 0.549224 0.866630 0.041338
C22   C     C_R   0.346292 0.450763 0.133372 0.041359
C23   C     C_R   0.652201 0.525648 0.785084 0.421774
C24   C     C_R   0.347798 0.474346 0.214916 0.421770
C25   C     C_R   0.398125 0.064247 0.452562 0.557080
C26   C     C_R   0.601876 0.935753 0.547437 0.557082
H1    H     H_    0.693367 0.478104 0.255773 0.233912
H2    H     H_    0.306632 0.521884 0.744228 0.233908
H3    H     H_    0.321769 0.884300 0.419056 0.183368
H4    H     H_    0.678231 0.115700 0.580943 0.183367
H5    H     H_    0.120525 0.649202 0.415034 0.146183
H6    H     H_    0.879475 0.350797 0.584966 0.146183
N1    N     N_2   0.536079 0.543747 0.987601 -0.082036
N2    N     N_2   0.463919 0.456233 0.012401 -0.082045
N3    N     N_R   0.857210 0.499970 0.500020 -0.105287
N4    N     N_R   0.142790 0.500030 0.499980 -0.105287
O1    O     O_R   0.614620 0.316750 0.500010 -0.642825
O2    O     O_R   0.385380 0.683250 0.499990 -0.642826
O3    O     O_R   0.385290 0.316780 0.500000 -0.545964
O4    O     O_R   0.614710 0.683220 0.500000 -0.545964
O5    O     O_R   0.627460 0.498830 0.616130 -0.572517
O6    O     O_R   0.372540 0.501170 0.383870 -0.572515
O7    O     O_R   0.398130 0.498850 0.616130 -0.613957
O8    O     O_R   0.601870 0.501150 0.383870 -0.613956
Zn1   Zn    Zn3+2 0.653130 0.499980 0.500000 1.010203
Zn2   Zn    Zn3+2 0.346870 0.500020 0.500000 1.010202
O9    O     O_3   0.715584 0.446107 0.106088 -0.554652
C27   C     C_3   0.742426 0.318391 0.094923 -0.210865
H7    H     H_    0.841258 0.311659 0.067823 0.223792
H8    H     H_    0.750739 0.264588 0.152899 0.148253
H9    H     H_    0.663864 0.275204 0.053179 0.149348
O10   O     O_3   0.284416 0.553866 0.893916 -0.554654
C28   C     C_3   0.257544 0.681585 0.905052 -0.210872
H10   H     H_    0.249170 0.735343 0.847061 0.148284
H11   H     H_    0.336122 0.724822 0.946762 0.149320
H12   H     H_    0.158733 0.688311 0.932177 0.223797
I1    I     I_    0.841039 0.580961 0.933662 -0.250652
I2    I     I_    0.158958 0.419028 0.066341 -0.250628
O11   O     O_3   0.773929 0.517992 0.749546 -0.566738
C29   C     C_3   0.817341 0.392056 0.755698 -0.189237
H13   H     H_    0.827898 0.356548 0.818796 0.170023
H14   H     H_    0.918988 0.387088 0.731813 0.197432
H15   H     H_    0.747068 0.329751 0.719839 0.131785
O12   O     O_3   0.226070 0.482009 0.250455 -0.566734
C30   C     C_3   0.182665 0.607946 0.244299 -0.189229
H16   H     H_    0.081018 0.612920 0.268184 0.197432
H17   H     H_    0.172109 0.643451 0.181202 0.170023
H18   H     H_    0.252940 0.670250 0.280158 0.131783
O13   O     O_3   0.297075 0.127555 0.407017 -0.571890
C31   C     C_3   0.340317 0.147716 0.329352 -0.244647
H19   H     H_    0.353764 0.057177 0.299570 0.144231
H20   H     H_    0.260938 0.201293 0.293280 0.226367
H21   H     H_    0.435817 0.204572 0.329948 0.130833
O14   O     O_3   0.702926 0.872445 0.592982 -0.571890
C32   C     C_3   0.659689 0.852287 0.670648 -0.244654
H22   H     H_    0.739066 0.798702 0.706717 0.226370
H23   H     H_    0.646255 0.942827 0.700431 0.144235
H24   H     H_    0.564183 0.795439 0.670054 0.130831
I3    I     I_    0.825707 0.715547 0.372615 -0.332781
I4    I     I_    0.174293 0.284452 0.627385 -0.332789

loop_
_geom_bond_atom_site_label_1
_geom_bond_atom_site_label_2
_ccdc_geom_bond_type
C7    N4    A    
C18   O9    S    
C28   H10   S    
O10   C28   S    
C23   O11   S    
C29   H15   S    
C19   C21   A    
O6    Zn2   S    
C6    C25   A    
C13   C23   A    
C29   H14   S    
C9    I3    S    
C14   C24   A    
C3    H3    S    
C12   O6    A    
C17   C19   A    
C27   H9    S    
C30   H17   S    
N4    Zn2   S    
C31   H19   S    
C18   C20   A    
C1    O1    A    
C20   N2    S    
C16   H1    S    
C27   H8    S    
O11   C29   S    
C24   O12   S    
C17   O10   S    
O7    Zn2   S    
C28   H11   S    
O4    Zn1   S    
C7    H5    S    
O14   C32   S    
C1    C6    S    
C8    H6    S    
C3    C25   A    
C4    C6    A    
C19   N1    S    
C10   I4    S    
C29   H13   S    
C8    N3    A    
C32   H22   S    
C21   I1    S    
C2    O2    A    
O9    C27   S    
C30   H18   S    
C31   H21   S    
N1    N2    D    
C11   O7    A    
C32   H23   S    
O3    Zn2   S    
C8    C10   A    
C27   H7    S    
C12   C14   S    
C13   C15   A    
C14   C16   A    
C2    C5    S    
C25   O13   S    
O1    Zn1   S    
N3    Zn1   S    
O8    Zn1   S    
C28   H12   S    
C7    C9    A    
C20   C22   A    
C3    C5    A    
C22   I2    S    
C4    C26   A    
C15   C17   A    
O12   C30   S    
C21   C23   A    
C12   O8    A    
C11   C13   S    
C15   H2    S    
C26   O14   S    
C10   N4    A    
C11   O5    A    
C22   C24   A    
O13   C31   S    
C32   H24   S    
O2    Zn2   S    
C1    O3    A    
C5    C26   A    
C2    O4    A    
C16   C18   A    
C30   H16   S    
C9    N3    A    
O5    Zn1   S    
C31   H20   S    
C4    H4    S    
