data_mof_unit_41513.cif
_audit_creation_date              2012-12-11T17:07:36-0500
_audit_creation_method            fapswitch 2.2
_symmetry_space_group_name_H-M    P1
_symmetry_Int_Tables_number       1
_space_group_crystal_system       triclinic
_cell_length_a                    6.998428
_cell_length_b                    14.774116
_cell_length_c                    15.972258
_cell_angle_alpha                 89.744197
_cell_angle_beta                  89.959306
_cell_angle_gamma                 90.994161
_cell_volume                      1651.19542725

loop_
_atom_site_label
_atom_site_type_symbol
_atom_type_description
_atom_site_fract_x
_atom_site_fract_y
_atom_site_fract_z
_atom_type_partial_charge
O1    O     O_R   0.505720 0.583900 0.413310 -0.537203
O2    O     O_R   0.175940 0.594920 0.586080 -0.544768
O3    O     O_R   0.005640 0.416100 0.586690 -0.531217
C1    C     C_R   0.345735 0.618564 0.613232 0.692022
O4    O     O_R   0.176000 0.594930 0.413930 -0.552311
O5    O     O_R   0.005700 0.416110 0.413310 -0.544192
C2    C     C_R   0.346127 0.619920 0.388038 0.719102
O6    O     O_R   0.505660 0.583890 0.586690 -0.538731
O7    O     O_3   0.339200 0.441330 0.500000 -0.365482
V1    V     V_3+5 0.064350 0.510880 0.500000 1.392399
O8    O     O_R   0.675980 0.405080 0.413920 -0.538546
C3    C     C_R   0.844306 0.381571 0.386749 0.672453
O9    O     O_R   0.675920 0.405070 0.586070 -0.538802
C4    C     C_R   0.844089 0.381270 0.612923 0.696031
V2    V     V_3+5 0.564340 0.489120 0.500000 1.420348
O10   O     O_3   0.839360 0.558670 0.500000 -0.380357
H1    H     H_    0.641091 0.079699 0.513302 0.122196
C5    C     C_R   0.953403 0.431847 0.779798 -0.204491
C6    C     C_R   0.001396 0.460527 0.859850 0.470653
C7    C     C_R   0.033323 0.396751 0.923045 -0.233329
C8    C     C_R   0.998633 0.305163 0.907875 -0.228581
C9    C     C_R   0.934699 0.275139 0.828456 0.076408
C10   C     C_R   0.916641 0.339772 0.762535 0.003023
C11   C     C_R   0.882823 0.183239 0.814770 -0.157369
C12   C     C_R   0.816023 0.156305 0.734442 0.070489
C13   C     C_R   0.802244 0.220969 0.668080 0.067078
C14   C     C_R   0.853219 0.312919 0.682044 -0.160277
C15   C     C_R   0.765419 0.064968 0.718144 -0.151391
C16   C     C_R   0.702158 0.038068 0.639224 -0.122395
C17   C     C_R   0.689329 0.101045 0.574620 -0.100190
C18   C     C_R   0.739300 0.191457 0.588448 -0.139287
H2    H     H_    0.932406 0.483930 0.733023 0.120176
H3    H     H_    0.076769 0.418367 0.984968 0.122655
H4    H     H_    0.016480 0.258971 0.959890 0.117778
H5    H     H_    0.775511 0.013294 0.765948 0.095272
H6    H     H_    0.663909 0.967834 0.628047 0.115315
H7    H     H_    0.728554 0.237673 0.535993 0.103164
C19   C     C_R   0.724621 0.191746 0.234257 0.018656
C20   C     C_R   0.881604 0.185825 0.181951 -0.111350
C21   C     C_R   0.022884 0.252938 0.195195 -0.103465
H8    H     H_    0.123245 0.267130 0.146221 0.152104
C22   C     C_R   0.017420 0.311521 0.265373 -0.196013
H9    H     H_    0.131784 0.360467 0.273716 0.126327
C23   C     C_R   0.856771 0.312995 0.319261 -0.083122
C24   C     C_R   0.712846 0.249735 0.300538 0.032893
C25   C     C_3   0.505585 0.229033 0.313494 -0.426587
C26   C     C_3   0.519111 0.166303 0.236304 0.327362
H10   H     H_    0.416226 0.289330 0.304562 0.179605
H11   H     H_    0.479070 0.191660 0.373053 0.144878
H12   H     H_    0.494581 0.093590 0.251726 0.102003
C27   C     C_R   0.516142 0.695868 0.732557 0.103321
C28   C     C_R   0.355520 0.687218 0.681324 -0.104261
C29   C     C_R   0.201091 0.744069 0.699306 -0.157166
H13   H     H_    0.076675 0.742459 0.659555 0.136490
C30   C     C_R   0.211111 0.807743 0.765183 -0.160041
H14   H     H_    0.093481 0.852980 0.774510 0.127320
C31   C     C_R   0.376449 0.817043 0.815030 -0.111439
C32   C     C_R   0.526649 0.758852 0.797309 0.128646
C33   C     C_3   0.730189 0.781196 0.778479 -0.410364
C34   C     C_3   0.718591 0.712660 0.708091 -0.421949
H15   H     H_    0.826161 0.760728 0.830223 0.195402
H16   H     H_    0.750618 0.851832 0.755788 0.154301
H17   H     H_    0.808312 0.652407 0.718924 0.185454
H18   H     H_    0.731952 0.743732 0.644745 0.169537
C35   C     C_R   0.486176 0.686882 0.256095 0.034607
C36   C     C_R   0.355648 0.691131 0.321998 -0.191333
C37   C     C_R   0.222151 0.762068 0.318244 -0.245223
H19   H     H_    0.114405 0.767331 0.366604 0.158515
C38   C     C_R   0.232008 0.829068 0.253957 0.368533
C39   C     C_R   0.374820 0.825109 0.190724 -0.196904
C40   C     C_R   0.497223 0.752571 0.194627 -0.018064
C41   C     C_3   0.708104 0.748315 0.189489 0.218047
C42   C     C_3   0.694287 0.669123 0.251768 0.262243
H20   H     H_    0.777898 0.809590 0.216091 0.122884
H21   H     H_    0.767497 0.681095 0.312851 0.025983
O11   O     O_R   0.229140 0.916090 0.913340 -0.543418
O12   O     O_R   0.558860 0.905090 0.086080 -0.519267
O13   O     O_R   0.729100 0.083920 0.086690 -0.555211
C43   C     C_R   0.389502 0.889139 0.118980 0.814450
O14   O     O_R   0.558860 0.905090 0.913930 -0.537609
O15   O     O_R   0.729100 0.083920 0.913310 -0.549466
C44   C     C_R   0.389396 0.884703 0.883979 0.688305
O16   O     O_R   0.229140 0.916080 0.086720 -0.501258
O17   O     O_3   0.395570 0.058660 0.000020 -0.390124
V3    V     V_3+5 0.670450 0.989140 0.000000 1.499411
O18   O     O_R   0.058810 0.094980 0.913910 -0.550323
C45   C     C_R   0.890991 0.116133 0.884819 0.653841
O19   O     O_R   0.058810 0.094980 0.086060 -0.514461
C46   C     C_R   0.890774 0.117878 0.113702 0.715097
V4    V     V_3+5 0.170450 0.010950 0.999970 1.515929
O20   O     O_3   0.895460 0.941370 0.999990 -0.340112
O21   O     O_3   0.400196 0.195548 0.169245 -0.563381
C47   C     C_3   0.482555 0.246560 0.101738 0.150119
H22   H     H_    0.391099 0.234013 0.045999 0.114966
H23   H     H_    0.621658 0.225007 0.080640 0.121939
C48   C     C_3   0.487516 0.348711 0.116778 -0.380935
H24   H     H_    0.364017 0.377808 0.083538 0.173323
H25   H     H_    0.479595 0.364788 0.184269 0.226117
C49   C     C_3   0.666768 0.393542 0.080117 -0.822965
H26   H     H_    0.796537 0.367767 0.110918 0.228180
H27   H     H_    0.662106 0.467511 0.090027 0.272805
H28   H     H_    0.675244 0.379545 0.012132 0.227048
Cl1   Cl    Cl    0.079187 0.922171 0.260905 -0.707631
Cl2   Cl    Cl    0.780978 0.724713 0.085529 -0.704681
O22   O     O_3   0.717362 0.584242 0.213387 -0.552482
C50   C     C_3   0.892376 0.545729 0.235662 0.090747
H29   H     H_    0.874162 0.472197 0.225866 0.140254
H30   H     H_    0.928722 0.554810 0.302808 0.125190
C51   C     C_3   0.053371 0.580626 0.178856 -0.288398
H31   H     H_    0.005334 0.579438 0.113120 0.238276
H32   H     H_    0.092752 0.651178 0.195012 0.222477
C52   C     C_3   0.225673 0.520603 0.184678 -0.851520
H33   H     H_    0.276816 0.514406 0.250032 0.236183
H34   H     H_    0.342558 0.547850 0.144497 0.273118
H35   H     H_    0.181048 0.453195 0.161963 0.206250
O23   O     O_3   0.005878 0.552394 0.875023 -0.592404
C53   C     C_3   0.854790 0.575647 0.929434 0.082156
H36   H     H_    0.863725 0.649994 0.936769 0.210082
H37   H     H_    0.874271 0.545140 0.992113 0.140725
C54   C     C_3   0.654775 0.550110 0.895514 -0.382300
H38   H     H_    0.645134 0.569630 0.828956 0.203735
H39   H     H_    0.630868 0.475748 0.898682 0.187193
C55   C     C_3   0.496713 0.595383 0.945186 -0.703312
H40   H     H_    0.494733 0.570459 0.010628 0.245015
H41   H     H_    0.356652 0.579294 0.916154 0.252208
H42   H     H_    0.517551 0.669932 0.945775 0.250646

loop_
_geom_bond_atom_site_label_1
_geom_bond_atom_site_label_2
_ccdc_geom_bond_type
C30   H14   S    
C47   H22   S    
C26   O21   S    
C6    C7    A    
C1    O6    A    
C52   H34   S    
V3    O20   S    
C55   H40   S    
C29   H13   S    
C28   C29   A    
C12   C15   A    
C16   H6    S    
C13   C14   A    
O14   V3    S    
C22   C23   A    
C1    C28   S    
C34   H17   S    
C15   C16   A    
C53   H37   S    
O5    C3    A    
C17   C18   A    
C55   H41   S    
C50   H29   S    
V2    O10   S    
C31   C44   S    
C48   C49   S    
C35   C42   S    
O23   C53   S    
C5    C6    A    
C19   C24   A    
O9    C4    A    
O8    V2    S    
C15   H5    S    
C48   H25   S    
C39   C40   A    
O1    V2    S    
C10   C14   A    
C4    C14   S    
O7    V1    S    
C54   C55   S    
C29   C30   A    
C36   C37   A    
O12   V3    S    
C13   C18   A    
C47   H23   S    
C8    C9    A    
H1    C17   S    
C42   H21   S    
O17   V4    S    
C52   H33   S    
C54   H39   S    
C26   H12   S    
O12   C43   A    
O13   C46   A    
C25   H10   S    
C33   H15   S    
C37   H19   S    
C11   C12   A    
C41   H20   S    
O18   V4    S    
C53   C54   S    
O11   C44   A    
C20   C21   A    
O4    C2    A    
O18   C45   A    
C55   H42   S    
C8    H4    S    
C41   Cl2   S    
C12   C13   A    
C24   C25   S    
C27   C28   A    
C37   C38   A    
O2    C1    A    
C16   C17   A    
C42   O22   S    
C49   H26   S    
C25   H11   S    
O9    V2    S    
C48   H24   S    
C7    C8    A    
C27   C32   A    
O17   V3    S    
C19   C26   S    
O15   C45   A    
O3    C4    A    
C7    H3    S    
O13   V3    S    
O14   C44   A    
C21   H8    S    
C49   H27   S    
O19   V4    S    
O6    V2    S    
C30   C31   A    
C9    C11   A    
C51   C52   S    
C5    H2    S    
C22   H9    S    
V4    O20   S    
O2    V1    S    
C54   H38   S    
O16   V4    S    
C25   C26   S    
C33   H16   S    
C39   C43   S    
O1    C2    A    
C38   Cl1   S    
C23   C24   A    
C41   C42   S    
O5    V1    S    
O8    C3    A    
C47   C48   S    
O22   C50   S    
C34   H18   S    
C51   H32   S    
C32   C33   S    
O4    V1    S    
C3    C23   S    
O3    V1    S    
C35   C40   A    
C53   H36   S    
C2    C36   S    
C43   O16   A    
C31   C32   A    
C19   C20   A    
C50   H30   S    
C6    O23   S    
C5    C10   A    
C21   C22   A    
O21   C47   S    
O7    V2    S    
C38   C39   A    
C11   C45   S    
C18   H7    S    
C33   C34   S    
C49   H28   S    
C40   C41   S    
O19   C46   A    
C35   C36   A    
C9    C10   A    
V1    O10   S    
C27   C34   S    
C51   H31   S    
C20   C46   S    
C52   H35   S    
O15   V3    S    
O11   V4    S    
C50   C51   S    
