data_mof_unit_24085.cif
_audit_creation_date              2013-03-05T16:32:18-0500
_audit_creation_method            fapswitch 2.2
_symmetry_space_group_name_H-M    P1
_symmetry_Int_Tables_number       1
_space_group_crystal_system       triclinic
_cell_length_a                    15.86574
_cell_length_b                    10.86804
_cell_length_c                    9.566506
_cell_angle_alpha                 91.087248
_cell_angle_beta                  89.619731
_cell_angle_gamma                 90.543982
_cell_volume                      1649.14210777

loop_
_atom_site_label
_atom_site_type_symbol
_atom_site_description
_atom_site_fract_x
_atom_site_fract_y
_atom_site_fract_z
_atom_type_partial_charge
O1    O     O_R   0.500000 0.319640 0.618810 -0.587358
O2    O     O_R   0.500010 0.319680 0.381230 -0.586518
C1    C     C_R   0.499381 0.263026 0.498745 0.796538
O3    O     O_R   0.379430 0.499990 0.618840 -0.580935
O4    O     O_R   0.379440 0.500030 0.381260 -0.590378
C2    C     C_R   0.340240 0.499933 0.500431 0.825673
Cu1   Cu    Cu3+1 0.500000 0.499980 0.640670 0.979342
Cu2   Cu    Cu3+1 0.500000 0.500020 0.359330 0.951287
O5    O     O_R   0.499990 0.680320 0.618770 -0.529770
O6    O     O_R   0.500000 0.680360 0.381190 -0.591576
O7    O     O_R   0.620560 0.499970 0.618740 -0.577185
O8    O     O_R   0.620570 0.500010 0.381160 -0.587407
C3    C     C_R   0.500803 0.737516 0.500987 0.846741
C4    C     C_R   0.659677 0.498955 0.499709 0.846694
C5    C     C_3   0.048189 0.410583 0.606808 -0.412351
C6    C     C_3   0.049135 0.465854 0.353481 -0.376877
C7    C     C_3   0.951550 0.467025 0.352763 -0.388044
H1    H     H_    0.928061 0.313117 0.577779 0.171425
H2    H     H_    0.072322 0.316953 0.580937 0.178257
H3    H     H_    0.074288 0.528095 0.271958 0.157756
H4    H     H_    0.071320 0.371614 0.325555 0.168702
H5    H     H_    0.927252 0.374865 0.318837 0.168374
H6    H     H_    0.929526 0.534691 0.275458 0.160453
C8    C     C_1   0.749259 0.498181 0.499636 -0.157522
C9    C     C_3   0.082602 0.504735 0.499955 0.272630
C10   C     C_3   0.950627 0.407603 0.606017 -0.388687
C11   C     C_3   0.916890 0.500843 0.500225 0.282800
C12   C     C_3   0.949606 0.631043 0.541990 -0.357214
C13   C     C_3   0.048052 0.635058 0.542275 0.009152
C14   C     C_1   0.824786 0.498639 0.499931 -0.099392
C15   C     C_1   0.174945 0.502363 0.500935 -0.122554
C16   C     C_1   0.250535 0.500910 0.501141 -0.177083
H7    H     H_    0.069062 0.655345 0.651338 0.151056
H8    H     H_    0.925598 0.657123 0.647984 0.162617
H9    H     H_    0.070646 0.435425 0.713767 0.160469
H10   H     H_    0.926247 0.429980 0.712794 0.163843
H11   H     H_    0.923476 0.698738 0.468377 0.175058
C17   C     C_R   0.527721 0.067181 0.609876 0.001888
C18   C     C_R   0.498973 0.130854 0.496266 -0.076397
C19   C     C_R   0.470267 0.061927 0.379653 -0.180826
H12   H     H_    0.447235 0.107251 0.287754 0.173060
C20   C     C_R   0.470584 0.932695 0.382011 -0.171923
H13   H     H_    0.447815 0.881828 0.291177 0.193551
C21   C     C_R   0.499626 0.870651 0.500932 -0.087908
C22   C     C_R   0.527785 0.942816 0.613559 0.012887
C23   C     C_3   0.569284 0.944402 0.755250 0.557576
C24   C     C_3   0.568218 0.087251 0.748750 -0.175678
H14   H     H_    0.523129 0.129478 0.824868 0.163375
C25   C     C_R   0.573931 0.515036 0.072910 0.184319
N1    N     N_R   0.500530 0.500930 0.147930 -0.186899
C26   C     C_R   0.428794 0.473580 0.074288 -0.055466
H15   H     H_    0.370655 0.453180 0.128766 0.138980
C27   C     C_R   0.428783 0.473729 0.926003 -0.023912
H16   H     H_    0.370646 0.453657 0.871730 0.135833
N2    N     N_R   0.500530 0.500890 0.852020 -0.172578
C28   C     C_R   0.573387 0.513920 0.925288 0.138195
C29   C     C_3   0.630477 0.621429 0.915927 -0.366981
C30   C     C_3   0.631358 0.626452 0.075011 -0.072951
H17   H     H_    0.690652 0.596764 0.862829 0.193111
H18   H     H_    0.597538 0.699217 0.869589 0.262960
H19   H     H_    0.598590 0.708877 0.118914 0.232470
N3    N     N_R   0.515179 0.898271 0.868077 0.071013
O9    O     O_R   0.535180 0.921394 0.997676 -0.385929
O10   O     O_R   0.445092 0.839606 0.840991 -0.380985
N4    N     N_R   0.653533 0.889543 0.755157 0.085936
O11   O     O_R   0.678463 0.819069 0.651630 -0.433557
O12   O     O_R   0.700815 0.900687 0.865394 -0.368274
C31   C     C_3   0.653499 0.158542 0.746584 -0.338117
C32   C     C_3   0.706677 0.144702 0.612787 -0.755689
H20   H     H_    0.719491 0.046980 0.586828 0.291245
H21   H     H_    0.674600 0.187217 0.523310 0.227558
H22   H     H_    0.767969 0.193203 0.627791 0.217544
H23   H     H_    0.639984 0.258046 0.761770 0.209280
H24   H     H_    0.691549 0.132043 0.837901 0.239556
C33   C     C_3   0.720151 0.605088 0.135967 -0.370874
C34   C     C_3   0.745612 0.710531 0.235225 -0.755550
H25   H     H_    0.747851 0.798579 0.178139 0.273352
H26   H     H_    0.699891 0.719105 0.323178 0.265491
H27   H     H_    0.809070 0.693168 0.278274 0.220261
H28   H     H_    0.722806 0.516571 0.191367 0.217432
H29   H     H_    0.769151 0.599265 0.052663 0.200882
C35   C     C_3   0.082725 0.740001 0.449343 -0.399052
C36   C     C_3   0.066489 0.867348 0.514307 -0.850253
H30   H     H_    0.997921 0.883930 0.526857 0.257371
H31   H     H_    0.097250 0.876096 0.618026 0.254300
H32   H     H_    0.093240 0.939063 0.445279 0.245227
H33   H     H_    0.151912 0.731404 0.434904 0.216712
H34   H     H_    0.053619 0.734933 0.344027 0.210421

loop_
_geom_bond_atom_site_label_1
_geom_bond_atom_site_label_2
_geom_bond_distance
_ccdc_geom_bond_type
C9    C15   1.465655 S    
C2    C16   1.423359 S    
N2    C28   1.360661 A    
C6    H4    1.113317 S    
H1    C10   1.113290 S    
C34   H27   1.109482 S    
Cu1   N2    2.021790 S    
Cu1   Cu2   2.691449 S    
C27   H16   1.079902 S    
Cu1   O7    1.922859 S    
C10   C11   1.547264 S    
C7    H6    1.112994 S    
C23   N3    1.467419 S    
C12   C13   1.562135 S    
C34   H26   1.110432 S    
O4    C2    1.295044 A    
O7    C4    1.293145 A    
C5    C9    1.552974 S    
C31   H24   1.109232 S    
C35   H33   1.110058 S    
C13   H7    1.114808 S    
C28   C29   1.475274 S    
C4    C8    1.421374 S    
C32   H21   1.109266 S    
O5    C3    1.297076 A    
C17   C22   1.352738 A    
N3    O10   1.301633 A    
C31   C32   1.534133 S    
C36   H30   1.109743 S    
C6    C7    1.548492 S    
N4    O12   1.301347 A    
C33   H28   1.108391 S    
C6    H3    1.111676 S    
C30   H19   1.113912 S    
C19   C20   1.405170 A    
C12   H8    1.113381 S    
C11   C14   1.461287 S    
C20   C21   1.415346 A    
O3    Cu1   1.925678 S    
C5    H9    1.113254 S    
C30   C33   1.549457 S    
C27   N2    1.369185 A    
C9    C13   1.568593 S    
C26   H15   1.079696 S    
C7    C11   1.549650 S    
C24   H14   1.113216 S    
C34   H25   1.110908 S    
C23   N4    1.468757 S    
O3    C2    1.295781 A    
C18   C19   1.407699 A    
C33   H29   1.110989 S    
C5    C10   1.547994 S    
C31   H23   1.111102 S    
C22   C23   1.510593 S    
C25   C30   1.508357 S    
C26   C27   1.418600 A    
C32   H22   1.110555 S    
C5    H2    1.113505 S    
C33   C34   1.527438 S    
N3    O9    1.301097 A    
C15   C16   1.199549 T    
Cu2   O8    1.925675 S    
N1    C26   1.369789 A    
C17   C24   1.490999 S    
C10   H10   1.113249 S    
C19   H12   1.083142 S    
C36   H31   1.110734 S    
O8    C4    1.296637 A    
C35   C36   1.529734 S    
C20   H13   1.083220 S    
Cu2   N1    2.022533 S    
C24   C31   1.552998 S    
C21   C22   1.394021 A    
C6    C9    1.551498 S    
Cu1   O5    1.975057 S    
C23   C24   1.555172 S    
O1    Cu1   1.967118 S    
O2    Cu2   1.975057 S    
C29   H18   1.100010 S    
O6    C3    1.293234 A    
O4    Cu2   1.922862 S    
C25   C28   1.412129 A    
C7    H5    1.113169 S    
O2    C1    1.291917 A    
C13   C35   1.553669 S    
C29   C30   1.521969 S    
C17   C18   1.381758 A    
C12   H11   1.112835 S    
C35   H34   1.111276 S    
N4    O11   1.302195 A    
C32   H20   1.106517 S    
C8    C14   1.198289 T    
C29   H17   1.111141 S    
C1    C18   1.436156 S    
C36   H32   1.110493 S    
Cu2   O6    1.967118 S    
C25   N1    1.372761 A    
C11   C12   1.548764 S    
O1    C1    1.292740 A    
C3    C21   1.447225 S    
