data_mof_unit_48135.cif
_audit_creation_date              2012-12-10T17:19:27-0500
_audit_creation_method            fapswitch 2.2
_symmetry_space_group_name_H-M    P1
_symmetry_Int_Tables_number       1
_space_group_crystal_system       triclinic
_cell_length_a                    15.077313
_cell_length_b                    10.859584
_cell_length_c                    9.572192
_cell_angle_alpha                 89.774889
_cell_angle_beta                  89.890418
_cell_angle_gamma                 92.561542
_cell_volume                      1565.70548561

loop_
_atom_site_label
_atom_site_type_symbol
_atom_type_description
_atom_site_fract_x
_atom_site_fract_y
_atom_site_fract_z
_atom_type_partial_charge
C1    C     C_R   0.507319 0.262782 0.501112 0.834877
C2    C     C_R   0.907341 0.512802 0.626105 0.125001
C3    C     C_R   0.952678 0.476322 0.245903 -0.307167
C4    C     C_R   0.045441 0.472934 0.244934 0.489488
C5    C     C_R   0.092706 0.486847 0.371266 0.001291
C6    C     C_R   0.046438 0.499850 0.498503 -0.002482
C7    C     C_R   0.093075 0.512469 0.625801 0.128334
C8    C     C_R   0.046693 0.525447 0.751448 -0.221009
C9    C     C_R   0.954316 0.525266 0.751775 -0.213631
C10   C     C_R   0.185358 0.487001 0.373296 -0.226367
C11   C     C_R   0.231730 0.499545 0.499702 -0.087875
C12   C     C_R   0.328656 0.499600 0.500045 0.812940
C13   C     C_R   0.185403 0.511926 0.625475 -0.242233
C14   C     C_R   0.528763 0.114505 0.765287 -0.243699
C15   C     C_R   0.504196 0.053954 0.888369 -0.199061
C16   C     C_R   0.458509 0.939818 0.886393 0.530415
C17   C     C_R   0.445996 0.881441 0.755233 -0.269647
C18   C     C_R   0.480575 0.936729 0.630566 0.048233
C19   C     C_R   0.508519 0.061827 0.633815 0.039498
C20   C     C_R   0.516157 0.128289 0.505510 -0.234465
C21   C     C_R   0.522086 0.062932 0.379146 0.494422
C22   C     C_R   0.510167 0.935768 0.379526 -0.276274
C23   C     C_R   0.493965 0.737188 0.500510 0.810542
C24   C     C_R   0.489895 0.871492 0.503258 -0.175671
C25   C     C_R   0.617166 0.665122 0.143389 -0.143539
C26   C     C_R   0.673474 0.747150 0.070605 -0.202514
C27   C     C_R   0.673612 0.747111 0.926694 -0.203050
C28   C     C_R   0.617427 0.665077 0.854753 -0.142665
C29   C     C_R   0.557986 0.580811 0.924628 0.189471
C30   C     C_R   0.557838 0.580903 0.074392 0.193658
C31   C     C_R   0.444979 0.423025 0.074481 -0.044214
C32   C     C_R   0.444993 0.423068 0.926411 -0.093653
C33   C     C_R   0.671324 0.500513 0.499844 0.778386
C34   C     C_R   0.814956 0.512797 0.625582 -0.258954
C35   C     C_R   0.768197 0.501050 0.499455 -0.068823
C36   C     C_R   0.814205 0.489645 0.372952 -0.228212
C37   C     C_R   0.906599 0.488729 0.371849 0.033036
C38   C     C_R   0.953453 0.500300 0.498772 0.060597
Cu1   Cu    Cu3+1 0.499990 0.499990 0.640660 0.913738
Cu2   Cu    Cu3+1 0.500010 0.500010 0.359340 0.938007
H1    H     H_    0.779631 0.522331 0.723465 0.157011
H2    H     H_    0.567209 0.200194 0.775971 0.187503
H3    H     H_    0.518961 0.098317 0.986878 0.205677
H4    H     H_    0.407647 0.795855 0.748046 0.156514
H5    H     H_    0.518178 0.887506 0.281767 0.210355
H6    H     H_    0.399917 0.359974 0.130306 0.153098
H7    H     H_    0.623267 0.672174 0.253405 0.196962
H8    H     H_    0.717636 0.810892 0.126610 0.140408
H9    H     H_    0.717873 0.810838 0.870025 0.147318
H10   H     H_    0.623702 0.672297 0.744666 0.201130
H11   H     H_    0.778215 0.480551 0.275276 0.158089
H12   H     H_    0.399972 0.360017 0.871335 0.149523
H13   H     H_    0.916854 0.469082 0.147968 0.152904
H14   H     H_    0.221596 0.476421 0.276547 0.192500
H15   H     H_    0.221129 0.521348 0.723214 0.151089
H16   H     H_    0.081922 0.535826 0.849313 0.193355
H17   H     H_    0.919661 0.535097 0.850145 0.148607
N1    N     N_R   0.500860 0.501210 0.147910 -0.206635
N2    N     N_R   0.500890 0.501290 0.852040 -0.208832
O1    O     O_R   0.499990 0.319640 0.618810 -0.593036
O2    O     O_R   0.500000 0.319660 0.381240 -0.522765
O3    O     O_R   0.370250 0.499960 0.618800 -0.587819
O4    O     O_R   0.370260 0.499980 0.381230 -0.593009
O5    O     O_R   0.500000 0.680340 0.618760 -0.606778
O6    O     O_R   0.500010 0.680360 0.381190 -0.607966
O7    O     O_R   0.629740 0.500020 0.618770 -0.605952
O8    O     O_R   0.629750 0.500040 0.381200 -0.605377
O9    O     O_3   0.433532 0.891510 0.016979 -0.616222
C39   C     C_3   0.378510 0.782739 0.016233 0.062434
H18   H     H_    0.380939 0.743380 0.123440 0.190111
H19   H     H_    0.403760 0.709954 0.947955 0.133208
C40   C     C_3   0.281775 0.810869 0.984728 -0.411695
H20   H     H_    0.261372 0.887815 0.052137 0.237697
H21   H     H_    0.274873 0.839595 0.874010 0.208700
C41   C     C_3   0.219943 0.698390 0.012484 -0.834819
H22   H     H_    0.240835 0.618594 0.950309 0.249184
H23   H     H_    0.151046 0.719494 0.983092 0.259548
H24   H     H_    0.220845 0.673718 0.125149 0.268340
O10   O     O_3   0.090240 0.464176 0.119437 -0.603122
C42   C     C_3   0.084121 0.340542 0.074811 -0.379868
H25   H     H_    0.110018 0.277173 0.155335 0.168737
H26   H     H_    0.125622 0.332053 0.979792 0.191620
H27   H     H_    0.014720 0.312038 0.046390 0.172889
O11   O     O_3   0.538682 0.122449 0.253355 -0.561573
C43   C     C_3   0.631452 0.136083 0.234827 -0.321416
H28   H     H_    0.661629 0.044764 0.225428 0.150252
H29   H     H_    0.663489 0.190375 0.320971 0.155383
H30   H     H_    0.645160 0.187542 0.136225 0.180005

loop_
_geom_bond_atom_site_label_1
_geom_bond_atom_site_label_2
_ccdc_geom_bond_type
C8    C9    A    
C11   C13   A    
C35   C36   A    
C8    H16   S    
C7    C8    A    
C43   H28   S    
Cu1   O5    S    
C26   C27   A    
C29   C30   A    
Cu2   O4    S    
C18   C24   A    
C31   N1    A    
C36   C37   A    
C18   C19   A    
C42   H27   S    
C5    C6    A    
C15   C16   A    
C34   C35   A    
C39   H19   S    
C32   H12   S    
O9    C39   S    
C28   H10   S    
C29   N2    A    
C16   C17   A    
Cu2   O8    S    
C23   C24   S    
C6    C38   A    
C16   O9    S    
C25   H7    S    
C26   H8    S    
C14   H2    S    
C2    C34   A    
C21   C22   A    
C34   H1    S    
C40   C41   S    
C33   O7    A    
C43   H29   S    
Cu2   N1    S    
O11   C43   S    
C4    O10   S    
C42   H26   S    
C1    O1    A    
Cu1   Cu2   S    
C12   O4    A    
C40   H20   S    
C25   C26   A    
C31   H6    S    
Cu2   O2    S    
C39   C40   S    
C41   H22   S    
C37   C38   A    
C12   O3    A    
C2    C38   A    
C31   C32   A    
C21   O11   S    
C7    C13   A    
Cu1   N2    S    
C17   C18   A    
C41   H23   S    
C36   H11   S    
C40   H21   S    
C23   O5    A    
Cu2   O6    S    
Cu1   O7    S    
C22   C24   A    
C3    C4    A    
C33   O8    A    
C43   H30   S    
C25   C30   A    
Cu1   O3    S    
C28   C29   A    
C1    C20   S    
C14   C19   A    
C42   H25   S    
C1    O2    A    
C11   C12   S    
C6    C7    A    
C23   O6    A    
C19   C20   A    
C17   H4    S    
C15   H3    S    
C5    C10   A    
C3    H13   S    
Cu1   O1    S    
C30   N1    A    
C33   C35   S    
C9    H17   S    
C39   H18   S    
C10   H14   S    
C41   H24   S    
C10   C11   A    
O10   C42   S    
C4    C5    A    
C22   H5    S    
C20   C21   A    
C3    C37   A    
C27   C28   A    
C14   C15   A    
C32   N2    A    
C2    C9    A    
C27   H9    S    
C13   H15   S    
