data_mof_unit_31541.cif
_audit_creation_date              2012-12-11T15:11:51-0500
_audit_creation_method            fapswitch 2.2
_symmetry_space_group_name_H-M    P1
_symmetry_Int_Tables_number       1
_space_group_crystal_system       triclinic
_cell_length_a                    19.89818
_cell_length_b                    7.169841
_cell_length_c                    14.120436
_cell_angle_alpha                 89.999563
_cell_angle_beta                  103.093753
_cell_angle_gamma                 90.000834
_cell_volume                      1962.14114059

loop_
_atom_site_label
_atom_site_type_symbol
_atom_type_description
_atom_site_fract_x
_atom_site_fract_y
_atom_site_fract_z
_atom_type_partial_charge
O1    O     O_R   0.449830 0.506740 0.599960 -0.538552
O2    O     O_R   0.550170 0.006740 0.400040 -0.538581
O3    O     O_R   0.588980 0.179860 0.596720 -0.549552
O4    O     O_R   0.411020 0.679860 0.403280 -0.549544
C1    C     C_R   0.617850 0.343557 0.612482 0.745484
C2    C     C_R   0.382152 0.843556 0.387511 0.745427
O5    O     O_R   0.452740 0.177340 0.612040 -0.531771
O6    O     O_R   0.547260 0.677340 0.387960 -0.531744
O7    O     O_R   0.412960 0.002070 0.415460 -0.544596
O8    O     O_R   0.587040 0.502070 0.584540 -0.544552
C3    C     C_R   0.436163 0.345881 0.635915 0.700036
C4    C     C_R   0.563834 0.845883 0.364082 0.700075
O9    O     O_3   0.487110 0.337570 0.435490 -0.379755
O10   O     O_3   0.512890 0.837570 0.564510 -0.379733
V1    V     V_3+5 0.502390 0.064650 0.511970 1.505142
V2    V     V_3+5 0.497610 0.564650 0.488030 1.505202
C5    C     C_R   0.601515 0.877185 0.119344 -0.068779
C6    C     C_R   0.398477 0.377314 0.880647 -0.068777
H1    H     H_    0.509709 0.868750 0.173817 0.132229
H2    H     H_    0.490284 0.368878 0.826176 0.132230
H3    H     H_    0.570691 0.883745 0.045961 0.182036
H4    H     H_    0.429300 0.383939 0.954029 0.182036
C7    C     C_R   0.601597 0.855992 0.288262 -0.025801
C8    C     C_R   0.398397 0.355993 0.711732 -0.025795
C9    C     C_R   0.931348 0.876815 0.308782 -0.164836
C10   C     C_R   0.068646 0.376808 0.691208 -0.164858
C11   C     C_R   0.895999 0.895692 0.381902 0.384448
C12   C     C_R   0.103995 0.395689 0.618088 0.384473
C13   C     C_R   0.824262 0.893589 0.359933 -0.117024
C14   C     C_R   0.175732 0.393591 0.640057 -0.117014
C15   C     C_R   0.785500 0.875322 0.262685 0.005322
C16   C     C_R   0.214493 0.375338 0.737305 0.005304
C17   C     C_R   0.821674 0.868249 0.186059 -0.009430
C18   C     C_R   0.178319 0.368282 0.813931 -0.009413
C19   C     C_R   0.711809 0.870067 0.239957 0.057414
C20   C     C_R   0.288185 0.370090 0.760035 0.057425
C21   C     C_R   0.674419 0.876162 0.141327 0.044314
C22   C     C_R   0.325574 0.376256 0.858664 0.044321
C23   C     C_R   0.709660 0.879409 0.066157 0.274060
C24   C     C_R   0.290332 0.379531 0.933834 0.274078
C25   C     C_R   0.782240 0.870489 0.087933 0.121763
C26   C     C_R   0.217752 0.370565 0.912057 0.121751
C27   C     C_R   0.673515 0.856252 0.312612 -0.122311
C28   C     C_R   0.326479 0.356215 0.687382 -0.122304
C29   C     C_R   0.565656 0.868012 0.192292 -0.167516
C30   C     C_R   0.434337 0.368101 0.807701 -0.167500
C31   C     C_R   0.895900 0.863886 0.211766 -0.094645
C32   C     C_R   0.104093 0.363894 0.788225 -0.094628
H5    H     H_    0.697612 0.841045 0.388664 0.124843
H6    H     H_    0.302380 0.340934 0.611334 0.124788
H7    H     H_    0.987315 0.879824 0.327541 0.162464
H8    H     H_    0.012679 0.379808 0.672448 0.162446
H9    H     H_    0.800608 0.914076 0.420571 0.158741
H10   H     H_    0.199389 0.414084 0.579421 0.158768
C33   C     C_3   0.212107 0.659310 0.222523 -0.352002
C34   C     C_3   0.787933 0.159314 0.777382 -0.352072
H11   H     H_    0.171054 0.569333 0.238925 0.206267
H12   H     H_    0.829007 0.069480 0.760945 0.206250
H13   H     H_    0.229903 0.608049 0.160042 0.248182
H14   H     H_    0.770146 0.107874 0.839830 0.248169
C35   C     C_3   0.277375 0.652000 0.305575 -0.330272
C36   C     C_3   0.722671 0.152045 0.694309 -0.330352
H15   H     H_    0.313905 0.549114 0.285926 0.194075
H16   H     H_    0.686165 0.049004 0.713883 0.194020
H17   H     H_    0.263878 0.599878 0.373096 0.198607
H18   H     H_    0.736191 0.100149 0.626763 0.198627
H19   H     H_    0.154369 0.855004 0.336034 0.186097
H20   H     H_    0.845604 0.355236 0.663930 0.186085
C37   C     C_3   0.183787 0.951323 0.298597 -0.042143
C38   C     C_3   0.816201 0.451486 0.701423 -0.042104
C39   C     C_3   0.243408 0.959997 0.156722 0.073821
C40   C     C_3   0.756582 0.459837 0.843305 0.073800
C41   C     C_3   0.185841 0.860601 0.197486 -0.072962
C42   C     C_3   0.814165 0.360605 0.802505 -0.072954
H21   H     H_    0.234905 0.109956 0.161215 0.178528
H22   H     H_    0.765044 0.609819 0.838837 0.178552
C43   C     C_3   0.310269 0.849526 0.322164 -0.022661
C44   C     C_3   0.689735 0.349531 0.677828 -0.022645
C45   C     C_3   0.258827 0.974637 0.362745 0.098609
C46   C     C_3   0.741152 0.474852 0.637314 0.098570
C47   C     C_3   0.316004 0.927478 0.222292 -0.406552
C48   C     C_3   0.683990 0.427217 0.777744 -0.406653
H23   H     H_    0.345763 0.827374 0.187541 0.212661
H24   H     H_    0.654285 0.326913 0.812458 0.212741
H25   H     H_    0.345242 0.061232 0.231232 0.177817
H26   H     H_    0.654699 0.560871 0.768887 0.177846
H27   H     H_    0.275356 0.122458 0.360239 0.134640
H28   H     H_    0.724612 0.622630 0.639933 0.134670
O11   O     O_R   0.912980 0.203550 0.915410 -0.529811
O12   O     O_R   0.087020 0.703550 0.084590 -0.529822
O13   O     O_R   0.047270 0.535570 0.887960 -0.525527
O14   O     O_R   0.952730 0.035570 0.112040 -0.525523
C49   C     C_R   0.060419 0.367906 0.858926 0.737353
C50   C     C_R   0.939574 0.867905 0.141066 0.737385
O15   O     O_R   0.911030 0.532970 0.903270 -0.520887
O16   O     O_R   0.088970 0.032970 0.096730 -0.520892
O17   O     O_R   0.949820 0.708150 0.099970 -0.526860
O18   O     O_R   0.050180 0.208150 0.900030 -0.526853
C51   C     C_R   0.884935 0.364717 0.877811 0.736278
C52   C     C_R   0.115068 0.864717 0.122183 0.736264
O19   O     O_3   0.012900 0.375230 0.064480 -0.358800
O20   O     O_3   0.987100 0.875230 0.935520 -0.358796
V3    V     V_3+5 0.997610 0.648190 0.988040 1.611675
V4    V     V_3+5 0.002390 0.148190 0.011960 1.611682
Br1   Br    Br    0.260224 0.921928 0.499117 -0.562007
Br2   Br    Br    0.739738 0.422529 0.500904 -0.562084
I1    I     I_    0.244507 0.883509 0.008283 -0.350133
I2    I     I_    0.755519 0.383289 0.991741 -0.350110
I3    I     I_    0.128789 0.209326 0.297247 -0.344238
I4    I     I_    0.871220 0.709454 0.702807 -0.344178
Br3   Br    Br    0.657248 0.892753 0.931479 -0.598812
Br4   Br    Br    0.342742 0.392950 0.068510 -0.598845
Br5   Br    Br    0.946891 0.935695 0.512192 -0.415091
Br6   Br    Br    0.053103 0.435697 0.487799 -0.415058
I5    I     I_    0.825946 0.861129 0.965604 -0.319561
I6    I     I_    0.174044 0.361177 0.034383 -0.319617

loop_
_geom_bond_atom_site_label_1
_geom_bond_atom_site_label_2
_ccdc_geom_bond_type
C41   C52   S    
C14   C16   A    
C7    C29   A    
C39   I1    S    
C11   C13   A    
O1    C3    A    
C40   H22   S    
O2    C4    A    
C2    O7    A    
C45   H27   S    
C23   C25   A    
O5    C3    A    
C14   H10   S    
C4    C7    S    
O11   C51   A    
C16   C20   A    
C19   C21   A    
C5    C29   A    
C33   H13   S    
C44   C46   S    
O15   C51   A    
C46   Br2   S    
C3    C8    S    
C7    C27   A    
C45   Br1   S    
C35   H15   S    
C36   H16   S    
C38   I4    S    
C37   I3    S    
C40   I2    S    
C35   C43   S    
C18   C26   A    
C38   C42   S    
C15   C17   A    
C37   C41   S    
C19   C27   A    
C9    C31   A    
C10   C32   A    
C24   C26   A    
O6    V2    S    
C22   C24   A    
C46   H28   S    
C13   C15   A    
C25   I5    S    
C6    C30   A    
O12   C52   A    
C47   H23   S    
O15   V3    S    
C47   H25   S    
C43   C45   S    
C34   C42   S    
C32   C49   S    
C36   H18   S    
C38   C46   S    
C40   C42   S    
C39   C41   S    
C27   H5    S    
C2    C43   S    
C50   O17   A    
C48   H26   S    
C5    H3    S    
C34   H14   S    
H19   C37   S    
C16   C18   A    
O4    V2    S    
C9    H7    S    
C10   H8    S    
O13   C49   A    
C44   C48   S    
C43   C47   S    
O6    C4    A    
O14   C50   A    
O1    V2    S    
C5    C21   A    
O20   V4    S    
O2    V1    S    
O17   V3    S    
C12   Br6   S    
C11   Br5   S    
C26   I6    S    
O19   V4    S    
C48   H24   S    
C33   H11   S    
O11   V4    S    
C8    C28   A    
C34   C36   S    
C37   C45   S    
O4    C2    A    
C18   C32   A    
O3    V1    S    
C28   H6    S    
O16   V4    S    
C6    H4    S    
C36   C44   S    
O13   V3    S    
O3    C1    A    
H1    C29   S    
C42   C51   S    
C9    C11   A    
O16   C52   A    
C10   C12   A    
C8    C30   A    
C20   C22   A    
C6    C22   A    
C17   C25   A    
C12   C14   A    
C21   C23   A    
O8    V2    S    
C39   H21   S    
C23   Br3   S    
C24   Br4   S    
C13   H9    S    
C17   C31   A    
C33   C35   S    
O5    V1    S    
C31   C50   S    
C34   H12   S    
C15   C19   A    
O7    V1    S    
O20   V3    S    
C40   C48   S    
O12   V3    S    
C20   C28   A    
O14   V4    S    
C33   C41   S    
C35   H17   S    
C1    O8    A    
O19   V3    S    
O9    V2    S    
H20   C38   S    
O10   V1    S    
C1    C44   S    
C49   O18   A    
O18   V4    S    
H2    C30   S    
C39   C47   S    
