data_mof_unit_61188.cif
_audit_creation_date              2012-12-10T20:04:44-0500
_audit_creation_method            fapswitch 2.2
_symmetry_space_group_name_H-M    P1
_symmetry_Int_Tables_number       1
_space_group_crystal_system       triclinic
_cell_length_a                    38.551992
_cell_length_b                    32.087443
_cell_length_c                    21.323812
_cell_angle_alpha                 90.002459
_cell_angle_beta                  123.676245
_cell_angle_gamma                 89.99541
_cell_volume                      21951.6002744

loop_
_atom_site_label
_atom_site_type_symbol
_atom_type_description
_atom_site_fract_x
_atom_site_fract_y
_atom_site_fract_z
_atom_type_partial_charge
C1    C     C_R   0.919301 0.000005 0.419569 0.906480
C2    C     C_R   0.080699 0.000002 0.580424 0.906530
C3    C     C_R   0.419301 0.500005 0.419565 0.906478
C4    C     C_R   0.580699 0.500003 0.580432 0.906494
C5    C     C_3   0.000475 0.999980 0.689698 -0.013614
C6    C     C_3   0.999518 0.999970 0.310296 -0.013599
C7    C     C_3   0.500471 0.499984 0.689695 -0.013576
C8    C     C_3   0.499526 0.499977 0.310302 -0.013569
C9    C     C_R   0.728257 0.993282 0.172944 -0.182511
C10   C     C_R   0.271737 0.991012 0.826284 -0.182548
C11   C     C_R   0.228255 0.494650 0.172587 -0.182488
C12   C     C_R   0.771744 0.493633 0.827157 -0.182496
C13   C     C_R   0.706595 0.999857 0.207288 0.168224
C14   C     C_R   0.293404 0.999810 0.792644 0.168252
C15   C     C_R   0.206594 0.499879 0.207255 0.168215
C16   C     C_R   0.793406 0.499855 0.792721 0.168221
C17   C     C_R   0.728207 0.006415 0.285085 -0.180861
C18   C     C_R   0.271794 0.008572 0.715530 -0.180900
C19   C     C_R   0.228208 0.505097 0.285369 -0.180873
C20   C     C_R   0.771792 0.506059 0.714832 -0.180878
C21   C     C_R   0.771650 0.006423 0.328681 -0.188627
C22   C     C_R   0.228350 0.008574 0.671923 -0.188502
C23   C     C_R   0.271650 0.505107 0.328961 -0.188681
C24   C     C_R   0.728349 0.506065 0.671238 -0.188643
C25   C     C_R   0.793301 0.999869 0.294304 0.172176
C26   C     C_R   0.206697 0.999811 0.705608 0.172074
C27   C     C_R   0.293300 0.499893 0.294264 0.172228
C28   C     C_R   0.706699 0.499864 0.705706 0.172192
C29   C     C_R   0.771688 0.993287 0.216531 -0.184519
C30   C     C_R   0.228307 0.991013 0.782688 -0.184518
C31   C     C_R   0.271685 0.494656 0.216171 -0.184531
C32   C     C_R   0.728314 0.493637 0.783571 -0.184527
C33   C     C_1   0.662154 0.999907 0.162604 -0.071932
C34   C     C_1   0.337845 0.999882 0.837358 -0.071919
C35   C     C_1   0.162154 0.499918 0.162584 -0.071949
C36   C     C_1   0.837846 0.499906 0.837401 -0.071943
C37   C     C_1   0.837732 0.999943 0.338754 -0.072885
C38   C     C_1   0.162267 0.999912 0.661177 -0.072951
C39   C     C_1   0.337731 0.499953 0.338722 -0.072856
C40   C     C_1   0.662268 0.499935 0.661255 -0.072877
C41   C     C_1   0.875045 0.999986 0.375793 -0.189963
C42   C     C_1   0.124953 0.999973 0.624166 -0.189996
C43   C     C_1   0.375045 0.499988 0.375774 -0.189957
C44   C     C_1   0.624955 0.499979 0.624212 -0.189966
C45   C     C_R   0.000547 0.000001 0.622363 0.865181
C46   C     C_R   0.999443 0.999999 0.377627 0.865126
C47   C     C_R   0.500542 0.500002 0.622359 0.865155
C48   C     C_R   0.499455 0.500000 0.377638 0.865135
C49   C     C_1   0.624831 0.999948 0.125028 -0.177760
C50   C     C_1   0.375168 0.999938 0.874959 -0.177765
C51   C     C_1   0.124831 0.499952 0.125021 -0.177769
C52   C     C_1   0.875169 0.499947 0.874974 -0.177767
C53   C     C_R   0.000001 0.919340 0.000001 0.910525
C54   C     C_R   0.500001 0.419340 0.000001 0.910520
C55   C     C_R   0.999987 0.000042 0.878065 0.875270
C56   C     C_R   0.000015 0.000037 0.121938 0.875262
C57   C     C_R   0.499987 0.500045 0.878066 0.875266
C58   C     C_R   0.500013 0.500042 0.121935 0.875263
C59   C     C_R   0.999999 0.080767 0.999999 0.910398
C60   C     C_R   0.499999 0.580767 0.999999 0.910407
C61   C     C_R   0.500000 0.919500 0.999999 0.904575
C62   C     C_R   0.000000 0.419500 0.999999 0.904575
C63   C     C_R   0.580557 0.999992 0.080565 0.904801
C64   C     C_R   0.419443 0.999992 0.919434 0.904759
C65   C     C_R   0.080557 0.499992 0.080564 0.904817
C66   C     C_R   0.919443 0.499992 0.919435 0.904804
C67   C     C_R   0.500000 0.080612 0.000001 0.905372
C68   C     C_R   1.000000 0.580612 0.000001 0.905405
C69   C     C_R   0.495486 0.228269 0.052030 -0.182488
C70   C     C_R   0.504525 0.228264 0.947989 -0.182532
C71   C     C_R   0.996098 0.728269 0.052746 -0.182487
C72   C     C_R   0.003912 0.728264 0.947272 -0.182509
C73   C     C_R   0.500005 0.206632 0.000009 0.168441
C74   C     C_R   0.000004 0.706632 0.000009 0.168446
C75   C     C_R   0.003912 0.771696 0.947272 -0.184934
C76   C     C_R   0.996100 0.771701 0.052746 -0.184904
C77   C     C_R   0.504525 0.271696 0.947988 -0.184935
C78   C     C_R   0.495487 0.271701 0.052031 -0.184918
C79   C     C_3   0.018970 0.965025 0.748520 -0.190100
C80   C     C_3   0.981388 0.964827 0.251833 -0.190204
C81   C     C_3   0.519185 0.465145 0.748736 -0.189957
C82   C     C_3   0.480993 0.465044 0.251438 -0.190004
C83   C     C_R   0.000006 0.793332 0.000009 0.171841
C84   C     C_R   0.500007 0.293332 0.000009 0.171824
C85   C     C_1   0.500003 0.162197 0.000008 -0.071781
C86   C     C_1   0.000003 0.662197 0.000007 -0.071766
C87   C     C_1   0.000005 0.837763 0.000007 -0.074190
C88   C     C_1   0.500006 0.337764 0.000007 -0.074200
C89   C     C_1   0.000004 0.875078 0.000004 -0.189863
C90   C     C_1   0.500004 0.375079 0.000005 -0.189902
C91   C     C_1   0.500001 0.124880 0.000005 -0.178138
C92   C     C_1   0.000001 0.624880 0.000005 -0.178126
C93   C     C_R   0.493869 0.771841 0.937644 -0.182420
C94   C     C_R   0.506121 0.771844 0.062340 -0.182461
C95   C     C_R   0.992442 0.271841 0.936608 -0.182423
C96   C     C_R   0.007548 0.271844 0.063376 -0.182443
C97   C     C_R   0.499996 0.793478 0.999992 0.168355
C98   C     C_R   0.999996 0.293478 0.999992 0.168381
C99   C     C_R   0.007547 0.228412 0.063377 -0.184832
C100  C     C_R   0.992441 0.228409 0.936608 -0.184803
C101  C     C_R   0.506120 0.728412 0.062340 -0.184848
C102  C     C_R   0.493868 0.728409 0.937643 -0.184831
C103  C     C_R   0.999994 0.206777 0.999992 0.171898
C104  C     C_R   0.499994 0.706777 0.999992 0.171912
C105  C     C_1   0.499997 0.837913 0.999993 -0.071722
C106  C     C_1   0.999998 0.337913 0.999993 -0.071698
C107  C     C_3   0.039760 0.998701 0.810651 -0.158138
C108  C     C_3   0.960259 0.998292 0.189361 -0.158185
C109  C     C_3   0.539769 0.498949 0.810657 -0.158188
C110  C     C_3   0.460238 0.498745 0.189348 -0.158207
C111  C     C_1   0.999995 0.162344 0.999994 -0.074144
C112  C     C_1   0.499994 0.662344 0.999993 -0.074148
C113  C     C_1   0.999996 0.125029 0.999996 -0.190051
C114  C     C_1   0.499996 0.625029 0.999996 -0.190031
C115  C     C_1   0.499999 0.875231 0.999995 -0.177720
C116  C     C_1   0.999999 0.375231 0.999995 -0.177701
C117  C     C_3   0.000020 0.000009 0.810674 -0.001835
C118  C     C_3   0.999988 1.000000 0.189337 -0.001833
C119  C     C_3   0.500024 0.500014 0.810679 -0.001808
C120  C     C_3   0.499979 0.500008 0.189325 -0.001807
C121  C     C_3   0.979232 0.966213 0.749770 -0.182409
C122  C     C_3   0.021117 0.966415 0.250587 -0.182493
C123  C     C_3   0.479442 0.466090 0.749988 -0.182371
C124  C     C_3   0.520732 0.466186 0.250186 -0.182414
C125  C     C_3   0.961200 0.001275 0.690520 0.153041
C126  C     C_3   0.038784 0.001660 0.309480 0.153073
C127  C     C_3   0.461193 0.501039 0.690520 0.153037
C128  C     C_3   0.538801 0.501226 0.309479 0.153047
C129  C     C_3   0.981485 0.035081 0.752015 -0.181908
C130  C     C_3   0.018162 0.035257 0.247641 -0.181775
C131  C     C_3   0.481272 0.534970 0.751804 -0.181961
C132  C     C_3   0.518552 0.535056 0.248026 -0.181902
C133  C     C_3   0.021224 0.033650 0.750759 -0.188409
C134  C     C_3   0.978432 0.033428 0.248896 -0.188361
C135  C     C_3   0.521015 0.533783 0.750547 -0.188596
C136  C     C_3   0.478812 0.533672 0.249283 -0.188569
H1    H     H_    0.072071 0.997636 0.861614 0.151109
H2    H     H_    0.927963 0.996899 0.138405 0.151067
H3    H     H_    0.572088 0.498084 0.861623 0.151066
H4    H     H_    0.427925 0.497719 0.138384 0.151049
H5    H     H_    0.788305 0.011544 0.388890 0.140852
H6    H     H_    0.211695 0.015415 0.612248 0.140749
H7    H     H_    0.288305 0.509184 0.389417 0.140898
H8    H     H_    0.711693 0.510911 0.610958 0.140868
H9    H     H_    0.993069 0.788376 0.093665 0.138070
H10   H     H_    0.006943 0.788367 0.906352 0.138048
H11   H     H_    0.491982 0.288376 0.092394 0.138092
H12   H     H_    0.508031 0.288367 0.907625 0.138075
H13   H     H_    0.491979 0.211599 0.092392 0.141350
H14   H     H_    0.508031 0.211590 0.907627 0.141324
H15   H     H_    0.993066 0.711599 0.093663 0.141338
H16   H     H_    0.006943 0.711591 0.906354 0.141320
H17   H     H_    0.986581 0.211735 0.887429 0.137934
H18   H     H_    0.013407 0.211741 0.112556 0.137906
H19   H     H_    0.489115 0.711735 0.889268 0.137926
H20   H     H_    0.510873 0.711741 0.110716 0.137907
H21   H     H_    0.489116 0.788511 0.889268 0.141354
H22   H     H_    0.510875 0.788517 0.110716 0.141329
H23   H     H_    0.986582 0.288511 0.887428 0.141328
H24   H     H_    0.013410 0.288516 0.112557 0.141309
H25   H     H_    0.034393 0.936586 0.745514 0.149955
H26   H     H_    0.966253 0.936235 0.255117 0.150172
H27   H     H_    0.534780 0.436802 0.745899 0.149885
H28   H     H_    0.465541 0.436624 0.254411 0.149994
H29   H     H_    0.961994 0.938884 0.751108 0.129931
H30   H     H_    0.038636 0.939261 0.249534 0.130163
H31   H     H_    0.462375 0.438656 0.751501 0.129821
H32   H     H_    0.537940 0.438837 0.248813 0.129937
H33   H     H_    0.966071 0.063484 0.755176 0.128389
H34   H     H_    0.033289 0.063812 0.244197 0.128192
H35   H     H_    0.465686 0.563279 0.754791 0.128516
H36   H     H_    0.533995 0.563441 0.244900 0.128417
H37   H     H_    0.038466 0.061007 0.749530 0.149302
H38   H     H_    0.960910 0.060608 0.249848 0.149057
H39   H     H_    0.538088 0.561245 0.749149 0.149331
H40   H     H_    0.461599 0.561049 0.250545 0.149209
H41   H     H_    0.788378 0.988205 0.189749 0.138137
H42   H     H_    0.211615 0.984216 0.808931 0.138212
H43   H     H_    0.288374 0.490614 0.189140 0.138097
H44   H     H_    0.711625 0.488828 0.810425 0.138123
H45   H     H_    0.711608 0.988193 0.112707 0.141317
H46   H     H_    0.288384 0.984210 0.885988 0.141297
H47   H     H_    0.211603 0.490602 0.112103 0.141330
H48   H     H_    0.788396 0.488820 0.887466 0.141326
H49   H     H_    0.711513 0.011518 0.311854 0.141820
H50   H     H_    0.288491 0.015398 0.689308 0.141765
H51   H     H_    0.211516 0.509157 0.312390 0.141835
H52   H     H_    0.788484 0.510888 0.687991 0.141819
O1    O     O_R   0.939010 0.034440 0.439030 -0.617196
O2    O     O_R   0.060990 0.034440 0.560970 -0.617211
O3    O     O_R   0.439010 0.534440 0.439030 -0.617177
O4    O     O_R   0.560990 0.534440 0.560970 -0.617179
O5    O     O_R   0.561000 0.000050 0.113470 -0.616311
O6    O     O_R   0.439000 0.000050 0.886530 -0.616289
O7    O     O_R   0.061000 0.500050 0.113470 -0.616352
O8    O     O_R   0.939000 0.500050 0.886530 -0.616343
O9    O     O_R   0.561000 0.999980 0.008430 -0.616251
O10   O     O_R   0.439000 0.999980 0.991570 -0.616225
O11   O     O_R   0.061000 0.499980 0.008430 -0.616237
O12   O     O_R   0.939000 0.499980 0.991570 -0.616228
O13   O     O_R   0.500000 0.061040 0.052440 -0.616381
O14   O     O_R   0.500000 0.061040 0.947560 -0.616444
O15   O     O_R   1.000000 0.561040 0.052440 -0.616402
O16   O     O_R   1.000000 0.561040 0.947560 -0.616432
O17   O     O_R   0.939030 0.965580 0.439000 -0.617000
O18   O     O_R   0.060970 0.965580 0.561000 -0.617024
O19   O     O_R   0.439030 0.465580 0.439000 -0.616999
O20   O     O_R   0.560970 0.465580 0.561000 -0.617007
O21   O     O_R   0.000010 0.034440 0.593030 -0.627529
O22   O     O_R   0.999990 0.034440 0.406970 -0.627607
O23   O     O_R   0.500010 0.534440 0.593030 -0.627531
O24   O     O_R   0.499990 0.534440 0.406970 -0.627568
O25   O     O_R   0.000020 0.965580 0.593000 -0.627350
O26   O     O_R   0.999980 0.965580 0.407000 -0.627301
O27   O     O_R   0.500020 0.465580 0.593000 -0.627342
O28   O     O_R   0.499980 0.465580 0.407000 -0.627316
O29   O     O_R   0.034440 0.939060 0.034360 -0.617312
O30   O     O_R   0.965560 0.939060 0.965640 -0.617344
O31   O     O_R   0.534440 0.439060 0.034360 -0.617308
O32   O     O_R   0.465560 0.439060 0.965640 -0.617325
O33   O     O_R   0.034440 0.000050 0.941370 -0.627056
O34   O     O_R   0.965560 0.000050 0.058630 -0.627053
O35   O     O_R   0.534440 0.500050 0.941370 -0.627085
O36   O     O_R   0.465560 0.500050 0.058630 -0.627086
O37   O     O_R   0.965570 0.000070 0.872530 -0.632104
O38   O     O_R   0.034430 0.000070 0.127470 -0.632078
O39   O     O_R   0.465570 0.500070 0.872530 -0.632098
O40   O     O_R   0.534430 0.500070 0.127470 -0.632087
O41   O     O_R   0.034450 0.061050 0.034440 -0.617141
O42   O     O_R   0.965550 0.061050 0.965560 -0.617129
O43   O     O_R   0.534450 0.561050 0.034440 -0.617147
O44   O     O_R   0.465550 0.561050 0.965560 -0.617145
O45   O     O_R   0.500030 0.939050 0.052570 -0.616243
O46   O     O_R   0.499970 0.939050 0.947430 -0.616183
O47   O     O_R   0.000030 0.439050 0.052570 -0.616217
O48   O     O_R   0.999970 0.439050 0.947430 -0.616187
Zn1   Zn    Zn3+2 0.000000 0.045990 0.500000 0.948398
Zn2   Zn    Zn3+2 0.500000 0.545990 0.500000 0.948454
Zn3   Zn    Zn3+2 0.000000 0.954030 0.500000 0.948467
Zn4   Zn    Zn3+2 0.500000 0.454030 0.500000 0.948509
Zn5   Zn    Zn3+2 0.045990 0.000050 0.045940 0.946799
Zn6   Zn    Zn3+2 0.954010 0.000050 0.954060 0.946751
Zn7   Zn    Zn3+2 0.545990 0.500050 0.045940 0.946744
Zn8   Zn    Zn3+2 0.454010 0.500050 0.954060 0.946716
Zn9   Zn    Zn3+2 0.500020 0.000060 0.070120 0.964189
Zn10  Zn    Zn3+2 0.499980 0.000060 0.929880 0.964185
Zn11  Zn    Zn3+2 0.000020 0.500060 0.070120 0.964152
Zn12  Zn    Zn3+2 0.999980 0.500060 0.929880 0.964152
C137  C     C_3   0.917112 0.002742 0.619339 -0.446497
C138  C     C_3   0.884328 0.003604 0.638627 -0.317238
C139  C     C_3   0.840395 0.005317 0.567310 -0.890786
H53   H     H_    0.836369 0.033950 0.534620 0.259663
H54   H     H_    0.834440 0.977521 0.531593 0.262265
H55   H     H_    0.817244 0.005785 0.582797 0.250991
H56   H     H_    0.887288 0.975200 0.671108 0.223664
H57   H     H_    0.889264 0.031383 0.673832 0.223503
H58   H     H_    0.914077 0.031059 0.586626 0.204140
H59   H     H_    0.912304 0.974859 0.584445 0.202487
C140  C     C_3   0.082837 0.003576 0.380698 -0.446380
C141  C     C_3   0.115660 0.004714 0.361520 -0.317705
C142  C     C_3   0.159545 0.006936 0.432888 -0.889988
H60   H     H_    0.163240 0.035668 0.465124 0.259283
H61   H     H_    0.165762 0.979268 0.469016 0.262734
H62   H     H_    0.182731 0.007564 0.417490 0.250918
H63   H     H_    0.113034 0.976237 0.329459 0.223690
H64   H     H_    0.110454 0.032395 0.325946 0.223494
H65   H     H_    0.085566 0.031945 0.413063 0.204396
H66   H     H_    0.087895 0.975767 0.415902 0.202246
C143  C     C_3   0.417087 0.502228 0.619358 -0.446560
C144  C     C_3   0.384324 0.502930 0.638701 -0.317005
C145  C     C_3   0.340367 0.504319 0.567410 -0.891153
H67   H     H_    0.336141 0.532878 0.534419 0.259919
H68   H     H_    0.334576 0.476435 0.531972 0.261970
H69   H     H_    0.317234 0.504701 0.582942 0.251022
H70   H     H_    0.387487 0.474581 0.671457 0.223657
H71   H     H_    0.389089 0.530776 0.673658 0.223522
H72   H     H_    0.413872 0.530508 0.586427 0.203986
H73   H     H_    0.412433 0.474298 0.584663 0.202640
C146  C     C_3   0.582894 0.502636 0.380654 -0.446520
C147  C     C_3   0.615671 0.503471 0.361350 -0.317159
C148  C     C_3   0.659610 0.505111 0.432660 -0.890883
H74   H     H_    0.663676 0.533723 0.465427 0.259743
H75   H     H_    0.665536 0.477291 0.468306 0.262173
H76   H     H_    0.682756 0.505570 0.417160 0.251001
H77   H     H_    0.612671 0.475083 0.328801 0.223669
H78   H     H_    0.610767 0.531269 0.326206 0.223517
H79   H     H_    0.585961 0.530945 0.413415 0.204116
H80   H     H_    0.587676 0.474743 0.415506 0.202517

loop_
_geom_bond_atom_site_label_1
_geom_bond_atom_site_label_2
_ccdc_geom_bond_type
C100  H17   S    
C145  H69   S    
C83   C87   S    
C136  H40   S    
C122  C126  S    
C49   C63   S    
C64   O10   A    
C124  H32   S    
C8    C136  S    
C60   O43   A    
C50   C64   S    
C14   C18   A    
C60   C114  S    
C7    C127  S    
C70   H14   S    
C109  C119  S    
C137  H59   S    
C78   H11   S    
C57   O39   A    
O1    Zn1   S    
O20   Zn4   S    
C48   O28   A    
C110  H4    S    
C85   C91   T    
C95   C98   A    
C79   C107  S    
C54   O31   A    
C12   H48   S    
C11   H47   S    
O33   Zn5   S    
C148  H76   S    
C15   C19   A    
C79   C121  S    
C3    C43   S    
C137  C138  S    
C1    O1    A    
C82   H28   S    
C126  C140  S    
C81   C123  S    
C122  H30   S    
C82   C110  S    
C129  H33   S    
C118  C130  S    
O38   Zn5   S    
O21   Zn1   S    
C54   C90   S    
C47   O23   A    
C118  C122  S    
C71   C76   A    
C132  C136  S    
C139  H54   S    
C68   O16   A    
C28   C40   S    
O10   Zn9   S    
C33   C49   T    
C145  H67   S    
C65   O7    A    
C96   C99   A    
O9    Zn10  S    
C53   O30   A    
C61   O45   A    
C107  C117  S    
O12   Zn11  S    
C103  C111  S    
C51   C65   S    
C15   C35   S    
O17   Zn3   S    
C9    C13   A    
C147  H77   S    
C117  C121  S    
C140  H66   S    
C25   C37   S    
C121  C125  S    
C65   O11   A    
C110  C136  S    
C8    C128  S    
C71   H15   S    
C12   C16   A    
C94   C101  A    
C17   H49   S    
C46   O26   A    
C64   O6    A    
C108  C134  S    
C61   C115  S    
C45   O25   A    
C146  C147  S    
C63   O5    A    
C69   C73   A    
O18   Zn3   S    
C2    O18   A    
C23   C27   A    
C5    C79   S    
C117  C129  S    
C35   C51   T    
C128  C146  S    
C55   C117  S    
C36   C52   T    
C6    C46   S    
C59   C113  S    
C67   O13   A    
C57   C119  S    
C123  H31   S    
C94   C97   A    
O3    Zn2   S    
O30   Zn6   S    
O41   Zn5   S    
O5    Zn9   S    
C11   C31   A    
C94   H22   S    
C18   C22   A    
C143  C144  S    
O8    Zn12  S    
C70   C77   A    
C53   O29   A    
C61   O46   A    
C81   H27   S    
C23   H7    S    
C69   C78   A    
C130  C134  S    
O2    Zn1   S    
C11   C15   A    
C124  C128  S    
C79   H25   S    
C72   C75   A    
C48   O24   A    
C56   O34   A    
C128  C132  S    
C76   C83   A    
C82   C124  S    
C120  C132  S    
C4    O20   A    
C147  H78   S    
C75   H10   S    
C25   C29   A    
O14   Zn10  S    
C7    C135  S    
C9    C29   A    
C34   C50   T    
C62   O48   A    
C66   O12   A    
C27   C39   S    
O28   Zn4   S    
O22   Zn1   S    
C144  H71   S    
C28   C32   A    
O13   Zn9   S    
C109  C135  S    
C6    C126  S    
C72   C74   A    
C99   C103  A    
C10   C14   A    
C110  C120  S    
O39   Zn8   S    
C142  H61   S    
C58   O36   A    
C95   C100  A    
O36   Zn8   S    
C139  H55   S    
C80   C122  S    
C99   H18   S    
C4    C44   S    
C77   C84   A    
C72   H16   S    
O37   Zn6   S    
C46   O22   A    
C27   C31   A    
C18   H50   S    
C100  C103  A    
C45   O21   A    
C63   O9    A    
C106  C116  T    
C7    C47   S    
C107  H1    S    
C19   C23   A    
C8    C48   S    
C13   C33   S    
O42   Zn6   S    
C3    O3    A    
C2    C42   S    
C20   H52   S    
O32   Zn8   S    
C31   H43   S    
C10   C30   A    
O24   Zn2   S    
C119  C131  S    
O48   Zn12  S    
C96   C98   A    
C130  H34   S    
C40   C44   T    
C16   C20   A    
C131  H35   S    
C22   H6    S    
C70   C73   A    
C67   C91   S    
C30   H42   S    
O23   Zn2   S    
C143  H72   S    
C111  C113  T    
C74   C86   S    
C102  C104  A    
O31   Zn7   S    
C108  C118  S    
C80   H26   S    
C142  H62   S    
O16   Zn12  S    
O19   Zn4   S    
C5    C133  S    
C129  C133  S    
C112  C114  T    
O11   Zn12  S    
C1    C41   S    
C7    C81   S    
C81   C109  S    
C76   H9    S    
C26   C30   A    
C101  C104  A    
C87   C89   T    
C22   C26   A    
C6    C80   S    
C10   H46   S    
C95   H23   S    
C58   C120  S    
C77   H12   S    
C140  C141  S    
C59   O41   A    
C93   C97   A    
C123  C127  S    
C75   C83   A    
C52   C66   S    
O47   Zn11  S    
C104  C112  S    
C73   C85   S    
C138  H56   S    
C145  H68   S    
C141  C142  S    
C21   C25   A    
C88   C90   T    
C62   O47   A    
C134  H38   S    
C138  H57   S    
C96   H24   S    
C60   O44   A    
C56   C118  S    
C144  H70   S    
C105  C115  T    
C26   C38   S    
C24   C28   A    
C137  H58   S    
O44   Zn8   S    
O25   Zn3   S    
C98   C106  S    
C93   C102  A    
C14   C34   S    
C71   C74   A    
C66   O8    A    
C47   O27   A    
C54   O32   A    
O4    Zn2   S    
C119  C123  S    
C139  H53   S    
C148  H75   S    
C2    O2    A    
C80   C108  S    
O35   Zn7   S    
C101  H20   S    
C55   O33   A    
C109  H3    S    
C69   H13   S    
C146  H80   S    
C55   O37   A    
C127  C131  S    
C4    O4    A    
O26   Zn3   S    
C148  H74   S    
C97   C105  S    
C147  C148  S    
C107  C133  S    
C67   O14   A    
C86   C92   T    
C16   C36   S    
C108  H2    S    
C93   H21   S    
O45   Zn9   S    
O46   Zn10  S    
C142  H60   S    
C84   C88   S    
C5    C45   S    
C56   O38   A    
C24   H8    S    
C125  C137  S    
C3    O19   A    
C68   C92   S    
C121  H29   S    
C143  H73   S    
C127  C143  S    
C1    O17   A    
O40   Zn7   S    
C37   C41   T    
O34   Zn6   S    
C19   H51   S    
O29   Zn5   S    
C78   C84   A    
C138  C139  S    
C140  H65   S    
C62   C116  S    
C9    H45   S    
C21   H5    S    
C13   C17   A    
C131  C135  S    
C38   C42   T    
C125  C129  S    
O43   Zn7   S    
C8    C82   S    
O15   Zn11  S    
O7    Zn11  S    
C39   C43   T    
C6    C134  S    
O6    Zn10  S    
C5    C125  S    
C135  H39   S    
C126  C130  S    
C144  C145  S    
C32   H44   S    
C58   O40   A    
C29   H41   S    
O27   Zn4   S    
C132  H36   S    
C53   C89   S    
C57   O35   A    
C141  H63   S    
C59   O42   A    
C141  H64   S    
C102  H19   S    
C20   C24   A    
C12   C32   A    
C120  C124  S    
C146  H79   S    
C133  H37   S    
C68   O15   A    
C17   C21   A    
