data_mof_unit_59618.cif
_audit_creation_date              2012-12-10T19:33:15-0500
_audit_creation_method            fapswitch 2.2
_symmetry_space_group_name_H-M    P1
_symmetry_Int_Tables_number       1
_space_group_crystal_system       triclinic
_cell_length_a                    27.658442
_cell_length_b                    15.74007
_cell_length_c                    14.940196
_cell_angle_alpha                 89.807151
_cell_angle_beta                  90.101065
_cell_angle_gamma                 90.079032
_cell_volume                      6504.09868106

loop_
_atom_site_label
_atom_site_type_symbol
_atom_type_description
_atom_site_fract_x
_atom_site_fract_y
_atom_site_fract_z
_atom_type_partial_charge
C1    C     C_R   0.500009 0.337563 0.500144 0.889087
C2    C     C_R   0.499999 0.662405 0.499876 0.894381
C3    C     C_R   0.101268 0.493919 0.454800 -0.122258
C4    C     C_R   0.898808 0.494461 0.459946 -0.121974
C5    C     C_R   0.125396 0.418044 0.477654 0.020994
C6    C     C_R   0.875127 0.569783 0.485539 0.019910
C7    C     C_R   0.098982 0.343312 0.491634 -0.151468
C8    C     C_R   0.901851 0.643981 0.500253 -0.150845
C9    C     C_R   0.127751 0.569528 0.441454 -0.228788
C10   C     C_R   0.872015 0.419410 0.445839 -0.227546
C11   C     C_R   0.353027 0.490827 0.498056 -0.170864
C12   C     C_R   0.646974 0.504983 0.498649 -0.168796
C13   C     C_R   0.974036 0.416855 0.437051 -0.054373
C14   C     C_R   0.025673 0.571805 0.437287 -0.054760
C15   C     C_R   0.975446 0.571774 0.455020 0.108163
C16   C     C_R   0.024592 0.416475 0.451892 0.108456
C17   C     C_R   0.949424 0.494281 0.450228 0.041626
C18   C     C_R   0.050516 0.494130 0.447426 0.041829
C19   C     C_R   0.946925 0.343158 0.414449 0.060128
C20   C     C_R   0.052315 0.646099 0.414746 0.060054
C21   C     C_R   0.896543 0.342601 0.426970 0.515017
C22   C     C_R   0.102855 0.646651 0.425044 0.514236
C23   C     C_R   0.405828 0.498317 0.499846 0.931201
C24   C     C_R   0.594135 0.501162 0.499985 0.930732
C25   C     C_R   0.049296 0.342492 0.478737 -0.235083
C26   C     C_R   0.951302 0.645041 0.484906 -0.234985
C27   C     C_3   0.533017 0.972315 0.554070 0.093858
C28   C     C_3   0.463598 0.028281 0.442492 0.078281
C29   C     C_3   0.542116 0.028816 0.471127 -0.301131
C30   C     C_3   0.454422 0.971012 0.525712 -0.394548
C31   C     C_1   0.499417 0.248854 0.500440 -0.176659
C32   C     C_1   0.499726 0.751048 0.499544 -0.195213
C33   C     C_3   0.489499 0.026716 0.580688 0.548951
C34   C     C_3   0.507249 0.972615 0.415620 0.545459
C35   C     C_3   0.498190 0.083000 0.498824 0.020868
C36   C     C_3   0.498805 0.916793 0.498424 0.002384
C37   C     C_1   0.498820 0.173718 0.500146 0.037442
C38   C     C_1   0.499349 0.826146 0.499087 0.001163
C39   C     C_3   0.514069 0.423377 0.970447 0.551597
C40   C     C_3   0.488248 0.575786 0.029074 0.562205
C41   C     C_3   0.545599 0.481383 0.031050 0.087251
C42   C     C_3   0.456734 0.518137 0.969836 0.111661
C43   C     C_3   0.469238 0.440970 0.030154 -0.297331
C44   C     C_3   0.533090 0.558752 0.969850 -0.387179
C45   C     C_R   0.175499 0.419259 0.488139 0.492992
C46   C     C_R   0.825119 0.568716 0.497087 0.492968
C47   C     C_3   0.500809 0.499870 0.089792 -0.056569
C48   C     C_3   0.501014 0.499852 0.910182 -0.072653
C49   C     C_1   0.500240 0.500084 0.189869 0.145266
C50   C     C_1   0.500480 0.499930 0.810127 0.114838
C51   C     C_R   0.178542 0.564589 0.442201 0.605429
C52   C     C_R   0.821241 0.424772 0.447682 0.603765
C53   C     C_R   0.273877 0.539819 0.544887 0.473779
C54   C     C_R   0.724683 0.449418 0.546383 0.478660
C55   C     C_R   0.324361 0.543926 0.552683 0.010601
C56   C     C_R   0.674095 0.447690 0.551681 0.003573
C57   C     C_R   0.331113 0.434448 0.435982 0.102524
C58   C     C_R   0.670352 0.561450 0.438399 0.095581
C59   C     C_R   0.281002 0.439671 0.420523 0.178476
C60   C     C_R   0.720506 0.553889 0.424793 0.177870
C61   C     C_R   0.252562 0.490560 0.477156 0.115459
C62   C     C_R   0.747556 0.500092 0.481493 0.117127
H1    H     H_    0.559303 0.606384 0.944331 0.164401
H2    H     H_    0.443280 0.392386 0.054721 0.169977
H3    H     H_    0.116614 0.284969 0.512108 0.186782
H4    H     H_    0.884605 0.701823 0.522780 0.186971
H5    H     H_    0.030259 0.284281 0.493983 0.160552
H6    H     H_    0.970662 0.702803 0.500397 0.160300
H7    H     H_    0.577517 0.054307 0.448537 0.176807
H8    H     H_    0.419116 0.944494 0.547340 0.169035
N1    N     N_R   0.200994 0.491256 0.468284 -0.329810
N2    N     N_R   0.799201 0.497796 0.475259 -0.330894
N3    N     N_1   0.500020 0.500000 0.268010 -0.095568
N4    N     N_1   0.499980 0.500000 0.731990 -0.099625
O1    O     O_R   0.500000 0.376780 0.574460 -0.600244
O2    O     O_R   0.500000 0.623220 0.425540 -0.609975
O3    O     O_R   0.500010 0.376780 0.425520 -0.617499
O4    O     O_R   0.499990 0.623220 0.574480 -0.614899
O5    O     O_R   0.428750 0.500010 0.574460 -0.613129
O6    O     O_R   0.571250 0.499990 0.425540 -0.607347
O7    O     O_R   0.428760 0.500020 0.425520 -0.606963
O8    O     O_R   0.571240 0.499980 0.574480 -0.618956
O9    O     O_2   0.198777 0.349051 0.517257 -0.581740
O10   O     O_2   0.802294 0.638231 0.528527 -0.579965
O11   O     O_2   0.793853 0.358664 0.420561 -0.508890
O12   O     O_2   0.205564 0.631605 0.416024 -0.511923
Zn1   Zn    Zn3+2 0.499990 0.500000 0.599450 0.969624
Zn2   Zn    Zn3+2 0.500010 0.500000 0.400550 0.978953
C63   C     C_3   0.360720 0.368635 0.386129 -0.819068
H9    H     H_    0.340415 0.308132 0.379637 0.234200
H10   H     H_    0.370055 0.392840 0.318446 0.245763
H11   H     H_    0.394289 0.351543 0.422652 0.229329
C64   C     C_3   0.642298 0.629576 0.388261 -0.807727
H12   H     H_    0.663298 0.689614 0.385116 0.237970
H13   H     H_    0.634210 0.607767 0.319242 0.243871
H14   H     H_    0.608083 0.646516 0.422382 0.230520
C65   C     C_3   0.572230 0.939838 0.616906 -0.863471
H15   H     H_    0.590226 0.994388 0.650065 0.251377
H16   H     H_    0.556100 0.897714 0.668542 0.228037
H17   H     H_    0.599394 0.903474 0.578201 0.251699
C66   C     C_3   0.422555 0.067043 0.387800 -0.915556
H18   H     H_    0.400307 0.016183 0.357109 0.245334
H19   H     H_    0.399087 0.105290 0.432354 0.258568
H20   H     H_    0.437478 0.109310 0.335035 0.240202
O13   O     O_3   0.523597 0.937731 0.333761 -0.640434
C67   C     C_3   0.486235 0.928934 0.270042 0.085408
H21   H     H_    0.503770 0.914950 0.204939 0.167228
H22   H     H_    0.466531 0.989179 0.258946 0.146192
C68   C     C_3   0.452216 0.854645 0.292263 -0.370260
H23   H     H_    0.473655 0.795273 0.298936 0.251099
H24   H     H_    0.433313 0.866394 0.356464 0.222885
C69   C     C_3   0.414173 0.842807 0.219310 -0.913614
H25   H     H_    0.391463 0.900705 0.213283 0.257041
H26   H     H_    0.390536 0.788115 0.236621 0.279764
H27   H     H_    0.431695 0.829965 0.154005 0.268331
O14   O     O_3   0.481688 0.061800 0.666303 -0.633004
C70   C     C_3   0.464929 0.999071 0.726818 0.086792
H28   H     H_    0.485713 0.005870 0.790105 0.171999
H29   H     H_    0.470604 0.932410 0.703832 0.124939
C71   C     C_3   0.411345 0.013863 0.746595 -0.330240
H30   H     H_    0.406477 0.078640 0.774562 0.240006
H31   H     H_    0.390139 0.009638 0.683586 0.219112
C72   C     C_3   0.391906 0.948638 0.813245 -0.968758
H32   H     H_    0.396689 0.883232 0.787000 0.264000
H33   H     H_    0.352762 0.959917 0.824402 0.272240
H34   H     H_    0.411028 0.954543 0.878310 0.262669
C73   C     C_3   0.595746 0.470002 0.071934 -0.919772
H35   H     H_    0.623179 0.461558 0.018765 0.247539
H36   H     H_    0.605298 0.527505 0.111008 0.254564
H37   H     H_    0.595913 0.414469 0.117865 0.241354
C74   C     C_3   0.406120 0.538804 0.936388 -0.886974
H38   H     H_    0.382129 0.551725 0.994200 0.254491
H39   H     H_    0.407226 0.595499 0.892128 0.226717
H40   H     H_    0.391626 0.484100 0.898070 0.248629
O15   O     O_3   0.520248 0.341134 0.933917 -0.645215
C75   C     C_3   0.569044 0.315389 0.932691 0.105378
H41   H     H_    0.569360 0.246287 0.917828 0.171846
H42   H     H_    0.586178 0.321071 0.999410 0.144928
C76   C     C_3   0.598025 0.360498 0.858861 -0.374126
H43   H     H_    0.581521 0.346258 0.792703 0.239428
H44   H     H_    0.597267 0.430328 0.868480 0.219581
C77   C     C_3   0.650631 0.331215 0.859193 -0.966947
H45   H     H_    0.667366 0.342582 0.925730 0.268325
H46   H     H_    0.671469 0.367424 0.808448 0.265320
H47   H     H_    0.652808 0.262488 0.843103 0.272061
O16   O     O_3   0.473576 0.654519 0.064907 -0.641387
C78   C     C_3   0.473180 0.718515 0.998195 0.080896
H48   H     H_    0.438581 0.753768 0.004249 0.165015
H49   H     H_    0.474553 0.694103 0.928192 0.126740
C79   C     C_3   0.515138 0.780156 0.014051 -0.335524
H50   H     H_    0.513566 0.804458 0.083701 0.230476
H51   H     H_    0.550028 0.746366 0.005585 0.218615
C80   C     C_3   0.513249 0.855086 0.949072 -0.990241
H52   H     H_    0.514394 0.832402 0.878764 0.264676
H53   H     H_    0.544767 0.897383 0.960835 0.272329
H54   H     H_    0.479674 0.892230 0.959690 0.261489
C81   C     C_3   0.258308 0.392627 0.342640 -0.799858
H55   H     H_    0.280130 0.402621 0.281185 0.229240
H56   H     H_    0.256331 0.323663 0.357912 0.252973
H57   H     H_    0.221396 0.415496 0.326596 0.231329
C82   C     C_3   0.744737 0.601793 0.348916 -0.801278
H58   H     H_    0.723489 0.594263 0.286318 0.229322
H59   H     H_    0.747506 0.670263 0.365675 0.254067
H60   H     H_    0.781477 0.577666 0.334012 0.230412
C83   C     C_3   0.649362 0.383215 0.611594 -0.812541
H61   H     H_    0.674874 0.336473 0.640946 0.267253
H62   H     H_    0.631117 0.416348 0.667504 0.242118
H63   H     H_    0.622289 0.346528 0.572578 0.230467
C84   C     C_3   0.347242 0.606346 0.617120 -0.813684
H64   H     H_    0.320540 0.649820 0.647901 0.262829
H65   H     H_    0.365512 0.571389 0.672211 0.241633
H66   H     H_    0.373952 0.646716 0.581310 0.227443
O17   O     O_3   0.752229 0.395804 0.599331 -0.633736
C85   C     C_3   0.763775 0.438273 0.679617 0.047827
H67   H     H_    0.730352 0.458598 0.715227 0.147990
H68   H     H_    0.786679 0.495065 0.665693 0.162768
C86   C     C_3   0.791928 0.377627 0.740253 -0.331400
H69   H     H_    0.769843 0.319774 0.752994 0.231811
H70   H     H_    0.825871 0.358225 0.706247 0.218209
C87   C     C_3   0.804430 0.419122 0.829492 -0.942400
H71   H     H_    0.826974 0.476664 0.818458 0.268278
H72   H     H_    0.825069 0.373623 0.871677 0.268423
H73   H     H_    0.770896 0.437126 0.865562 0.266215
O18   O     O_3   0.244762 0.590214 0.597938 -0.636846
C88   C     C_3   0.230979 0.543274 0.674433 0.050096
H74   H     H_    0.262732 0.534089 0.719377 0.155509
H75   H     H_    0.215850 0.479931 0.656173 0.161104
C89   C     C_3   0.192012 0.592685 0.724400 -0.333956
H76   H     H_    0.206263 0.656295 0.743056 0.229420
H77   H     H_    0.160186 0.601702 0.679819 0.215756
C90   C     C_3   0.175993 0.545836 0.808867 -0.939053
H78   H     H_    0.160703 0.482697 0.791472 0.268808
H79   H     H_    0.147728 0.583396 0.843482 0.266837
H80   H     H_    0.207094 0.537195 0.855143 0.266033
O19   O     O_3   0.871749 0.266550 0.416739 -0.603253
C91   C     C_3   0.858864 0.233514 0.501981 0.179949
H81   H     H_    0.826339 0.192989 0.492609 0.192914
H82   H     H_    0.848441 0.283603 0.550957 0.132035
C92   C     C_3   0.899429 0.178564 0.541212 -0.440928
H83   H     H_    0.909376 0.128362 0.492490 0.242422
H84   H     H_    0.931717 0.218643 0.554573 0.217698
C93   C     C_3   0.883802 0.136747 0.628818 -0.930988
H85   H     H_    0.874200 0.185902 0.678922 0.261890
H86   H     H_    0.913967 0.097860 0.655891 0.270127
H87   H     H_    0.852123 0.094671 0.617410 0.269009
O20   O     O_3   0.127348 0.723105 0.415214 -0.603318
C94   C     C_3   0.141229 0.754430 0.500502 0.179369
H88   H     H_    0.173330 0.795877 0.490534 0.191988
H89   H     H_    0.152711 0.703424 0.547946 0.134882
C95   C     C_3   0.100910 0.807528 0.542666 -0.442643
H90   H     H_    0.090022 0.858894 0.495593 0.242138
H91   H     H_    0.069041 0.766520 0.556408 0.217694
C96   C     C_3   0.117519 0.847149 0.630601 -0.931663
H92   H     H_    0.128051 0.796769 0.679102 0.262293
H93   H     H_    0.087536 0.884758 0.659806 0.270191
H94   H     H_    0.148819 0.890057 0.618949 0.268498
C97   C     C_3   0.968998 0.269371 0.364220 -0.838811
H95   H     H_    0.945712 0.252360 0.306316 0.266490
H96   H     H_    0.004820 0.285701 0.335614 0.239180
H97   H     H_    0.972351 0.212872 0.408241 0.226367
C98   C     C_3   0.029325 0.720861 0.366931 -0.838146
H98   H     H_    0.051602 0.739172 0.308136 0.266147
H99   H     H_    0.993032 0.705005 0.339989 0.239238
H100  H     H_    0.026654 0.776407 0.412015 0.226357

loop_
_geom_bond_atom_site_label_1
_geom_bond_atom_site_label_2
_ccdc_geom_bond_type
O4    Zn1   S    
C40   C47   S    
C44   C48   S    
C8    H4    S    
C66   H18   S    
C45   N1    A    
C1    O3    A    
C84   H64   S    
C14   C18   A    
C78   H48   S    
C9    C51   A    
C74   H40   S    
C10   C52   A    
C82   H60   S    
O5    Zn1   S    
C65   H15   S    
C2    O2    A    
C72   H32   S    
C39   C41   S    
C39   O15   S    
C96   H92   S    
C27   C33   S    
C97   H97   S    
C83   H61   S    
C57   C63   S    
C89   C90   S    
C52   N2    A    
C54   O17   S    
C60   C62   A    
C52   O11   S    
C78   H49   S    
C58   C64   S    
C98   H100  S    
C70   H29   S    
C76   C77   S    
C9    C22   A    
C88   H75   S    
C27   C29   S    
C67   H21   S    
C58   C60   A    
O8    Zn1   S    
C66   H20   S    
C1    C31   S    
O6    Zn2   S    
C8    C26   A    
O18   C88   S    
C22   O20   S    
C3    C18   A    
C2    C32   S    
C11   C23   S    
C11   C57   A    
C24   O8    A    
C85   H67   S    
C68   H24   S    
C65   H16   S    
C53   C61   A    
C28   C66   S    
C24   O6    A    
C81   H55   S    
C59   C81   S    
C28   C35   S    
C71   H31   S    
C86   H70   S    
C79   C80   S    
C25   H5    S    
C56   C83   S    
C92   C93   S    
C20   C98   S    
C42   C74   S    
C19   C97   S    
C32   C38   T    
N4    Zn1   S    
C63   H10   S    
C96   H93   S    
O2    Zn2   S    
C46   N2    A    
C87   H73   S    
C12   C58   A    
C61   N1    S    
C40   C42   S    
C28   C34   S    
C92   H83   S    
C83   H62   S    
C88   C89   S    
C84   H65   S    
C77   H47   S    
C45   O9    S    
C51   N1    A    
C73   H36   S    
C91   C92   S    
C51   O12   S    
C69   H26   S    
C69   H25   S    
C82   H59   S    
C87   H72   S    
C43   H2    S    
C82   H58   S    
C29   H7    S    
C53   C55   A    
C44   H1    S    
C39   C43   S    
C54   C56   A    
C59   C61   A    
C77   H45   S    
C93   H85   S    
C13   C19   A    
C94   H88   S    
C1    O1    A    
C14   C20   A    
O15   C75   S    
C78   C79   S    
O3    Zn2   S    
C91   H82   S    
C70   C71   S    
C5    C7    A    
O20   C94   S    
C91   H81   S    
C15   C26   A    
C6    C8    A    
C54   C62   A    
C3    C5    A    
C97   H95   S    
O17   C85   S    
C5    C45   A    
C29   C34   S    
C93   H87   S    
C90   H78   S    
C89   H76   S    
C63   H11   S    
C75   C76   S    
C30   C36   S    
C90   H79   S    
N3    Zn2   S    
C98   H98   S    
C3    C9    A    
C79   H51   S    
C94   C95   S    
C30   H8    S    
C86   C87   S    
C60   C82   S    
C41   C47   S    
C62   N2    S    
C64   H12   S    
C42   C48   S    
C21   O19   S    
C80   H54   S    
C85   C86   S    
C12   C56   A    
C93   H86   S    
C46   O10   S    
C4    C17   A    
C4    C6    A    
C83   H63   S    
C20   C22   A    
C86   H69   S    
C64   H14   S    
C95   H91   S    
C41   C44   S    
C49   N3    T    
C53   O18   S    
C57   C59   A    
C80   H53   S    
C42   C43   S    
C4    C10   A    
C41   C73   S    
C65   H17   S    
C11   C55   A    
C71   H30   S    
C75   H42   S    
C92   H84   S    
O16   C78   S    
C66   H19   S    
C96   H94   S    
O1    Zn1   S    
C16   C25   A    
C15   C17   A    
C12   C24   S    
C27   C65   S    
C33   O14   S    
C6    C46   A    
C30   C33   S    
C35   C37   S    
C14   C15   A    
C34   O13   S    
C7    H3    S    
C16   C18   A    
C23   O7    A    
C68   C69   S    
C75   H41   S    
C74   H39   S    
C10   C21   A    
C72   H34   S    
C76   H43   S    
C71   C72   S    
C73   H35   S    
C40   O16   S    
C27   C36   S    
C81   H57   S    
C95   C96   S    
O13   C67   S    
C29   C35   S    
C7    C25   A    
C13   C17   A    
C26   H6    S    
C89   H77   S    
C36   C38   S    
C63   H9    S    
C90   H80   S    
C28   C30   S    
C98   H99   S    
C47   C49   S    
C70   H28   S    
C76   H44   S    
C50   N4    T    
C88   H74   S    
C64   H13   S    
C67   H22   S    
C48   C50   S    
C33   C35   S    
C34   C36   S    
O14   C70   S    
C77   H46   S    
C97   H96   S    
C85   H68   S    
C73   H37   S    
O7    Zn2   S    
C72   H33   S    
O19   C91   S    
C31   C37   T    
C40   C44   S    
C81   H56   S    
C95   H90   S    
C13   C16   A    
C94   H89   S    
C79   H50   S    
C84   H66   S    
C23   O5    A    
C80   H52   S    
C68   H23   S    
C43   C47   S    
C55   C84   S    
C69   H27   S    
C2    O4    A    
C87   H71   S    
C74   H38   S    
C39   C48   S    
C19   C21   A    
C67   C68   S    
