data_mof_unit_22255.cif
_audit_creation_date              2012-12-10T20:34:50-0500
_audit_creation_method            fapswitch 2.2
_symmetry_space_group_name_H-M    P1
_symmetry_Int_Tables_number       1
_space_group_crystal_system       triclinic
_cell_length_a                    10.604386
_cell_length_b                    10.70494
_cell_length_c                    9.905404
_cell_angle_alpha                 88.018462
_cell_angle_beta                  90.938072
_cell_angle_gamma                 91.050054
_cell_volume                      1123.45419327

loop_
_atom_site_label
_atom_site_type_symbol
_atom_type_description
_atom_site_fract_x
_atom_site_fract_y
_atom_site_fract_z
_atom_type_partial_charge
C1    C     C_R   0.506527 0.260235 0.501902 0.900119
C2    C     C_3   0.879001 0.517810 0.504010 0.089390
C3    C     C_3   0.926609 0.578195 0.368122 -0.426906
C4    C     C_3   0.926736 0.381876 0.514197 -0.470906
C5    C     C_R   0.529999 0.058855 0.624105 0.135283
C6    C     C_R   0.534011 0.130120 0.504553 -0.164596
C7    C     C_R   0.568101 0.073565 0.385165 -0.216847
C8    C     C_R   0.567447 0.944246 0.379829 0.082953
C9    C     C_R   0.532529 0.872494 0.496790 -0.157549
C10   C     C_R   0.528315 0.931519 0.619832 0.113489
C11   C     C_3   0.435773 0.916600 0.731526 -0.464124
C12   C     C_R   0.258609 0.510455 0.499148 0.865655
C13   C     C_3   0.438352 0.057511 0.736502 -0.505867
C14   C     C_R   0.466893 0.394477 0.073860 0.103911
C15   C     C_R   0.550198 0.597363 0.068850 -0.155482
C16   C     C_R   0.550106 0.597580 0.925236 -0.117061
C17   C     C_R   0.464638 0.395506 0.932009 0.145000
C18   C     C_3   0.341813 0.324759 0.927148 -0.184167
C19   C     C_3   0.350221 0.313478 0.082169 -0.033017
C20   C     C_R   0.507238 0.740272 0.497940 0.841766
C21   C     C_R   0.741922 0.509070 0.500868 0.814641
C22   C     C_3   0.079041 0.601479 0.615568 -0.433634
C23   C     C_3   0.931659 0.599626 0.624703 0.455271
C24   C     C_3   0.070510 0.577848 0.366494 -0.413185
C25   C     C_3   0.070082 0.383250 0.524325 -0.421720
C26   C     C_3   0.122117 0.517856 0.500344 0.124822
H1    H     H_    0.120445 0.696084 0.596997 0.158157
H2    H     H_    0.896376 0.330946 0.422621 0.189831
H3    H     H_    0.100434 0.526251 0.278751 0.196564
H4    H     H_    0.890560 0.525191 0.280235 0.193333
H5    H     H_    0.585529 0.128592 0.293194 0.175026
H6    H     H_    0.343110 0.877402 0.697635 0.197244
H7    H     H_    0.477195 0.870495 0.823703 0.197288
H8    H     H_    0.346874 0.099940 0.705697 0.198980
H9    H     H_    0.483717 0.090798 0.830889 0.195425
H10   H     H_    0.590973 0.675710 0.119797 0.136719
H11   H     H_    0.120355 0.568598 0.713621 0.179185
H12   H     H_    0.589722 0.676939 0.869259 0.143902
H13   H     H_    0.346199 0.233895 0.879891 0.148315
H14   H     H_    0.373703 0.217672 0.121110 0.138519
H15   H     H_    0.107711 0.675333 0.352595 0.163116
H16   H     H_    0.892509 0.675524 0.353857 0.180684
H17   H     H_    0.108485 0.319217 0.450024 0.187570
H18   H     H_    0.099688 0.346685 0.626297 0.180454
H19   H     H_    0.886060 0.328232 0.601761 0.166766
N1    N     N_R   0.499150 0.499140 0.142800 -0.098323
N2    N     N_R   0.499150 0.499180 0.857150 -0.089395
O1    O     O_R   0.500020 0.316790 0.614690 -0.606107
O2    O     O_R   0.500000 0.316760 0.385350 -0.614307
O3    O     O_R   0.314800 0.500000 0.614670 -0.604979
O4    O     O_R   0.314790 0.499960 0.385330 -0.600839
O5    O     O_R   0.500000 0.683240 0.614650 -0.627454
O6    O     O_R   0.499980 0.683210 0.385310 -0.636088
O7    O     O_R   0.685210 0.500040 0.614670 -0.606128
O8    O     O_R   0.685200 0.500000 0.385330 -0.627937
Zn1   Zn    Zn3+2 0.500010 0.500020 0.653130 0.952541
Zn2   Zn    Zn3+2 0.499990 0.499980 0.346870 0.937428
N3    N     N_3   0.595300 0.891109 0.253616 -0.475231
H20   H     H_    0.512678 0.850839 0.214426 0.201225
H21   H     H_    0.664849 0.824070 0.270044 0.190437
N4    N     N_3   0.239942 0.401377 0.868991 -0.416418
H22   H     H_    0.152863 0.359266 0.891130 0.182791
H23   H     H_    0.242648 0.491585 0.906303 0.187759
N5    N     N_2   0.246008 0.366085 0.152270 -0.234035
H24   H     H_    0.222386 0.455777 0.122640 0.226101
C27   C     C_3   0.140563 0.279865 0.173231 -0.824258
H25   H     H_    0.058297 0.329218 0.211760 0.228654
H26   H     H_    0.167743 0.205020 0.247971 0.243434
H27   H     H_    0.111184 0.235976 0.077555 0.234122
N6    N     N_2   0.894757 0.541231 0.755296 -0.284263
H28   H     H_    0.928702 0.452568 0.773575 0.213513
C28   C     C_3   0.902141 0.614245 0.875835 -0.808658
H29   H     H_    0.869993 0.555700 0.963919 0.231686
H30   H     H_    0.838964 0.695606 0.866391 0.258357
H31   H     H_    0.000801 0.645537 0.896151 0.223224
N7    N     N_2   0.876611 0.724954 0.608248 -0.306254
H32   H     H_    0.780643 0.727875 0.622915 0.226216
C29   C     C_3   0.943803 0.837960 0.646887 -0.841573
H33   H     H_    0.875493 0.913333 0.663018 0.238643
H34   H     H_    0.006722 0.870893 0.564040 0.242216
H35   H     H_    0.999561 0.822672 0.741474 0.249581

loop_
_geom_bond_atom_site_label_1
_geom_bond_atom_site_label_2
_ccdc_geom_bond_type
C27   H26   S    
C3    H16   S    
C14   C17   A    
C23   N7    S    
C25   H17   S    
C4    C25   S    
C7    C8    A    
C14   N1    A    
N7    C29   S    
C13   H9    S    
C5    C6    A    
C29   H34   S    
C27   H27   S    
N3    H21   S    
C15   C16   A    
O2    Zn2   S    
C25   H18   S    
C18   C19   S    
N4    H23   S    
C24   H3    S    
C8    N3    S    
C8    C9    A    
N6    H28   S    
O4    Zn2   S    
C9    C10   A    
C5    C13   S    
C27   H25   S    
C24   H15   S    
C23   N6    S    
C3    C24   S    
C28   H31   S    
C16   N2    A    
C4    H2    S    
C4    H19   S    
O7    Zn1   S    
C7    H5    S    
C1    C6    S    
C11   H7    S    
N7    H32   S    
C28   H30   S    
C10   C11   S    
C21   O8    A    
O6    Zn2   S    
C29   H33   S    
C28   H29   S    
C25   C26   S    
C22   H11   S    
O3    Zn1   S    
C12   C26   S    
N5    C27   S    
C3    H4    S    
C2    C4    S    
C18   H13   S    
C9    C20   S    
C19   N5    S    
C2    C21   S    
C17   C18   S    
C18   N4    S    
C11   H6    S    
C22   H1    S    
O8    Zn2   S    
N1    Zn2   S    
C15   H10   S    
C12   O4    A    
O1    Zn1   S    
C14   C19   S    
C17   N2    A    
C24   C26   S    
C20   O6    A    
C12   O3    A    
C1    O1    A    
C6    C7    A    
N5    H24   S    
C2    C3    S    
N3    H20   S    
C13   H8    S    
C20   O5    A    
C11   C13   S    
C29   H35   S    
C21   O7    A    
N4    H22   S    
C19   H14   S    
C5    C10   A    
C22   C26   S    
C2    C23   S    
C22   C23   S    
N6    C28   S    
C15   N1    A    
C1    O2    A    
O5    Zn1   S    
C16   H12   S    
N2    Zn1   S    
