data_mof_unit_51558.cif
_audit_creation_date              2013-03-05T16:07:58-0500
_audit_creation_method            fapswitch 2.2
_symmetry_space_group_name_H-M    P1
_symmetry_Int_Tables_number       1
_space_group_crystal_system       triclinic
_cell_length_a                    6.959423
_cell_length_b                    14.520575
_cell_length_c                    16.021364
_cell_angle_alpha                 90.244562
_cell_angle_beta                  90.012799
_cell_angle_gamma                 89.981694
_cell_volume                      1619.0212419

loop_
_atom_site_label
_atom_site_type_symbol
_atom_site_description
_atom_site_fract_x
_atom_site_fract_y
_atom_site_fract_z
_atom_type_partial_charge
O1    O     O_R   0.494380 0.415640 0.412830 -0.589445
O2    O     O_R   0.823960 0.405540 0.586560 -0.564994
O3    O     O_R   0.994270 0.584360 0.587170 -0.601108
C1    C     C_R   0.655237 0.383424 0.615161 0.958430
O4    O     O_R   0.824090 0.404620 0.413450 -0.597678
O5    O     O_R   0.994400 0.583430 0.412820 -0.598079
C2    C     C_R   0.655304 0.382398 0.384562 0.947124
O6    O     O_R   0.494250 0.416570 0.587180 -0.595784
O7    O     O_3   0.660800 0.558670 0.500000 -0.284802
V1    V     V_3+5 0.935650 0.489120 0.500000 1.181448
O8    O     O_R   0.324110 0.594460 0.413440 -0.596562
C3    C     C_R   0.155048 0.616227 0.384421 0.930999
O9    O     O_R   0.323980 0.595380 0.586550 -0.602345
C4    C     C_R   0.155312 0.616233 0.616544 0.873234
V2    V     V_3+5 0.435660 0.510880 0.500000 1.161274
O10   O     O_3   0.160640 0.441330 0.500000 -0.241720
C5    C     C_3   0.983835 0.659399 0.750735 -0.338070
H1    H     H_    0.841889 0.657212 0.718762 0.170688
H2    H     H_    0.011705 0.589300 0.775829 0.120683
C6    C     C_3   0.973252 0.729574 0.823838 -0.324805
H3    H     H_    0.002796 0.693379 0.883581 0.124128
H4    H     H_    0.824900 0.757121 0.829025 0.195281
H5    H     H_    0.959181 0.780822 0.618613 0.193545
C7    C     C_3   0.097853 0.783036 0.653126 -0.460060
C8    C     C_3   0.337266 0.691407 0.736433 -0.348688
C9    C     C_3   0.144345 0.685869 0.687565 0.075037
H6    H     H_    0.455500 0.712616 0.693865 0.191000
H7    H     H_    0.375053 0.622327 0.761414 0.136014
C10   C     C_3   0.121987 0.808393 0.811863 -0.064261
C11   C     C_3   0.091371 0.855658 0.725188 0.280734
C12   C     C_3   0.323534 0.761464 0.809374 -0.402851
H8    H     H_    0.351816 0.725672 0.869439 0.154564
H9    H     H_    0.438076 0.814106 0.801817 0.216282
H10   H     H_    0.209617 0.803378 0.607061 0.141905
H11   H     H_    0.214217 0.903787 0.715655 0.079751
C13   C     C_R   0.273385 0.815490 0.239585 0.174848
C14   C     C_R   0.118423 0.815846 0.183694 -0.227919
C15   C     C_R   0.966225 0.754491 0.199829 -0.163144
H12   H     H_    0.843306 0.752281 0.158659 0.137270
C16   C     C_R   0.977265 0.690739 0.265763 -0.157843
H13   H     H_    0.861873 0.641665 0.273577 0.131095
C17   C     C_R   0.141206 0.686107 0.317365 -0.228948
C18   C     C_R   0.284793 0.752107 0.304558 0.180557
C19   C     C_3   0.495173 0.738998 0.292230 -0.477492
C20   C     C_3   0.482874 0.808439 0.221767 -0.464184
H14   H     H_    0.529972 0.668156 0.270455 0.183215
H15   H     H_    0.580259 0.764010 0.346502 0.204280
H16   H     H_    0.511331 0.778115 0.159142 0.188129
H17   H     H_    0.560090 0.873804 0.235430 0.194265
C21   C     C_R   0.491890 0.251436 0.687447 0.091107
C22   C     C_R   0.647248 0.312258 0.680975 -0.295784
C23   C     C_R   0.799424 0.301313 0.738007 -0.057444
H18   H     H_    0.922005 0.346801 0.735472 0.113424
C24   C     C_R   0.788315 0.236148 0.802731 -0.153448
H19   H     H_    0.903732 0.232590 0.847777 0.122217
C25   C     C_R   0.623843 0.180728 0.812751 -0.180501
C26   C     C_R   0.480052 0.187526 0.751985 0.132311
C27   C     C_3   0.269906 0.202952 0.762736 -0.644509
C28   C     C_3   0.282766 0.272227 0.692190 0.687006
H20   H     H_    0.236116 0.235132 0.824053 0.148056
H21   H     H_    0.184517 0.140644 0.746887 0.273179
H22   H     H_    0.252001 0.344606 0.710665 -0.041582
C29   C     C_R   0.492713 0.315802 0.257473 0.149134
C30   C     C_R   0.647317 0.316501 0.313555 -0.224661
C31   C     C_R   0.799029 0.254602 0.297707 -0.138933
H23   H     H_    0.921624 0.252604 0.339019 0.151776
C32   C     C_R   0.787888 0.190107 0.231850 -0.155459
H24   H     H_    0.902870 0.140684 0.224272 0.135804
C33   C     C_R   0.624356 0.185267 0.179993 -0.219642
C34   C     C_R   0.481235 0.251717 0.192549 0.159757
C35   C     C_3   0.270678 0.239168 0.204661 -0.474622
C36   C     C_3   0.283046 0.309355 0.275048 -0.448880
H25   H     H_    0.235146 0.168647 0.226470 0.193671
H26   H     H_    0.186101 0.263760 0.150274 0.189382
H27   H     H_    0.253878 0.279787 0.337662 0.209801
H28   H     H_    0.206374 0.374709 0.261203 0.179582
O11   O     O_R   0.771490 0.080820 0.910070 -0.573364
O12   O     O_R   0.441590 0.092730 0.083780 -0.597410
O13   O     O_R   0.271350 0.913900 0.084390 -0.594423
C37   C     C_R   0.610600 0.114762 0.112867 0.920824
O14   O     O_R   0.441780 0.091820 0.910670 -0.597276
O15   O     O_R   0.271540 0.912980 0.910040 -0.593959
C38   C     C_R   0.610826 0.114062 0.882190 0.987623
O16   O     O_R   0.771300 0.081740 0.084420 -0.601401
O17   O     O_3   0.604960 0.938700 0.997240 -0.280513
V3    V     V_3+5 0.330090 0.008230 0.997220 1.154932
O18   O     O_R   0.941820 0.901930 0.910640 -0.570262
C39   C     C_R   0.110988 0.878690 0.882547 0.905757
O19   O     O_R   0.941630 0.902840 0.083750 -0.603704
C40   C     C_R   0.110443 0.880942 0.112640 0.923463
V4    V     V_3+5 0.830090 0.986410 0.997190 1.171219
O20   O     O_3   0.105080 0.055990 0.997200 -0.276454
F1    F     F_    0.187139 0.243060 0.621078 -0.652505
N1    N     N_R   0.913613 0.910096 0.722075 0.235978
O21   O     O_R   0.746189 0.870370 0.719310 -0.451152
O22   O     O_R   0.922980 0.999371 0.716911 -0.403108

loop_
_geom_bond_atom_site_label_1
_geom_bond_atom_site_label_2
_geom_bond_distance
_ccdc_geom_bond_type
C8    C12   1.549028 S    
O18   C39   1.304301 A    
O18   V4    2.004387 S    
C37   O16   1.298631 A    
O17   V4    1.713308 S    
O17   V3    2.162734 S    
C19   C20   1.519244 S    
C8    H7    1.112972 S    
C10   C11   1.566116 S    
C14   C40   1.483760 S    
C5    C9    1.556896 S    
C13   C14   1.401616 A    
C7    C9    1.551158 S    
O5    C3    1.298529 A    
C15   H12   1.080493 S    
O12   C37   1.304499 A    
O11   C38   1.297693 A    
C27   H20   1.111230 S    
V2    O10   2.164363 S    
C5    C6    1.550899 S    
C25   C26   1.399747 A    
C10   C39   1.523267 S    
C3    C17   1.484008 S    
O8    V2    2.003025 S    
C19   H14   1.111457 S    
O13   C40   1.300119 A    
H5    C7    1.112549 S    
C12   H9    1.111580 S    
C34   C35   1.489541 S    
O1    V2    2.003341 S    
O16   V4    2.005004 S    
O19   V4    2.002908 S    
O7    V1    2.162746 S    
O14   V3    2.003919 S    
C19   H15   1.111661 S    
C1    O6    1.299667 A    
O12   V3    2.004115 S    
C27   H21   1.111087 S    
C16   C17   1.410586 A    
O9    C4    1.303563 A    
N1    O21   1.300972 A    
C36   H27   1.111631 S    
O14   C38   1.303196 A    
C23   C24   1.408941 A    
C21   C22   1.400423 A    
C6    C10   1.555905 S    
C24   C25   1.409016 A    
C1    C22   1.480573 S    
C22   C23   1.408002 A    
V4    O20   2.164380 S    
O4    C2    1.302636 A    
C31   C32   1.409929 A    
C27   C28   1.518915 S    
O15   V3    2.003364 S    
C7    H10   1.113190 S    
C32   H24   1.081214 S    
C32   C33   1.410521 A    
O2    C1    1.301392 A    
C18   C19   1.489474 S    
C14   C15   1.408961 A    
C12   H8    1.113120 S    
C29   C34   1.395002 A    
C20   H17   1.111780 S    
C5    H1    1.113072 S    
C13   C20   1.489082 S    
C4    C9    1.520903 S    
N1    O22   1.300963 A    
O3    C4    1.300003 A    
C11   H11   1.115348 S    
C16   H13   1.081444 S    
C6    H4    1.110113 S    
O6    V2    2.002055 S    
O9    V2    2.004426 S    
C17   C18   1.400536 A    
C21   C28   1.488162 S    
O2    V1    2.003941 S    
C23   H18   1.079953 S    
C25   C38   1.480618 S    
C35   H25   1.111345 S    
C20   H16   1.111767 S    
C24   H19   1.081073 S    
O11   V4    2.002394 S    
C28   H22   1.111412 S    
O1    C2    1.300149 A    
C21   C26   1.394775 A    
C13   C18   1.394646 A    
O5    V1    2.002589 S    
C35   H26   1.111545 S    
O8    C3    1.304282 A    
C8    H6    1.113212 S    
C30   C31   1.408786 A    
C8    C9    1.556001 S    
C35   C36   1.519202 S    
C10   C12   1.559673 S    
O3    V1    2.003252 S    
V3    O20   1.712431 S    
C15   C16   1.409606 A    
C26   C27   1.489394 S    
C36   H28   1.111708 S    
O15   C39   1.299488 A    
C29   C36   1.489196 S    
C5    H2    1.112958 S    
O7    V2    1.713839 S    
C33   C34   1.400496 A    
C7    C11   1.560952 S    
C2    C30   1.484436 S    
C29   C30   1.401649 A    
O4    V1    2.004167 S    
C6    H3    1.113024 S    
C11   N1    1.468817 S    
C31   H23   1.080156 S    
C33   C37   1.484748 S    
V1    O10   1.712479 S    
C28   F1    1.384209 S    
O19   C40   1.302449 A    
O13   V3    2.002660 S    
