data_mof_unit_43495.cif
_audit_creation_date              2013-03-05T16:32:41-0500
_audit_creation_method            fapswitch 2.2
_symmetry_space_group_name_H-M    P1
_symmetry_Int_Tables_number       1
_space_group_crystal_system       triclinic
_cell_length_a                    9.555755
_cell_length_b                    10.861179
_cell_length_c                    17.32642
_cell_angle_alpha                 90.077114
_cell_angle_beta                  85.731851
_cell_angle_gamma                 90.317861
_cell_volume                      1793.23754307

loop_
_atom_site_label
_atom_site_type_symbol
_atom_site_description
_atom_site_fract_x
_atom_site_fract_y
_atom_site_fract_z
_atom_type_partial_charge
O1    O     O_R   0.381190 0.680360 0.500000 -0.591172
O2    O     O_R   0.618770 0.680320 0.499990 -0.550227
C1    C     C_R   0.500463 0.737299 0.501786 0.808466
O3    O     O_R   0.367430 0.500040 0.613600 -0.580866
O4    O     O_R   0.605020 0.500000 0.613590 -0.602208
C2    C     C_R   0.481353 0.496250 0.649694 0.821608
Cu1   Cu    Cu3+1 0.359330 0.500020 0.500000 0.987854
Cu2   Cu    Cu3+1 0.640670 0.499980 0.500000 0.970007
O5    O     O_R   0.381230 0.319680 0.500010 -0.545967
O6    O     O_R   0.618810 0.319640 0.500000 -0.586056
O7    O     O_R   0.394980 0.500000 0.386410 -0.578511
O8    O     O_R   0.632570 0.499960 0.386400 -0.598042
C3    C     C_R   0.499644 0.262932 0.500575 0.892508
C4    C     C_R   0.518710 0.501137 0.350285 0.823519
C5    C     C_R   0.470954 0.493903 0.734126 -0.097647
C6    C     C_R   0.566270 0.566622 0.771870 -0.222047
C7    C     C_R   0.557945 0.573763 0.851818 -0.121189
C8    C     C_R   0.455312 0.506185 0.895749 0.137417
C9    C     C_R   0.358636 0.434146 0.858624 -0.201467
C10   C     C_R   0.366644 0.424758 0.777821 -0.020273
C11   C     C_R   0.437274 0.587180 0.149191 0.291346
C12   C     C_R   0.429763 0.577243 0.229653 -0.265743
C13   C     C_R   0.641581 0.454883 0.222555 -0.184976
C14   C     C_R   0.651016 0.464871 0.142350 -0.211182
C15   C     C_R   0.548114 0.528579 0.105248 0.127649
C16   C     C_2   0.446915 0.508569 0.980610 -0.159610
C17   C     C_2   0.559025 0.531253 0.020532 -0.211960
C18   C     C_R   0.529767 0.509744 0.266273 -0.043902
H1    H     H_    0.646481 0.619892 0.739321 0.146930
H2    H     H_    0.348174 0.625141 0.263873 0.147105
H3    H     H_    0.720026 0.402759 0.250256 0.153262
H4    H     H_    0.662923 0.540664 0.991182 0.143866
H5    H     H_    0.280446 0.381144 0.893092 0.162286
H6    H     H_    0.347542 0.483593 0.011269 0.173868
H7    H     H_    0.630912 0.633676 0.878776 0.132164
H8    H     H_    0.737007 0.420498 0.108999 0.148343
C19   C     C_R   0.388102 0.936839 0.484032 0.025576
C20   C     C_R   0.502450 0.870252 0.505515 -0.119818
C21   C     C_R   0.620097 0.938034 0.529014 0.244103
C22   C     C_R   0.618080 0.067589 0.526864 -0.248118
H9    H     H_    0.708460 0.118310 0.544395 0.180181
C23   C     C_R   0.499866 0.130709 0.503639 -0.088355
C24   C     C_R   0.385848 0.061194 0.483785 0.000196
C25   C     C_3   0.244286 0.068533 0.451537 -0.101174
C26   C     C_3   0.248276 0.924851 0.450562 -0.015362
H10   H     H_    0.168255 0.879945 0.491444 0.142664
C27   C     C_R   0.934962 0.534454 0.435865 0.270530
N1    N     N_R   0.852130 0.499070 0.499500 -0.181563
C28   C     C_R   0.916929 0.471535 0.565196 -0.039564
H11   H     H_    0.855277 0.446136 0.617585 0.142759
C29   C     C_R   0.065306 0.471728 0.565210 -0.014824
H12   H     H_    0.112690 0.446672 0.617554 0.157494
N2    N     N_R   0.148040 0.499110 0.499500 -0.184904
C30   C     C_R   0.082445 0.534456 0.435801 0.217708
C31   C     C_3   0.096722 0.473411 0.358410 -0.453822
C32   C     C_3   0.938654 0.473815 0.358594 -0.489958
H13   H     H_    0.146990 0.534168 0.313050 0.180544
H14   H     H_    0.141608 0.379513 0.360639 0.254153
H15   H     H_    0.899887 0.535451 0.313754 0.190500
H16   H     H_    0.891567 0.379870 0.361084 0.237040
N3    N     N_2   0.740042 0.878027 0.554945 -0.403569
H17   H     H_    0.833150 0.924509 0.541507 0.257739
C33   C     C_3   0.724740 0.841386 0.635334 -0.642168
H18   H     H_    0.718605 0.924037 0.673306 0.218322
H19   H     H_    0.816734 0.785682 0.649074 0.221494
H20   H     H_    0.628511 0.784626 0.647050 0.221205
C34   C     C_2   0.133416 0.119472 0.510049 0.817650
O9    O     O_2   0.047929 0.194468 0.490330 -0.597134
O10   O     O_R   0.128344 0.079899 0.587024 -0.749516
H21   H     H_    0.049683 0.119960 0.620450 0.326299
C35   C     C_2   0.245319 0.129531 0.372648 0.886231
O11   O     O_2   0.345531 0.192062 0.347694 -0.635342
O12   O     O_R   0.129451 0.114516 0.328736 -0.730839
H22   H     H_    0.141120 0.159678 0.277471 0.324542
N4    N     N_2   0.253266 0.869550 0.373300 -0.395518
H23   H     H_    0.197901 0.787991 0.371218 0.251901
C36   C     C_3   0.383502 0.868950 0.324420 -0.622622
H24   H     H_    0.359954 0.851242 0.263638 0.216639
H25   H     H_    0.453401 0.795235 0.343163 0.198042
H26   H     H_    0.439028 0.958672 0.326117 0.246993
N5    N     N_2   0.341009 0.663549 0.112802 -0.432801
H27   H     H_    0.362374 0.756122 0.118748 0.254058
C37   C     C_3   0.193782 0.634130 0.129254 -0.708573
H28   H     H_    0.131145 0.684020 0.087962 0.240113
H29   H     H_    0.157601 0.663203 0.188879 0.218056
H30   H     H_    0.175050 0.533715 0.122452 0.232637
C38   C     C_2   0.270331 0.336994 0.742304 0.817800
O13   O     O_2   0.309609 0.279241 0.684106 -0.584259
O14   O     O_R   0.135583 0.316922 0.777380 -0.778095
H31   H     H_    0.079986 0.254737 0.748262 0.329575

loop_
_geom_bond_atom_site_label_1
_geom_bond_atom_site_label_2
_geom_bond_distance
_ccdc_geom_bond_type
C29   N2    1.368951 A    
C31   C32   1.510255 S    
C33   H19   1.110362 S    
O12   H22   1.013817 S    
C9    C10   1.400017 A    
C8    C16   1.466760 S    
C38   O13   1.222989 D    
N5    H27   1.031408 S    
Cu1   Cu2   2.688419 S    
N2    C30   1.365706 A    
Cu1   O7    1.972233 S    
C16   C17   1.339301 D    
C14   H8    1.083680 S    
O1    C1    1.296069 A    
C20   C21   1.424684 A    
O7    C4    1.295972 A    
C5    C6    1.400121 A    
C10   C38   1.485722 S    
C25   C35   1.519109 S    
C8    C9    1.399454 A    
N3    C33   1.445793 S    
O5    C3    1.292188 A    
C2    C5    1.459131 S    
C16   H6    1.086236 S    
C37   H28   1.109997 S    
C1    C20   1.445466 S    
C6    C7    1.383671 A    
C28   C29   1.417861 A    
C13   C14   1.390215 A    
C22   C23   1.408884 A    
C33   H20   1.110439 S    
C12   C18   1.397317 A    
C11   C12   1.394925 A    
N3    H17   1.032079 S    
O3    Cu1   1.975548 S    
C3    C23   1.437169 S    
N5    C37   1.448510 S    
C36   H25   1.109755 S    
C5    C10   1.418301 A    
C21   N3    1.423410 S    
C34   O9    1.223608 D    
C14   C15   1.400638 A    
O3    C2    1.296064 A    
C9    H5    1.084452 S    
C21   C22   1.407943 A    
C35   O12   1.398011 S    
C6    H1    1.082542 S    
C36   H24   1.109487 S    
C32   H16   1.112467 S    
C34   O10   1.399106 S    
C13   H3    1.082480 S    
C19   C24   1.350947 A    
N4    H23   1.031236 S    
Cu2   N1    2.020113 S    
C19   C20   1.387651 A    
C27   N1    1.362980 A    
Cu2   O8    1.975552 S    
C7    C8    1.400835 A    
C13   C18   1.398509 A    
N4    C36   1.452344 S    
C27   C30   1.409221 A    
C22   H9    1.083950 S    
C37   H29   1.110725 S    
C11   N5    1.424052 S    
C31   H13   1.107056 S    
C24   C25   1.504090 S    
C23   C24   1.386150 A    
Cu1   N2    2.019667 S    
C19   C26   1.500584 S    
C25   C26   1.561269 S    
C36   H26   1.108388 S    
Cu1   O5    1.971010 S    
C11   C15   1.411648 A    
C30   C31   1.492516 S    
N1    C28   1.369824 A    
C12   H2    1.079296 S    
C17   H4    1.085640 S    
O1    Cu1   1.968660 S    
O2    Cu2   1.971008 S    
O8    C4    1.294997 A    
O6    C3    1.291002 A    
O4    Cu2   1.972233 S    
C15   C17   1.464080 S    
C32   H15   1.111737 S    
C26   N4    1.464139 S    
C38   O14   1.398427 S    
O2    C1    1.290152 A    
C29   H12   1.079247 S    
O4    C2    1.295752 A    
O10   H21   1.013848 S    
C33   H18   1.111474 S    
C26   H10   1.113783 S    
C35   O11   1.223573 D    
C37   H30   1.111757 S    
Cu2   O6    1.968659 S    
C28   H11   1.079994 S    
C31   H14   1.110388 S    
C25   C34   1.517049 S    
C7    H7    1.081848 S    
C4    C18   1.454688 S    
O14   H31   1.013879 S    
C27   C32   1.489411 S    
