data_mof_unit_60634.cif
_audit_creation_date              2013-03-05T15:40:16-0500
_audit_creation_method            fapswitch 2.2
_symmetry_space_group_name_H-M    P1
_symmetry_Int_Tables_number       1
_space_group_crystal_system       triclinic
_cell_length_a                    18.877525
_cell_length_b                    18.969989
_cell_length_c                    18.674878
_cell_angle_alpha                 109.422216
_cell_angle_beta                  109.198987
_cell_angle_gamma                 109.843423
_cell_volume                      5144.74586519

loop_
_atom_site_label
_atom_site_type_symbol
_atom_site_description
_atom_site_fract_x
_atom_site_fract_y
_atom_site_fract_z
_atom_type_partial_charge
O1    O     O_R   0.409870 0.358470 0.449260 -0.625392
O2    O     O_R   0.409230 0.460600 0.550770 -0.618170
C1    C     C_R   0.383322 0.381421 0.502957 0.924059
O3    O     O_R   0.591360 0.448940 0.540280 -0.626032
O4    O     O_R   0.590720 0.551070 0.641790 -0.620664
C2    C     C_R   0.619414 0.500672 0.619887 0.873771
Zn1   Zn    Zn3+2 0.500430 0.431810 0.432220 0.959043
Zn2   Zn    Zn3+2 0.499570 0.568190 0.567780 0.959634
O5    O     O_R   0.590770 0.539400 0.449230 -0.616717
O6    O     O_R   0.590130 0.641530 0.550740 -0.626063
O7    O     O_R   0.409280 0.448930 0.358210 -0.613053
O8    O     O_R   0.408640 0.551060 0.459720 -0.626035
C3    C     C_R   0.616905 0.618590 0.497268 0.925686
C4    C     C_R   0.378186 0.497754 0.379912 0.935821
H1    H     H_    0.531109 0.202197 0.552930 0.131692
C5    C     C_R   0.773526 0.661450 0.761523 -0.145878
C6    C     C_R   0.841099 0.739321 0.836490 -0.152936
C7    C     C_R   0.894544 0.738800 0.907866 -0.105947
C8    C     C_R   0.883648 0.660462 0.902413 -0.110978
C9    C     C_R   0.818283 0.580549 0.824618 0.062725
C10   C     C_R   0.758119 0.580941 0.756855 0.075528
C11   C     C_R   0.811793 0.500477 0.812460 -0.202016
C12   C     C_R   0.741521 0.420648 0.738593 0.073338
C13   C     C_R   0.672951 0.420980 0.679884 0.080113
C14   C     C_R   0.684248 0.501017 0.686780 -0.200517
C15   C     C_R   0.737415 0.340233 0.721963 -0.143062
C16   C     C_R   0.662391 0.262289 0.654942 -0.138543
C17   C     C_R   0.590400 0.262678 0.603319 -0.147723
C18   C     C_R   0.595210 0.340988 0.615295 -0.137533
H2    H     H_    0.734458 0.665682 0.707716 0.153797
H3    H     H_    0.851145 0.800194 0.839621 0.142450
H4    H     H_    0.945467 0.799237 0.967159 0.159899
H5    H     H_    0.926590 0.663737 0.960053 0.170221
H6    H     H_    0.791765 0.336273 0.759745 0.147584
H7    H     H_    0.659720 0.201479 0.643991 0.136327
H8    H     H_    0.537206 0.337747 0.573825 0.142496
C19   C     C_2   0.258988 0.181271 0.506652 -0.147684
C20   C     C_2   0.182182 0.176175 0.488642 -0.323921
H9    H     H_    0.275218 0.138249 0.525838 0.163715
H10   H     H_    0.162110 0.212081 0.459842 0.158033
C21   C     C_2   0.320569 0.242725 0.495917 -0.159898
C22   C     C_2   0.324355 0.318510 0.512561 -0.328460
H11   H     H_    0.364468 0.227089 0.477453 0.157329
H12   H     H_    0.287614 0.338174 0.540710 0.159399
C23   C     C_2   0.173648 0.422161 0.177441 -0.151292
C24   C     C_2   0.185283 0.494443 0.174239 -0.331504
H13   H     H_    0.111756 0.362182 0.133039 0.165504
H14   H     H_    0.249589 0.551442 0.211177 0.157516
C25   C     C_2   0.246574 0.422187 0.238324 -0.150589
C26   C     C_2   0.306869 0.494033 0.315373 -0.334352
H15   H     H_    0.248298 0.362440 0.221840 0.166788
H16   H     H_    0.299500 0.550597 0.335990 0.156499
C27   C     C_2   0.741245 0.818677 0.493577 -0.150478
C28   C     C_2   0.817949 0.823682 0.511284 -0.331040
H17   H     H_    0.724974 0.861742 0.474516 0.166842
H18   H     H_    0.838115 0.787762 0.540000 0.156484
C29   C     C_2   0.679873 0.757307 0.504537 -0.158343
C30   C     C_2   0.676073 0.681518 0.487877 -0.332030
H19   H     H_    0.635983 0.772931 0.523027 0.165756
H20   H     H_    0.712782 0.661806 0.459713 0.162837
O9    O     O_R   0.946350 0.358500 0.906960 -0.635205
O10   O     O_R   0.048480 0.460610 0.906920 -0.611718
C31   C     C_R   0.995433 0.380872 0.876250 0.924088
O11   O     O_R   0.854760 0.448970 0.905840 -0.616695
O12   O     O_R   0.956890 0.551080 0.905790 -0.630080
C32   C     C_R   0.877590 0.500039 0.877541 0.880550
Zn3   Zn    Zn3+2 0.928680 0.431850 0.996880 0.962975
Zn4   Zn    Zn3+2 0.065060 0.568210 0.996820 0.957390
O13   O     O_R   0.945260 0.539450 0.086770 -0.617804
O14   O     O_R   0.047380 0.641560 0.086730 -0.622474
O15   O     O_R   0.036850 0.448980 0.087900 -0.617744
O16   O     O_R   0.138970 0.551100 0.087860 -0.625213
C33   C     C_R   0.000308 0.618388 0.119724 0.927574
C34   C     C_R   0.116879 0.498055 0.114417 0.928039
O17   O     O_R   0.050830 0.090460 0.641300 -0.621761
O18   O     O_R   0.948030 0.090450 0.538510 -0.622875
C35   C     C_R   0.002407 0.121354 0.618988 0.924154
O19   O     O_R   0.141850 0.090470 0.551380 -0.618364
O20   O     O_R   0.039050 0.090460 0.448590 -0.624475
C36   C     C_R   0.118697 0.116766 0.497418 0.921798
Zn5   Zn    Zn3+2 0.068640 0.000010 0.568630 0.957090
Zn6   Zn    Zn3+2 0.931360 0.999990 0.431370 1.003082
O21   O     O_R   0.051970 0.909550 0.461490 -0.641990
O22   O     O_R   0.949170 0.909540 0.358700 -0.563308
O23   O     O_R   0.960950 0.909540 0.551410 -0.623456
O24   O     O_R   0.858150 0.909530 0.448620 -0.606183
C37   C     C_R   0.002105 0.883272 0.380406 0.838675
C38   C     C_R   0.881328 0.883172 0.502521 0.941223
C39   C     C_2   0.996815 0.253533 0.673872 -0.154520
C40   C     C_2   0.012383 0.194113 0.687506 -0.330835
H21   H     H_    0.979037 0.250607 0.610969 0.166579
H22   H     H_    0.039878 0.202502 0.752837 0.158924
C41   C     C_2   0.007269 0.325822 0.745771 -0.153194
C42   C     C_2   0.988231 0.313200 0.804911 -0.341203
H23   H     H_    0.026562 0.387645 0.747837 0.168104
H24   H     H_    0.959361 0.248885 0.796911 0.157244
C43   C     C_2   0.077904 0.820138 0.323827 -0.303081
C44   C     C_2   0.006646 0.827396 0.309002 0.156869
H25   H     H_    0.134898 0.858531 0.388715 0.157039
C45   C     C_2   0.079390 0.758618 0.252570 -0.115925
C46   C     C_2   0.008578 0.680383 0.196477 -0.249652
H26   H     H_    0.137313 0.777163 0.246479 0.163844
H27   H     H_    0.955043 0.659694 0.209247 0.171119
N1    N     N_R   0.937907 0.790536 0.221030 0.219174
O25   O     O_R   0.857157 0.753886 0.202026 -0.382350
O26   O     O_R   0.956120 0.803156 0.163344 -0.389465

loop_
_geom_bond_atom_site_label_1
_geom_bond_atom_site_label_2
_geom_bond_distance
_ccdc_geom_bond_type
O21   C37   1.292071 A    
C1    C22   1.437801 S    
C41   C42   1.335941 D    
C21   C22   1.336783 D    
C8    C9    1.420449 A    
O22   C37   1.271683 A    
O20   Zn6   2.003976 S    
N1    O26   1.302029 A    
C43   C44   1.345826 D    
C29   C30   1.336698 D    
C23   C24   1.338165 D    
Zn1   O7    2.022442 S    
C18   H8    1.080463 S    
C15   C16   1.392948 A    
C5    C10   1.420524 A    
C17   C18   1.392555 A    
C20   H10   1.087012 S    
C19   C20   1.336854 D    
O4    C2    1.269638 A    
O7    C4    1.281604 A    
O19   C36   1.283759 A    
C29   H19   1.086441 S    
C2    C14   1.429005 S    
C5    H2    1.080039 S    
C7    C8    1.392538 A    
C12   C15   1.420687 A    
O9    C31   1.269635 A    
O5    C3    1.270576 A    
C13   C18   1.420527 A    
C11   C32   1.428570 S    
C43   H25   1.086279 S    
C15   H6    1.080556 S    
C5    C6    1.392876 A    
C25   H15   1.086289 S    
C26   H16   1.086633 S    
C12   C13   1.397993 A    
O13   C33   1.269263 A    
C39   H21   1.086453 S    
Zn3   O15   2.015911 S    
Zn4   O16   2.014172 S    
C37   C44   1.451158 S    
C23   H13   1.086326 S    
C41   H23   1.086397 S    
C39   C41   1.462788 S    
C21   H11   1.086477 S    
C22   H12   1.086992 S    
O3    Zn1   2.007829 S    
N1    O25   1.301373 A    
Zn5   O21   1.995721 S    
C24   H14   1.086601 S    
C27   H17   1.086417 S    
C28   H18   1.087045 S    
C35   C40   1.438165 S    
O11   Zn3   2.014388 S    
C13   C14   1.413995 A    
O16   C34   1.271024 A    
C8    H5    1.080326 S    
O18   Zn6   1.995722 S    
C27   C29   1.462266 S    
O17   Zn5   2.010466 S    
C3    C30   1.437432 S    
C16   H7    1.082553 S    
Zn6   O24   2.002220 S    
Zn3   O13   2.006051 S    
O11   C32   1.269026 A    
O10   C31   1.279492 A    
O4    Zn2   2.022442 S    
O9    Zn3   1.999205 S    
C40   H22   1.086997 S    
C31   C42   1.437467 S    
C23   C25   1.468892 S    
Zn2   O8    2.007829 S    
O12   Zn4   2.015997 S    
O14   C33   1.279661 A    
C45   H26   1.086092 S    
C6    C7    1.387721 A    
O18   C35   1.283340 A    
C42   H24   1.087065 S    
O17   C35   1.276038 A    
O3    C2    1.269938 A    
C9    C11   1.414153 A    
O12   C32   1.270291 A    
Zn6   O22   2.010465 S    
C6    H3    1.082568 S    
C7    H4    1.082601 S    
C24   C34   1.443042 S    
C43   C45   1.465427 S    
C46   H27   1.087982 S    
O23   C38   1.275258 A    
Zn1   O5    2.006083 S    
C10   C14   1.414478 A    
O1    Zn1   1.999236 S    
Zn2   O6    1.999234 S    
O2    Zn2   2.006083 S    
O8    C4    1.270365 A    
O6    C3    1.278407 A    
O15   C34   1.280933 A    
C27   C28   1.336376 D    
O10   Zn4   2.006134 S    
O2    C1    1.270694 A    
C19   H9    1.086422 S    
C28   C38   1.437610 S    
O19   Zn5   2.002219 S    
H1    C17   1.082611 S    
C4    C26   1.442867 S    
C20   C36   1.438157 S    
C44   N1    1.445572 S    
C33   C46   1.438425 S    
C45   C46   1.336068 D    
O24   C38   1.283854 A    
C19   C21   1.462624 S    
O20   C36   1.275708 A    
C9    C10   1.399323 A    
Zn4   O14   1.999208 S    
C25   C26   1.337494 D    
C16   C17   1.387886 A    
C11   C12   1.413951 A    
O1    C1    1.278525 A    
C39   C40   1.337275 D    
C30   H20   1.086980 S    
Zn5   O23   2.003977 S    
