data_mof_unit_37640.cif
_audit_creation_date              2012-12-11T16:57:12-0500
_audit_creation_method            fapswitch 2.2
_symmetry_space_group_name_H-M    P1
_symmetry_Int_Tables_number       1
_space_group_crystal_system       triclinic
_cell_length_a                    14.493677
_cell_length_b                    16.17789
_cell_length_c                    6.974649
_cell_angle_alpha                 89.96101
_cell_angle_beta                  98.340871
_cell_angle_gamma                 90.02223
_cell_volume                      1618.09681919

loop_
_atom_site_label
_atom_site_type_symbol
_atom_type_description
_atom_site_fract_x
_atom_site_fract_y
_atom_site_fract_z
_atom_type_partial_charge
O1    O     O_R   0.584990 0.413650 0.534420 -0.542606
O2    O     O_R   0.584990 0.586350 0.534420 -0.542859
O3    O     O_R   0.596190 0.585230 0.208380 -0.547075
O4    O     O_R   0.596190 0.414770 0.208380 -0.546728
O5    O     O_R   0.415010 0.586420 0.976930 -0.539987
O6    O     O_R   0.415010 0.413580 0.976930 -0.538797
C1    C     C_R   0.618583 0.614384 0.383703 0.701332
C2    C     C_R   0.618594 0.385624 0.383773 0.703664
O7    O     O_3   0.440560 0.500000 0.319140 -0.353631
V1    V     V_3+5 0.511030 0.500000 0.068070 1.452064
O8    O     O_R   0.403810 0.414840 0.643540 -0.514533
O9    O     O_R   0.403810 0.585160 0.643540 -0.514978
C3    C     C_R   0.381806 0.386379 0.806960 0.740474
C4    C     C_R   0.381910 0.613660 0.806831 0.737878
V2    V     V_3+5 0.488970 0.500000 0.560620 1.535670
O10   O     O_3   0.559440 0.500000 0.859420 -0.393608
H1    H     H_    0.182612 0.802157 0.806447 0.195564
H2    H     H_    0.177212 0.201869 0.807399 0.144952
H3    H     H_    0.275110 0.660913 0.071089 0.207871
H4    H     H_    0.270806 0.342184 0.066823 0.198875
C5    C     C_2   0.318698 0.685139 0.802213 -0.258097
C6    C     C_2   0.318547 0.314868 0.803129 -0.254779
C7    C     C_2   0.271231 0.702979 0.948854 -0.044438
C8    C     C_2   0.269031 0.298728 0.947783 -0.033988
C9    C     C_2   0.194310 0.817326 0.110381 0.255472
C10   C     C_2   0.194697 0.182531 0.110275 0.297803
C11   C     C_2   0.213005 0.778734 0.947356 -0.208541
C12   C     C_2   0.210736 0.223139 0.947654 -0.233515
H5    H     H_    0.317904 0.728060 0.685344 0.254559
H6    H     H_    0.319729 0.270382 0.689744 0.245362
C13   C     C_R   0.685074 0.740242 0.568663 0.141029
C14   C     C_R   0.685171 0.259725 0.568858 0.144672
C15   C     C_R   0.684640 0.685573 0.412492 -0.113436
C16   C     C_R   0.684676 0.314457 0.412624 -0.114361
C17   C     C_R   0.747178 0.703028 0.280594 -0.176285
C18   C     C_R   0.747140 0.297051 0.280586 -0.176432
H7    H     H_    0.749604 0.663068 0.157478 0.134375
H8    H     H_    0.749526 0.337060 0.157413 0.134346
C19   C     C_R   0.811954 0.768748 0.313817 -0.159136
C20   C     C_R   0.811885 0.231316 0.313697 -0.160742
H9    H     H_    0.861780 0.777522 0.214266 0.131321
H10   H     H_    0.861658 0.222597 0.214053 0.130626
C21   C     C_R   0.816747 0.818899 0.480676 -0.115886
C22   C     C_R   0.816730 0.181085 0.480577 -0.112506
C23   C     C_R   0.749385 0.804775 0.602170 0.110149
C24   C     C_R   0.749457 0.195182 0.602258 0.112395
C25   C     C_3   0.761356 0.791831 0.815765 -0.417498
C26   C     C_3   0.761572 0.208063 0.815843 -0.417821
C27   C     C_3   0.690889 0.721942 0.779335 -0.403661
C28   C     C_3   0.691145 0.277959 0.779525 -0.404305
H11   H     H_    0.735656 0.845214 0.893199 0.183624
H12   H     H_    0.735893 0.154655 0.893436 0.184680
H13   H     H_    0.832777 0.770234 0.873547 0.171150
H14   H     H_    0.833034 0.229646 0.873399 0.170252
H15   H     H_    0.624286 0.735133 0.834838 0.181822
H16   H     H_    0.624585 0.264750 0.835256 0.183872
H17   H     H_    0.721222 0.659900 0.816872 0.166073
H18   H     H_    0.721541 0.339993 0.816880 0.165325
O11   O     O_R   0.921430 0.915960 0.371040 -0.538247
O12   O     O_R   0.921430 0.084040 0.371040 -0.540577
O13   O     O_R   0.910450 0.087500 0.697310 -0.546243
O14   O     O_R   0.910450 0.912500 0.697310 -0.545240
O15   O     O_R   0.091710 0.087460 0.928430 -0.562260
O16   O     O_R   0.091710 0.912540 0.928430 -0.552982
C29   C     C_R   0.888083 0.114362 0.519774 0.691540
C30   C     C_R   0.888086 0.885635 0.519840 0.703129
O17   O     O_3   0.065970 1.000000 0.586140 -0.358130
V3    V     V_3+5 0.995640 1.000000 0.837400 1.429939
O18   O     O_R   0.103020 0.915700 0.261710 -0.495311
O19   O     O_R   0.103020 0.084300 0.261710 -0.516784
C31   C     C_R   0.125816 0.886307 0.099809 0.647996
C32   C     C_R   0.125815 0.113742 0.099699 0.637434
V4    V     V_3+5 0.017940 1.000000 0.344880 1.511710
O20   O     O_3   0.947330 1.000000 0.046180 -0.378941
S1    S     S_3+6 0.248473 0.785359 0.340995 -0.057589
O21   O     O_2   0.193794 0.713451 0.402012 -0.350395
O22   O     O_2   0.347417 0.758784 0.334323 -0.361771
O23   O     O_3   0.249234 0.862007 0.504167 -0.508204
H19   H     H_    0.290922 0.904791 0.462043 0.346060
S2    S     S_3+6 0.251660 0.210869 0.341451 -0.049117
O24   O     O_2   0.344221 0.251290 0.330896 -0.336337
O25   O     O_2   0.189071 0.270585 0.426080 -0.385180
O26   O     O_3   0.270776 0.126698 0.484020 -0.502901
H20   H     H_    0.218057 0.124117 0.559294 0.341380

loop_
_geom_bond_atom_site_label_1
_geom_bond_atom_site_label_2
_ccdc_geom_bond_type
O1    C2    A    
C10   C32   S    
V4    O20   S    
C17   C19   A    
O2    C1    A    
O4    C2    A    
C19   H9    S    
C26   H14   S    
O16   V3    S    
C4    C5    S    
C17   H7    S    
O3    C1    A    
O11   C30   A    
V3    O20   S    
V2    O10   S    
O12   V4    S    
C27   H17   S    
O16   C31   A    
O18   C31   A    
O8    V2    S    
H4    C8    S    
C13   C15   A    
O18   V4    S    
O1    V2    S    
C7    C11   S    
O7    V1    S    
O11   V4    S    
C25   H13   S    
C20   H10   S    
C1    C15   S    
C22   C29   S    
C13   C27   S    
S2    O26   S    
C25   C27   S    
C22   C24   A    
C23   C25   S    
C24   C26   S    
O14   C30   A    
O17   V3    S    
C28   H18   S    
C18   C20   A    
H2    C12   S    
S2    O25   D    
O23   H19   S    
C19   C21   A    
C27   H15   S    
C5    H5    S    
C28   H16   S    
C9    S1    S    
H1    C11   S    
H3    C7    S    
S1    O21   D    
C21   C23   A    
O26   H20   S    
O9    V2    S    
C20   C22   A    
O19   V4    S    
C2    C16   S    
O2    V2    S    
S1    O22   D    
C14   C28   S    
O5    C4    A    
C9    C31   S    
O17   V4    S    
O9    C4    A    
O12   C29   A    
C5    C7    D    
C6    C8    D    
O4    V1    S    
O15   V3    S    
C6    H6    S    
C14   C24   A    
C8    C12   S    
S2    O24   D    
O6    V1    S    
C25   H11   S    
C9    C11   D    
C10   C12   D    
O14   V3    S    
C18   H8    S    
O7    V2    S    
O5    V1    S    
O3    V1    S    
V1    O10   S    
O6    C3    A    
O8    C3    A    
O13   V3    S    
C21   C30   S    
C26   C28   S    
C15   C17   A    
C3    C6    S    
C16   C18   A    
S1    O23   S    
C10   S2    S    
O13   C29   A    
C26   H12   S    
O15   C32   A    
C13   C23   A    
O19   C32   A    
C14   C16   A    
