data_mof_unit_47495.cif
_audit_creation_date              2012-10-26T21:01:04-0400
_audit_creation_method            fapswitch 2.2
_symmetry_space_group_name_H-M    P1
_symmetry_Int_Tables_number       1
_space_group_crystal_system       triclinic
_cell_length_a                    10.933411
_cell_length_b                    10.861616
_cell_length_c                    9.545334
_cell_angle_alpha                 90.020157
_cell_angle_beta                  89.852647
_cell_angle_gamma                 90.173346
_cell_volume                      1133.54247593

loop_
_atom_site_label
_atom_site_type_symbol
_atom_type_description
_atom_site_fract_x
_atom_site_fract_y
_atom_site_fract_z
_atom_type_partial_charge
C1    C     C_R   0.500467 0.262701 0.499833 0.551646
C2    C     C_R   0.435674 0.414553 0.074594 -0.016518
C3    C     C_R   0.435574 0.414621 0.925708 -0.014685
C4    C     C_R   0.265326 0.498009 0.500223 0.555451
C5    C     C_R   0.555001 0.593462 0.926106 0.157746
C6    C     C_3   0.686617 0.629440 0.920039 -0.279477
C7    C     C_3   0.686118 0.630355 0.079016 -0.278426
C8    C     C_R   0.500776 0.737298 0.499862 0.551755
C9    C     C_R   0.734681 0.501293 0.499984 0.554885
C10   C     C_2   0.933302 0.489798 0.385821 -0.161001
C11   C     C_2   0.866683 0.507697 0.501982 -0.117226
C12   C     C_R   0.503159 0.130097 0.498208 0.010288
C13   C     C_2   0.067162 0.496275 0.385239 -0.160558
C14   C     C_2   0.133333 0.490843 0.502972 -0.117785
C15   C     C_R   0.494003 0.062018 0.620667 0.021266
C16   C     C_R   0.515257 0.064586 0.371116 -0.163521
C17   C     C_R   0.515526 0.935390 0.371176 -0.162862
C18   C     C_R   0.503656 0.869914 0.498334 0.008873
C19   C     C_R   0.494412 0.938063 0.620782 0.019667
C20   C     C_3   0.474708 0.929296 0.774983 -0.265471
C21   C     C_3   0.474166 0.071076 0.774772 -0.272790
C22   C     C_R   0.554731 0.593676 0.073455 0.157424
Cu1   Cu    Cu3+1 0.499990 0.499980 0.640670 0.937569
Cu2   Cu    Cu3+1 0.500010 0.500020 0.359330 0.935096
H1    H     H_    0.888965 0.471424 0.286376 0.137176
H2    H     H_    0.384553 0.887903 0.801845 0.141996
H3    H     H_    0.554555 0.889224 0.830094 0.131213
H4    H     H_    0.383572 0.111084 0.801320 0.126852
H5    H     H_    0.745194 0.557815 0.124507 0.147375
H6    H     H_    0.698733 0.723794 0.124397 0.121399
H7    H     H_    0.111938 0.503497 0.283820 0.147504
H8    H     H_    0.524240 0.887563 0.272065 0.132325
H9    H     H_    0.553682 0.112857 0.829629 0.139695
H10   H     H_    0.385471 0.343975 0.130486 0.113337
H11   H     H_    0.385140 0.344253 0.870066 0.110739
H12   H     H_    0.745685 0.556068 0.875376 0.152308
H13   H     H_    0.700372 0.722181 0.873521 0.117897
H14   H     H_    0.907632 0.529913 0.601982 0.094895
H15   H     H_    0.091982 0.477718 0.605023 0.098902
H16   H     H_    0.523785 0.112378 0.271977 0.131984
N1    N     N_R   0.500780 0.500930 0.147930 -0.231765
N2    N     N_R   0.500780 0.500890 0.852020 -0.230834
O1    O     O_R   0.500000 0.319640 0.618810 -0.505160
O2    O     O_R   0.500010 0.319680 0.381230 -0.514856
O3    O     O_R   0.321940 0.499980 0.618760 -0.503513
O4    O     O_R   0.321950 0.500020 0.381180 -0.499191
O5    O     O_R   0.499990 0.680320 0.618770 -0.498459
O6    O     O_R   0.500000 0.680360 0.381190 -0.506247
O7    O     O_R   0.678050 0.499980 0.618820 -0.505803
O8    O     O_R   0.678060 0.500020 0.381240 -0.501118

loop_
_geom_bond_atom_site_label_1
_geom_bond_atom_site_label_2
_ccdc_geom_bond_type
C11   H14   S    
C5    N2    A    
C8    O6    A    
C3    N2    A    
C6    C7    S    
C7    H5    S    
C20   H3    S    
C7    C22   S    
C1    O2    A    
C19   C20   S    
C12   C15   A    
C3    H11   S    
Cu1   Cu2   S    
Cu2   O4    S    
C2    H10   S    
C2    C3    A    
C8    O5    A    
Cu1   O1    S    
C7    H6    S    
C4    O4    A    
C13   C14   D    
C15   C19   A    
Cu2   N1    S    
C9    C11   S    
Cu2   O8    S    
Cu1   N2    S    
C20   H2    S    
C16   H16   S    
Cu1   O3    S    
C10   H1    S    
C21   H4    S    
C6    H12   S    
C17   C18   A    
C4    O3    A    
C4    C14   S    
C5    C6    S    
Cu2   O2    S    
C8    C18   S    
C6    H13   S    
C22   N1    A    
Cu1   O5    S    
C10   C11   D    
C5    C22   A    
C2    N1    A    
Cu2   O6    S    
C12   C16   A    
C15   C21   S    
C9    O7    A    
C20   C21   S    
C18   C19   A    
C17   H8    S    
C13   H7    S    
C21   H9    S    
C14   H15   S    
C1    O1    A    
C1    C12   S    
C9    O8    A    
Cu1   O7    S    
C16   C17   A    
C10   C13   S    
