data_mof_unit_15271.cif
_audit_creation_date              2012-12-10T17:48:57-0500
_audit_creation_method            fapswitch 2.2
_symmetry_space_group_name_H-M    P1
_symmetry_Int_Tables_number       1
_space_group_crystal_system       triclinic
_cell_length_a                    10.816519
_cell_length_b                    14.658916
_cell_length_c                    14.923358
_cell_angle_alpha                 63.162033
_cell_angle_beta                  106.193704
_cell_angle_gamma                 102.197541
_cell_volume                      2017.49278707

loop_
_atom_site_label
_atom_site_type_symbol
_atom_type_description
_atom_site_fract_x
_atom_site_fract_y
_atom_site_fract_z
_atom_type_partial_charge
C1    C     C_R   0.487566 0.119529 0.311775 0.912855
C2    C     C_3   0.882511 0.993416 0.512161 -0.192837
C3    C     C_3   0.948376 0.894925 0.597598 0.303846
C4    C     C_3   0.968322 0.087411 0.531725 0.217714
C5    C     C_R   0.502233 0.183563 0.203239 -0.180791
C6    C     C_R   0.546402 0.807889 0.799099 -0.172240
C7    C     C_R   0.472091 0.218471 0.022733 -0.232886
C8    C     C_R   0.450313 0.152107 0.121069 0.434684
C9    C     C_R   0.580160 0.277224 0.182587 -0.230873
C10   C     C_R   0.582804 0.350657 0.081444 0.123146
C11   C     C_R   0.531626 0.318061 0.001627 0.077302
C12   C     C_R   0.259957 0.003507 0.495522 0.902459
C13   C     C_R   0.621039 0.457292 0.056324 0.012657
C14   C     C_R   0.600661 0.528853 0.951470 0.094443
C15   C     C_R   0.568874 0.490349 0.875335 -0.159194
C16   C     C_R   0.535121 0.386468 0.900442 -0.183616
C17   C     C_R   0.664969 0.495342 0.132337 -0.188964
C18   C     C_R   0.660319 0.598030 0.109546 0.334203
C19   C     C_R   0.621086 0.667689 0.006298 -0.059123
C20   C     C_R   0.600927 0.635000 0.926592 0.048286
C21   C     C_R   0.596134 0.767947 0.980884 -0.137416
C22   C     C_R   0.550737 0.835641 0.879310 0.399894
C23   C     C_R   0.521387 0.879052 0.688656 0.866250
C24   C     C_R   0.571555 0.708316 0.824299 -0.207932
C25   C     C_R   0.721879 0.269960 0.680683 -0.278003
C26   C     C_R   0.682330 0.193303 0.644594 0.147943
C27   C     C_R   0.515600 0.290110 0.515731 0.498627
C28   C     C_R   0.536042 0.357903 0.564529 -0.068202
C29   C     C_R   0.650647 0.354354 0.638577 0.077334
C30   C     C_R   0.453841 0.435538 0.535309 0.071405
C31   C     C_R   0.505035 0.526007 0.550588 0.060551
C32   C     C_R   0.625870 0.523787 0.619051 -0.155273
C33   C     C_R   0.693481 0.436515 0.667075 -0.116187
C34   C     C_R   0.741845 0.994090 0.509247 0.831504
C35   C     C_R   0.320587 0.422354 0.496320 -0.181476
C36   C     C_R   0.245290 0.505157 0.448584 0.368438
C37   C     C_R   0.303898 0.603619 0.441546 0.027552
C38   C     C_R   0.432461 0.613772 0.496827 -0.052172
C39   C     C_R   0.236500 0.691810 0.383477 -0.206668
C40   C     C_R   0.293616 0.786487 0.383352 0.114533
C41   C     C_R   0.482794 0.711810 0.495441 0.041590
C42   C     C_3   0.027930 0.006384 0.395826 0.276274
C43   C     C_3   0.888723 0.007202 0.403593 -0.453866
C44   C     C_3   0.088871 0.902990 0.587368 -0.482164
C45   C     C_3   0.105578 0.097212 0.513900 -0.368347
C46   C     C_3   0.123330 0.004258 0.496644 -0.145361
Cu1   Cu    Cu3+1 0.465900 0.918260 0.475680 1.031710
Cu2   Cu    Cu3+1 0.534100 0.081740 0.524320 1.098335
H1    H     H_    0.032691 0.934571 0.389210 0.154260
H2    H     H_    0.954526 0.892213 0.673879 0.199166
H3    H     H_    0.502630 0.360825 0.839150 0.149693
H4    H     H_    0.566442 0.689411 0.761737 0.188074
H5    H     H_    0.435311 0.194999 0.960160 0.194300
H6    H     H_    0.639669 0.290643 0.246813 0.203467
H7    H     H_    0.698644 0.445299 0.211219 0.223636
H8    H     H_    0.782944 0.435605 0.722785 0.172908
H9    H     H_    0.573021 0.721626 0.542770 0.169984
H10   H     H_    0.805835 0.261993 0.742725 0.170718
H11   H     H_    0.848056 0.080332 0.345987 0.206448
H12   H     H_    0.667060 0.586168 0.640695 0.202839
H13   H     H_    0.825352 0.946819 0.382651 0.222621
H14   H     H_    0.103921 0.836534 0.575835 0.231596
H15   H     H_    0.181773 0.104378 0.578308 0.244291
H16   H     H_    0.121753 0.170182 0.446835 0.239391
H17   H     H_    0.924291 0.159272 0.474381 0.179147
N1    N     N_R   0.585360 0.204570 0.560800 -0.242595
N2    N     N_R   0.414550 0.795430 0.439160 -0.185976
O1    O     O_R   0.455060 0.022100 0.338110 -0.516472
O2    O     O_R   0.512640 0.160150 0.379180 -0.507496
O3    O     O_R   0.288900 0.930980 0.479450 -0.610594
O4    O     O_R   0.346480 0.069030 0.520520 -0.554778
O5    O     O_R   0.487360 0.839850 0.620820 -0.596332
O6    O     O_R   0.544940 0.977900 0.661890 -0.530102
O7    O     O_R   0.653520 0.930970 0.479480 -0.574287
O8    O     O_R   0.711100 0.069020 0.520550 -0.571325
S1    S     S_3+6 0.980538 0.082744 0.658419 -0.003547
O9    O     O_2   0.872392 0.012447 0.707639 -0.319264
O10   O     O_2   0.105843 0.044467 0.729832 -0.237623
O11   O     O_3   0.974733 0.202421 0.643991 -0.517629
H18   H     H_    0.998509 0.198391 0.714670 0.371859
H19   H     H_    0.156380 0.899141 0.660362 0.216678
S2    S     S_3+6 0.491633 0.948622 0.859949 0.043856
O12   O     O_2   0.383158 0.980711 0.766972 -0.286772
O13   O     O_2   0.442416 0.928941 0.952516 -0.217176
O14   O     O_3   0.613411 0.043093 0.845694 -0.533063
H20   H     H_    0.577248 0.100731 0.843945 0.368104
S3    S     S_3+6 0.696205 0.634152 0.213660 0.083666
O15   O     O_2   0.576270 0.665954 0.219294 -0.235179
O16   O     O_2   0.741811 0.546447 0.314080 -0.165270
O17   O     O_3   0.811445 0.733989 0.194673 -0.473616
H21   H     H_    0.887147 0.708394 0.191495 0.373362
S4    S     S_3+6 0.360599 0.031850 0.134255 0.055538
O18   O     O_2   0.248954 0.014951 0.183037 -0.252611
O19   O     O_2   0.308248 0.028802 0.031007 -0.226033
O20   O     O_3   0.458354 0.937629 0.207657 -0.500284
H22   H     H_    0.410134 0.875966 0.198420 0.389307
S5    S     S_3+6 0.062733 0.111237 0.278111 0.029137
O21   O     O_2   0.023717 0.210188 0.264110 -0.267906
O22   O     O_2   0.203879 0.124927 0.277670 -0.263933
O23   O     O_3   0.977431 0.082766 0.179476 -0.473503
H23   H     H_    0.002927 0.140324 0.117577 0.392657
H24   H     H_    0.561577 0.538233 0.794681 0.136101
H25   H     H_    0.605339 0.793354 0.040161 0.244895
H26   H     H_    0.237014 0.851329 0.344659 0.188063
S6    S     S_3+6 0.078472 0.482193 0.398713 0.046058
O24   O     O_2   0.051060 0.538845 0.283661 -0.246044
O25   O     O_2   0.038947 0.369541 0.427033 -0.259316
O26   O     O_3   0.991530 0.525582 0.446305 -0.458956
H27   H     H_    0.010765 0.483215 0.521408 0.356632
H28   H     H_    0.730162 0.124656 0.683592 0.233527
S7    S     S_3+6 0.445738 0.340871 0.381568 0.049804
O27   O     O_2   0.549730 0.350182 0.329428 -0.305692
O28   O     O_2   0.332028 0.270315 0.358339 -0.249509
O29   O     O_3   0.400261 0.460230 0.329135 -0.496468
H29   H     H_    0.369717 0.477712 0.254752 0.399919
H30   H     H_    0.276852 0.348077 0.498111 0.190489
H31   H     H_    0.138784 0.688672 0.339789 0.222886
S8    S     S_3+6 0.866328 0.771283 0.611306 -0.026457
O30   O     O_2   0.954060 0.690362 0.687815 -0.247189
O31   O     O_2   0.750566 0.755834 0.655040 -0.376342
O32   O     O_3   0.825605 0.757763 0.500216 -0.494977
H32   H     H_    0.740209 0.784029 0.465156 0.359295

loop_
_geom_bond_atom_site_label_1
_geom_bond_atom_site_label_2
_ccdc_geom_bond_type
C24   H4    S    
S3    O15   D    
O20   H22   S    
C19   C20   A    
S1    O11   S    
Cu2   O2    S    
O29   H29   S    
C7    C8    A    
C41   N2    A    
C45   C46   S    
C7    C11   A    
S6    O25   D    
C30   C35   A    
C1    C5    S    
C22   S2    S    
C28   C29   A    
C19   C21   A    
S1    O10   D    
O14   H20   S    
C4    H17   S    
C15   C16   A    
C6    C22   A    
C29   C33   A    
C1    O1    A    
O26   H27   S    
C18   C19   A    
C42   C46   S    
S8    O30   D    
S4    O18   D    
C12   O3    A    
C20   C24   A    
C40   N2    A    
C16   H3    S    
C8    S4    S    
C9    C10   A    
C17   H7    S    
C43   H11   S    
C34   O8    A    
C2    C34   S    
C33   H8    S    
C27   S7    S    
C13   C14   A    
Cu2   O8    S    
C23   O6    A    
Cu2   O6    S    
Cu1   N2    S    
S5    O22   D    
C3    H2    S    
C44   C46   S    
S5    O21   D    
C4    C45   S    
C25   C29   A    
S6    O26   S    
C3    C44   S    
C26   N1    A    
C14   C20   A    
S1    O9    D    
C38   C41   A    
C12   C46   S    
C44   H19   S    
C42   S5    S    
C39   C40   A    
C44   H14   S    
C25   C26   A    
C39   H31   S    
C45   H15   S    
S4    O20   S    
C1    O2    A    
C35   C36   A    
C2    C4    S    
Cu1   O3    S    
C5    C9    A    
C37   C38   A    
C3    S8    S    
C40   H26   S    
C11   C16   A    
Cu1   Cu2   S    
C2    C43   S    
C6    C24   A    
S4    O19   D    
C17   C18   A    
C35   H30   S    
S7    O28   D    
O32   H32   S    
C34   O7    A    
C12   O4    A    
S2    O13   D    
S3    O16   D    
C42   C43   S    
C7    H5    S    
Cu2   O4    S    
Cu1   O1    S    
S5    O23   S    
C43   H13   S    
C26   H28   S    
C36   C37   A    
S7    O27   D    
C36   S6    S    
C23   O5    A    
C31   C32   A    
Cu1   O7    S    
C10   C13   A    
C5    C8    A    
S2    O14   S    
S6    O24   D    
C45   H16   S    
C18   S3    S    
C31   C38   A    
C13   C17   A    
C32   C33   A    
C28   C30   A    
C2    C3    S    
C41   H9    S    
C37   C39   A    
C27   N1    A    
O17   H21   S    
C30   C31   A    
C6    C23   S    
O23   H23   S    
S7    O29   S    
C15   H24   S    
S8    O31   D    
Cu1   O5    S    
C4    S1    S    
C10   C11   A    
C42   H1    S    
O11   H18   S    
C21   H25   S    
S2    O12   D    
C25   H10   S    
S3    O17   S    
C27   C28   A    
C32   H12   S    
C14   C15   A    
C9    H6    S    
Cu2   N1    S    
C21   C22   A    
S8    O32   S    
