data_mof_unit_32957.cif
_audit_creation_date              2012-12-11T16:08:28-0500
_audit_creation_method            fapswitch 2.2
_symmetry_space_group_name_H-M    P1
_symmetry_Int_Tables_number       1
_space_group_crystal_system       triclinic
_cell_length_a                    12.980845
_cell_length_b                    13.274631
_cell_length_c                    27.727381
_cell_angle_alpha                 95.045478
_cell_angle_beta                  90.025055
_cell_angle_gamma                 119.336034
_cell_volume                      4143.80771274

loop_
_atom_site_label
_atom_site_type_symbol
_atom_type_description
_atom_site_fract_x
_atom_site_fract_y
_atom_site_fract_z
_atom_type_partial_charge
C1    C     C_R   0.627908 0.895338 0.427397 0.547229
C2    C     C_R   0.199274 0.756717 0.296565 0.011218
C3    C     C_R   0.184782 0.752247 0.196151 0.013175
C4    C     C_R   0.601019 0.221810 0.440536 0.546186
C5    C     C_R   0.203121 0.669594 0.216889 -0.126787
C6    C     C_R   0.208421 0.670705 0.266936 -0.128398
C7    C     C_R   0.166644 0.743600 0.146396 -0.127647
C8    C     C_R   0.129652 0.814310 0.126148 -0.005355
C9    C     C_R   0.198288 0.938820 0.356404 -0.134452
C10   C     C_R   0.180460 0.932146 0.306156 0.010738
C11   C     C_R   0.185223 0.842938 0.276170 0.062408
C12   C     C_R   0.578531 0.338370 0.229092 0.040992
C13   C     C_R   0.162569 0.015076 0.285134 -0.118210
C14   C     C_R   0.147709 0.008452 0.234789 -0.108177
C15   C     C_R   0.153657 0.920612 0.204902 0.011407
C16   C     C_R   0.270160 0.876308 0.425261 0.546713
C17   C     C_R   0.175747 0.839436 0.225724 0.061639
C18   C     C_R   0.130315 0.907373 0.154876 -0.130362
C19   C     C_R   0.216953 0.855100 0.376353 -0.002884
C20   C     C_R   0.752044 0.938874 0.357235 -0.128502
C21   C     C_R   0.757142 0.929374 0.307299 0.013273
C22   C     C_R   0.758907 0.917691 0.206584 0.013264
C23   C     C_R   0.573011 0.324731 0.278954 -0.067400
C24   C     C_R   0.849052 0.013535 0.234652 -0.132334
C25   C     C_R   0.849144 0.018507 0.284860 -0.131235
C26   C     C_R   0.763108 0.909094 0.156661 -0.127218
C27   C     C_R   0.684289 0.805601 0.128730 -0.004265
C28   C     C_R   0.627518 0.898318 0.564668 0.547265
C29   C     C_R   0.563746 0.758915 0.352122 -0.133601
C30   C     C_R   0.570584 0.744977 0.301905 0.009392
C31   C     C_R   0.665239 0.833078 0.279341 0.063672
C32   C     C_R   0.481655 0.648145 0.273587 -0.114858
C33   C     C_R   0.486522 0.638854 0.223132 -0.115936
C34   C     C_R   0.663313 0.318741 0.303884 0.008549
C35   C     C_R   0.578933 0.727542 0.200444 0.006270
C36   C     C_R   0.667299 0.826198 0.228769 0.064170
C37   C     C_R   0.588645 0.717127 0.150245 -0.137293
C38   C     C_R   0.651493 0.859031 0.379396 -0.003475
C39   C     C_R   0.741424 0.301375 0.651469 -0.138770
C40   C     C_R   0.603063 0.227429 0.578404 0.545316
C41   C     C_R   0.755101 0.324073 0.701969 0.007012
C42   C     C_R   0.770943 0.352136 0.803848 0.005872
C43   C     C_R   0.862285 0.349070 0.777880 -0.141125
C44   C     C_R   0.853678 0.333575 0.727213 -0.140932
C45   C     C_R   0.676766 0.345218 0.204267 0.003300
C46   C     C_R   0.779825 0.371504 0.854461 -0.138415
C47   C     C_R   0.688620 0.377541 0.879501 -0.005665
C48   C     C_R   0.557761 0.308539 0.653014 -0.134891
C49   C     C_R   0.566772 0.324779 0.703151 0.001452
C50   C     C_R   0.664781 0.330794 0.727904 0.057804
C51   C     C_R   0.475245 0.327542 0.728841 -0.145253
C52   C     C_R   0.271776 0.879502 0.563442 0.547279
C53   C     C_R   0.479420 0.333765 0.779104 -0.144111
C54   C     C_R   0.576841 0.340794 0.804070 0.001855
C55   C     C_R   0.670856 0.340979 0.778619 0.057084
C56   C     C_1   0.690973 0.367723 0.153973 -0.077205
C57   C     C_R   0.584229 0.353802 0.854231 -0.133163
C58   C     C_R   0.639493 0.287542 0.627284 -0.006410
C59   C     C_1   0.222213 0.863151 0.610197 -0.012517
C60   C     C_R   0.077431 0.746548 0.718121 -0.103386
C61   C     C_R   0.062484 0.736454 0.767736 -0.103391
C62   C     C_R   0.232999 0.928163 0.786047 -0.104655
C63   C     C_R   0.247899 0.938298 0.736396 -0.104458
C64   C     C_1   0.633095 0.269000 0.394822 -0.011101
C65   C     C_R   0.170489 0.847305 0.702334 0.035910
C66   C     C_R   0.140836 0.826746 0.801806 0.036256
C67   C     C_1   0.650987 0.296358 0.354044 -0.057562
C68   C     C_1   0.123956 0.814412 0.852695 -0.058147
C69   C     C_1   0.193456 0.854337 0.651614 -0.057457
C70   C     C_1   0.100506 0.797210 0.894282 -0.014048
C71   C     C_1   0.647422 0.860930 0.609012 -0.014247
C72   C     C_R   0.702510 0.908600 0.734645 -0.104043
C73   C     C_R   0.712922 0.891943 0.783016 -0.101971
C74   C     C_R   0.671726 0.695256 0.758431 -0.106874
C75   C     C_R   0.661079 0.711926 0.709835 -0.105261
C76   C     C_R   0.759746 0.325058 0.279051 -0.107887
C77   C     C_R   0.676484 0.818834 0.697921 0.036921
C78   C     C_1   0.702525 0.394913 0.113122 -0.019159
C79   C     C_R   0.697203 0.785297 0.795099 0.036484
C80   C     C_1   0.710361 0.770582 0.845113 -0.058257
C81   C     C_1   0.661564 0.837482 0.648638 -0.057519
C82   C     C_1   0.725026 0.762029 0.887167 -0.011042
C83   C     C_R   0.065765 0.773466 0.078915 0.550209
C84   C     C_R   0.716877 0.441415 0.067276 0.550171
C85   C     C_R   0.720375 0.782844 0.080991 0.558333
C86   C     C_R   0.056568 0.766231 0.941235 0.538489
C87   C     C_R   0.710235 0.433921 0.929009 0.537027
C88   C     C_R   0.766643 0.338719 0.229533 -0.111291
C89   C     C_R   0.209262 0.760431 0.346378 -0.126182
C90   C     C_R   0.748466 0.754459 0.936879 0.563176
C91   C     C_2   0.481870 0.345603 0.203629 0.208797
Cr1   Cr    Cr6+3 0.416430 0.829200 0.492370 1.022898
Cr2   Cr    Cr6+3 0.674630 0.087020 0.504170 1.021402
Cr3   Cr    Cr6+3 0.408920 0.083740 0.503490 1.022569
Cr4   Cr    Cr6+3 0.914010 0.832750 0.013970 1.019329
Cr5   Cr    Cr6+3 0.922310 0.578600 0.003000 1.018809
Cr6   Cr    Cr6+3 0.656280 0.574630 0.003870 1.020896
H1    H     H_    0.829194 0.318721 0.297879 0.114046
H2    H     H_    0.418054 0.562667 0.201885 0.136524
H3    H     H_    0.408553 0.579768 0.290441 0.121441
H4    H     H_    0.842673 0.344973 0.210942 0.117242
H5    H     H_    0.486634 0.696318 0.369343 0.121496
H6    H     H_    0.860228 0.388927 0.873932 0.129460
H7    H     H_    0.805603 0.286862 0.631547 0.127002
H8    H     H_    0.939842 0.357899 0.796738 0.113469
H9    H     H_    0.923795 0.328740 0.707801 0.112679
H10   H     H_    0.512541 0.356484 0.873301 0.137499
H11   H     H_    0.407423 0.334871 0.798474 0.113516
H12   H     H_    0.130781 0.071370 0.219266 0.126491
H13   H     H_    0.399194 0.322069 0.710027 0.112874
H14   H     H_    0.480026 0.300434 0.634516 0.136116
H15   H     H_    0.017789 0.675250 0.692188 0.113985
H16   H     H_    0.990443 0.657828 0.779547 0.117975
H17   H     H_    0.293660 0.998708 0.812017 0.114684
H18   H     H_    0.320902 0.016224 0.724576 0.120508
H19   H     H_    0.714051 0.991408 0.725893 0.117209
H20   H     H_    0.733195 0.962265 0.811005 0.116384
H21   H     H_    0.660028 0.612546 0.767380 0.122056
H22   H     H_    0.640354 0.641692 0.681763 0.113488
H23   H     H_    0.158781 0.084105 0.307604 0.113928
H24   H     H_    0.497871 0.317877 0.298506 0.156045
H25   H     H_    0.168930 0.673385 0.124127 0.132710
H26   H     H_    0.222176 0.694395 0.361337 0.132664
H27   H     H_    0.209717 0.602093 0.194437 0.107921
H28   H     H_    0.220658 0.604976 0.282485 0.103650
H29   H     H_    0.103552 0.963401 0.139095 0.127924
H30   H     H_    0.485256 0.357576 0.165361 0.117814
H31   H     H_    0.203567 0.011629 0.379503 0.123134
H32   H     H_    0.835831 0.978935 0.140183 0.132340
H33   H     H_    0.821148 0.015313 0.378214 0.132611
H34   H     H_    0.920539 0.083496 0.217780 0.103983
H35   H     H_    0.919666 0.093128 0.306112 0.103871
H36   H     H_    0.526892 0.637615 0.128618 0.124703
O1    O     O_R   0.296680 0.802170 0.437540 -0.524568
O2    O     O_R   0.637200 0.461990 0.052510 -0.512882
O3    O     O_R   0.664790 0.681920 0.057970 -0.495253
O4    O     O_R   0.525380 0.838530 0.443500 -0.503113
O5    O     O_R   0.815840 0.852920 0.961840 -0.503837
O6    O     O_R   0.012100 0.822630 0.963670 -0.511305
O7    O     O_R   0.037010 0.668460 0.953040 -0.508373
O8    O     O_R   0.813390 0.478970 0.949660 -0.504066
O9    O     O_R   0.632250 0.456930 0.945520 -0.527193
O10   O     O_R   0.660200 0.677230 0.958780 -0.491335
O11   O     O_3   0.830870 0.661990 0.006950 -0.264891
O12   O     O_R   0.662610 0.183990 0.557860 -0.501817
O13   O     O_R   0.702130 0.995190 0.446810 -0.520322
O14   O     O_R   0.661770 0.181390 0.458760 -0.495188
O15   O     O_R   0.499820 0.198480 0.455280 -0.509553
O16   O     O_R   0.311660 0.976250 0.449080 -0.499424
O17   O     O_R   0.297580 0.804960 0.544440 -0.506567
O18   O     O_R   0.526220 0.841130 0.542590 -0.494193
O19   O     O_R   0.703030 0.997990 0.553710 -0.510326
O20   O     O_2   0.396653 0.338024 0.225144 -0.548999
O21   O     O_R   0.500730 0.201280 0.562180 -0.520435
O22   O     O_R   0.312500 0.978850 0.548170 -0.494913
O23   O     O_3   0.499990 0.999990 0.500010 -0.242745
O24   O     O_R   0.820790 0.857990 0.068830 -0.518892
O25   O     O_R   0.016700 0.827330 0.062850 -0.501847
O26   O     O_R   0.041970 0.673520 0.060040 -0.515939
O27   O     O_R   0.817980 0.483660 0.048840 -0.488887

loop_
_geom_bond_atom_site_label_1
_geom_bond_atom_site_label_2
_ccdc_geom_bond_type
C15   C18   A    
C66   C68   S    
C63   C65   A    
C84   O2    A    
C14   H12   S    
C8    C83   S    
C12   C91   S    
C35   C36   A    
C24   H34   S    
C16   O1    A    
C88   H4    S    
C84   O27   A    
C39   H7    S    
C39   C41   A    
C53   C54   A    
Cr3   O16   S    
C52   O22   A    
C21   C31   A    
C5    H27   S    
C26   C27   A    
C72   C77   A    
C91   H30   S    
C40   O12   A    
C60   H15   S    
C35   C37   A    
C91   O20   D    
C3    C7    A    
C42   C46   A    
C30   C31   A    
Cr5   O11   S    
Cr1   O4    S    
C76   H1    S    
C4    O15   A    
C56   C78   T    
C43   H8    S    
Cr2   O14   S    
C27   C85   S    
Cr6   O10   S    
Cr4   O25   S    
Cr5   O8    S    
C46   C47   A    
C61   C66   A    
C9    C19   A    
C62   C63   A    
C45   C56   S    
Cr3   O22   S    
C49   C51   A    
C29   C38   A    
C52   O17   A    
Cr2   O12   S    
C16   O16   A    
C30   C32   A    
C9    C10   A    
C76   C88   A    
C90   O10   A    
C86   O7    A    
C63   H18   S    
Cr4   O11   S    
C13   C14   A    
C40   O21   A    
C1    O13   A    
C2    C6    A    
C85   O24   A    
C2    C11   A    
C90   O5    A    
Cr3   O15   S    
C74   H21   S    
C9    H31   S    
C73   H20   S    
C74   C75   A    
C62   C66   A    
C64   C67   T    
C7    C8    A    
C45   C88   A    
C75   H22   S    
C24   C25   A    
C4    C64   S    
C80   C82   T    
C62   H17   S    
C72   C73   A    
C89   H26   S    
C4    O14   A    
C8    C18   A    
C32   H3    S    
C60   C61   A    
C33   H2    S    
C47   C87   S    
C2    C89   A    
C43   C44   A    
Cr6   O11   S    
C29   C30   A    
C19   C89   A    
C52   C59   S    
C42   C55   A    
C47   C57   A    
C20   C38   A    
C12   C23   A    
C77   C81   S    
Cr3   O21   S    
C23   C34   A    
Cr5   O26   S    
Cr1   O18   S    
C14   C15   A    
C73   C79   A    
Cr2   O13   S    
Cr1   O23   S    
C87   O8    A    
C75   C77   A    
C26   H32   S    
C23   H24   S    
C1    C38   S    
C59   C69   T    
C86   O6    A    
C68   C70   T    
C48   C49   A    
Cr5   O27   S    
C60   C65   A    
C28   O19   A    
C51   H13   S    
C74   C79   A    
Cr1   O17   S    
C41   C44   A    
C37   H36   S    
C28   C71   S    
C42   C43   A    
Cr6   O2    S    
C7    H25   S    
C70   C86   S    
C41   C50   A    
C13   H23   S    
C1    O4    A    
C15   C17   A    
C21   C25   A    
C54   C55   A    
C11   C17   A    
Cr4   O5    S    
C57   H10   S    
Cr4   O24   S    
Cr2   O23   S    
Cr1   O1    S    
C6    H28   S    
C20   H33   S    
C12   C45   A    
C3    C5    A    
C10   C13   A    
C34   C67   S    
Cr5   O7    S    
C48   C58   A    
C44   H9    S    
C22   C36   A    
C46   H6    S    
C72   H19   S    
Cr4   O6    S    
C50   C55   A    
C82   C90   S    
C40   C58   S    
C32   C33   A    
C18   H29   S    
C61   H16   S    
C39   C58   A    
C53   H11   S    
C5    C6    A    
C83   O25   A    
C27   C37   A    
C16   C19   S    
C65   C69   S    
C33   C35   A    
C29   H5    S    
C3    C17   A    
C22   C24   A    
C87   O9    A    
Cr6   O9    S    
C10   C11   A    
C85   O3    A    
C79   C80   S    
C78   C84   S    
C48   H14   S    
C83   O26   A    
C20   C21   A    
C28   O18   A    
Cr3   O23   S    
C49   C50   A    
C22   C26   A    
C31   C36   A    
Cr2   O19   S    
Cr6   O3    S    
C51   C53   A    
C25   H35   S    
C34   C76   A    
C71   C81   T    
C54   C57   A    
