data_mof_unit_39265.cif
_audit_creation_date              2012-12-10T17:53:13-0500
_audit_creation_method            fapswitch 2.2
_symmetry_space_group_name_H-M    P1
_symmetry_Int_Tables_number       1
_space_group_crystal_system       triclinic
_cell_length_a                    14.746601
_cell_length_b                    14.634687
_cell_length_c                    27.681203
_cell_angle_alpha                 77.344493
_cell_angle_beta                  101.946159
_cell_angle_gamma                 114.934406
_cell_volume                      5240.95182441

loop_
_atom_site_label
_atom_site_type_symbol
_atom_type_description
_atom_site_fract_x
_atom_site_fract_y
_atom_site_fract_z
_atom_type_partial_charge
C1    C     C_R   0.880337 0.312181 0.508931 0.840167
C2    C     C_R   0.119655 0.687867 0.492238 0.830437
C3    C     C_R   0.993978 0.487930 0.898564 -0.052715
C4    C     C_R   0.996919 0.487039 0.102983 -0.053537
C5    C     C_R   0.921111 0.512149 0.862812 -0.002505
C6    C     C_R   0.085149 0.496878 0.136680 -0.003381
C7    C     C_R   0.849877 0.535096 0.878460 -0.195711
C8    C     C_R   0.171278 0.505643 0.119185 -0.174401
C9    C     C_R   0.065957 0.465593 0.882794 -0.088538
C10   C     C_R   0.910837 0.480123 0.120413 -0.099232
C11   C     C_R   0.995979 0.497305 0.644617 -0.202837
C12   C     C_R   0.002299 0.496748 0.355859 -0.199394
C13   C     C_R   0.908962 0.483738 0.017513 -0.057460
C14   C     C_R   0.073109 0.469757 0.985373 -0.044985
C15   C     C_R   0.079490 0.483307 0.035498 0.085875
C16   C     C_R   0.915220 0.498271 0.965720 0.074649
C17   C     C_R   0.995009 0.484522 0.051866 0.001629
C18   C     C_R   0.994213 0.485308 0.950019 0.004162
C19   C     C_R   0.819817 0.466653 0.036615 0.417440
C20   C     C_R   0.141695 0.440555 0.969413 0.424025
C21   C     C_R   0.822455 0.467865 0.087218 -0.231757
C22   C     C_R   0.136061 0.438171 0.918281 -0.248862
C23   C     C_R   0.998555 0.499082 0.592073 0.938988
C24   C     C_R   0.000733 0.499291 0.408023 0.940554
C25   C     C_R   0.847484 0.529140 0.929007 -0.177359
C26   C     C_R   0.168783 0.499997 0.069413 -0.144663
C27   C     C_R   0.812191 0.204228 0.517319 -0.031619
C28   C     C_R   0.187698 0.795929 0.490909 -0.024804
C29   C     C_R   0.781476 0.026575 0.546233 -0.198296
C30   C     C_R   0.218042 0.974266 0.481964 -0.201485
C31   C     C_R   0.848730 0.127831 0.537365 -0.199295
C32   C     C_R   0.150978 0.872985 0.481302 -0.182521
C33   C     C_R   0.708125 0.178371 0.506747 -0.252129
C34   C     C_R   0.291702 0.821239 0.501456 -0.268173
C35   C     C_R   0.638917 0.078122 0.518512 0.076959
C36   C     C_R   0.360566 0.921972 0.504219 0.087354
C37   C     C_R   0.677050 0.001139 0.536761 0.162752
C38   C     C_R   0.322352 0.999387 0.492932 0.166611
C39   C     C_R   0.533072 0.052293 0.511625 0.069807
C40   C     C_R   0.466266 0.947867 0.516657 0.066912
C41   C     C_R   0.507282 0.873079 0.534982 -0.225111
C42   C     C_R   0.491995 0.127349 0.501320 -0.217615
C43   C     C_R   0.610694 0.899695 0.545424 -0.228144
C44   C     C_R   0.388514 0.100963 0.492690 -0.232439
C45   C     C_R   0.922357 0.514370 0.812004 0.545130
C46   C     C_R   0.085516 0.499225 0.187131 0.540040
C47   C     C_R   0.695569 0.629265 0.402611 0.340587
C48   C     C_R   0.305988 0.374693 0.598224 0.335542
C49   C     C_R   0.781061 0.606981 0.419859 -0.120920
C50   C     C_R   0.219116 0.394077 0.580333 -0.142108
C51   C     C_R   0.726942 0.536840 0.499641 0.539189
C52   C     C_R   0.274281 0.464847 0.500701 0.554765
C53   C     C_R   0.629709 0.538785 0.481332 -0.178014
C54   C     C_R   0.372264 0.465972 0.519618 -0.169316
C55   C     C_R   0.618011 0.592390 0.432877 0.004931
C56   C     C_R   0.384139 0.413031 0.568253 0.004752
C57   C     C_R   0.546371 0.494414 0.510035 0.118700
C58   C     C_R   0.456392 0.512250 0.491398 0.112972
C59   C     C_R   0.454939 0.578438 0.446051 -0.228148
C60   C     C_R   0.548415 0.429643 0.555801 -0.238807
C61   C     C_R   0.531761 0.613673 0.416450 -0.171687
C62   C     C_R   0.471447 0.394029 0.585262 -0.177884
C63   C     C_R   0.063982 0.467795 0.831615 0.571400
C64   C     C_R   0.914459 0.482965 0.171169 0.579170
C65   C     C_R   0.069841 0.572760 0.720383 -0.215301
C66   C     C_R   0.941594 0.406686 0.284412 -0.219137
C67   C     C_R   0.073375 0.572988 0.670189 0.321993
C68   C     C_R   0.942744 0.406776 0.335318 0.335449
C69   C     C_R   0.918069 0.418394 0.669318 0.331828
C70   C     C_R   0.067740 0.582207 0.327624 0.334725
C71   C     C_R   0.918441 0.417260 0.720394 -0.237825
C72   C     C_R   0.065598 0.580742 0.276849 -0.213026
C73   C     C_R   0.993162 0.494793 0.745471 0.265174
C74   C     C_R   0.002514 0.493382 0.255261 0.252654
Cu1   Cu    Cu3+1 0.081740 0.475690 0.513040 0.964981
Cu2   Cu    Cu3+1 0.918260 0.524310 0.486960 0.993454
H1    H     H_    0.317699 0.760966 0.506287 0.149993
H2    H     H_    0.682409 0.237747 0.488598 0.160876
H3    H     H_    0.070763 0.855112 0.473268 0.144220
H4    H     H_    0.928992 0.146150 0.545820 0.147207
H5    H     H_    0.811058 0.968148 0.560848 0.130935
H6    H     H_    0.188371 0.033030 0.473965 0.131002
H7    H     H_    0.461455 0.793107 0.543510 0.147936
H8    H     H_    0.537945 0.207382 0.501399 0.146460
H9    H     H_    0.524369 0.660589 0.380906 0.184961
H10   H     H_    0.479377 0.348053 0.621053 0.182412
H11   H     H_    0.162059 0.370448 0.604609 0.179109
H12   H     H_    0.837633 0.629947 0.395372 0.181702
H13   H     H_    0.395623 0.605763 0.432704 0.195612
H14   H     H_    0.608240 0.403546 0.569672 0.195404
H15   H     H_    0.862813 0.355581 0.741389 0.145063
H16   H     H_    0.112056 0.647609 0.253939 0.156167
H17   H     H_    0.795501 0.557810 0.851685 0.188022
H18   H     H_    0.241398 0.517537 0.143847 0.186526
H19   H     H_    0.893373 0.339592 0.267247 0.151411
H20   H     H_    0.126936 0.632632 0.740111 0.150550
H21   H     H_    0.753766 0.456789 0.100402 0.198407
H22   H     H_    0.185403 0.412453 0.906241 0.188948
H23   H     H_    0.794220 0.552968 0.938489 0.202366
H24   H     H_    0.239297 0.514010 0.057701 0.165028
H25   H     H_    0.638898 0.840156 0.559864 0.139864
H26   H     H_    0.360181 0.160740 0.485134 0.148536
N1    N     N_R   0.993166 0.492360 0.797498 -0.441202
N2    N     N_R   0.000900 0.492218 0.203367 -0.442053
N3    N     N_R   0.795430 0.560780 0.467350 -0.241301
N4    N     N_R   0.204570 0.439220 0.532650 -0.248098
O1    O     O_R   0.977900 0.338120 0.517190 -0.606481
O2    O     O_R   0.022100 0.661880 0.482810 -0.598746
O3    O     O_R   0.839850 0.379180 0.495160 -0.567101
O4    O     O_R   0.160150 0.620820 0.504840 -0.581846
O5    O     O_R   0.069030 0.479490 0.580750 -0.592685
O6    O     O_R   0.930970 0.520510 0.419250 -0.579411
O7    O     O_R   0.930970 0.520550 0.558720 -0.531716
O8    O     O_R   0.069030 0.479450 0.441280 -0.554971
O9    O     O_2   0.853742 0.538639 0.777357 -0.563174
O10   O     O_2   0.169339 0.507239 0.219825 -0.557471
O11   O     O_2   0.832541 0.477327 0.188164 -0.532917
O12   O     O_2   0.132032 0.445300 0.816015 -0.551207
O13   O     O_3   0.850691 0.338834 0.643771 -0.573551
C75   C     C_3   0.750569 0.308275 0.653034 0.102620
H27   H     H_    0.731510 0.375008 0.651420 0.145904
H28   H     H_    0.738333 0.259292 0.689897 0.141738
C76   C     C_3   0.679055 0.245214 0.613400 -0.779788
H29   H     H_    0.692950 0.175386 0.615643 0.257580
H30   H     H_    0.599680 0.222641 0.619189 0.190287
H31   H     H_    0.691123 0.290491 0.575747 0.257666
O14   O     O_3   0.129186 0.667947 0.349861 -0.581485
C77   C     C_3   0.231421 0.693470 0.345864 0.094309
H32   H     H_    0.250557 0.740858 0.309201 0.150969
H33   H     H_    0.249057 0.624756 0.350159 0.161296
C78   C     C_3   0.297976 0.755033 0.386951 -0.779152
H34   H     H_    0.283060 0.707341 0.423867 0.257337
H35   H     H_    0.378646 0.779272 0.383051 0.192898
H36   H     H_    0.282128 0.823722 0.384719 0.258819
O15   O     O_3   0.245432 0.478793 0.449813 -0.619192
C79   C     C_3   0.193646 0.382493 0.433028 0.093136
H37   H     H_    0.146589 0.393597 0.397139 0.170881
H38   H     H_    0.140574 0.325188 0.458971 0.135454
C80   C     C_3   0.266497 0.340747 0.423025 -0.403529
H39   H     H_    0.320557 0.399573 0.398285 0.251895
H40   H     H_    0.309463 0.320890 0.458708 0.208612
C81   C     C_3   0.209514 0.245175 0.398129 -0.917052
H41   H     H_    0.153815 0.185733 0.421874 0.242504
H42   H     H_    0.263556 0.214704 0.392787 0.268519
H43   H     H_    0.169479 0.263367 0.361066 0.263689
O16   O     O_3   0.758302 0.525799 0.550290 -0.601360
C82   C     C_3   0.788747 0.620966 0.566622 0.044201
H44   H     H_    0.735311 0.659006 0.550248 0.119293
H45   H     H_    0.864852 0.672471 0.556022 0.160693
C83   C     C_3   0.793102 0.605031 0.623325 -0.310169
H46   H     H_    0.717471 0.552856 0.634089 0.221226
H47   H     H_    0.847458 0.569839 0.641090 0.228464
C84   C     C_3   0.825922 0.705677 0.642678 -0.884824
H48   H     H_    0.902198 0.758379 0.633020 0.251465
H49   H     H_    0.828650 0.691368 0.683935 0.288370
H50   H     H_    0.771533 0.741973 0.626262 0.241401
O17   O     O_3   0.684664 0.680375 0.354855 -0.563155
C85   C     C_3   0.744360 0.785276 0.355119 0.042495
H51   H     H_    0.826068 0.799742 0.362370 0.141795
H52   H     H_    0.725369 0.814923 0.383846 0.132055
C86   C     C_3   0.724331 0.843906 0.304349 -0.746957
H53   H     H_    0.643432 0.831865 0.296271 0.244264
H54   H     H_    0.770889 0.926581 0.304153 0.191079
H55   H     H_    0.743964 0.817437 0.274814 0.258813
O18   O     O_3   0.317937 0.325941 0.646440 -0.571531
C87   C     C_3   0.260367 0.220395 0.647338 0.045812
H56   H     H_    0.280698 0.190176 0.619329 0.135903
H57   H     H_    0.178224 0.203955 0.639871 0.141489
C88   C     C_3   0.281665 0.164722 0.698773 -0.752141
H58   H     H_    0.260933 0.191992 0.727615 0.257122
H59   H     H_    0.236706 0.081550 0.699961 0.198623
H60   H     H_    0.363031 0.178688 0.707066 0.241965
O19   O     O_3   0.883700 0.321884 0.365424 -0.573085
C89   C     C_3   0.898448 0.234264 0.361751 0.056876
H61   H     H_    0.977596 0.251965 0.356615 0.127085
H62   H     H_    0.845923 0.197074 0.330116 0.158785
C90   C     C_3   0.875671 0.159152 0.409590 -0.790697
H63   H     H_    0.797627 0.139604 0.416564 0.264903
H64   H     H_    0.883138 0.088378 0.406387 0.193106
H65   H     H_    0.929934 0.193308 0.441471 0.236292
O20   O     O_3   0.148686 0.649756 0.644640 -0.585525
C91   C     C_3   0.242952 0.645057 0.665311 0.104896
H66   H     H_    0.238141 0.565053 0.674514 0.159579
H67   H     H_    0.272648 0.681974 0.699576 0.148165
C92   C     C_3   0.317376 0.702073 0.627574 -0.782452
H68   H     H_    0.323502 0.781962 0.616653 0.255493
H69   H     H_    0.392889 0.702573 0.644095 0.202128
H70   H     H_    0.291632 0.663696 0.593890 0.254887
O21   O     O_3   0.727403 0.441051 0.007037 -0.630211
C93   C     C_3   0.675914 0.333612 0.012089 0.050252
H71   H     H_    0.608300 0.311927 0.030706 0.165481
H72   H     H_    0.721042 0.290227 0.034972 0.133013
C94   C     C_3   0.642537 0.301054 0.960243 -0.332526
H73   H     H_    0.599715 0.345064 0.936324 0.232641
H74   H     H_    0.710192 0.317805 0.942669 0.229743
C95   C     C_3   0.576612 0.187421 0.963051 -0.916666
H75   H     H_    0.619015 0.142012 0.985842 0.260242
H76   H     H_    0.553793 0.166458 0.924859 0.261845
H77   H     H_    0.507558 0.168728 0.979858 0.254528
O22   O     O_3   0.198827 0.395582 0.004603 -0.610009
C96   C     C_3   0.299914 0.431812 0.994826 0.024961
H78   H     H_    0.350338 0.460593 0.028790 0.160607
H79   H     H_    0.321011 0.497043 0.963832 0.129114
C97   C     C_3   0.320433 0.343571 0.985256 -0.320866
H80   H     H_    0.307057 0.283365 0.018511 0.230980
H81   H     H_    0.268036 0.309720 0.952841 0.221028
C98   C     C_3   0.428671 0.378737 0.974941 -0.900675
H82   H     H_    0.443270 0.437406 0.941156 0.262721
H83   H     H_    0.440581 0.312659 0.968455 0.255863
H84   H     H_    0.482743 0.410777 0.007363 0.265790

loop_
_geom_bond_atom_site_label_1
_geom_bond_atom_site_label_2
_ccdc_geom_bond_type
C70   O14   S    
C66   C68   A    
Cu1   O1    S    
O18   C87   S    
C22   H22   S    
C8    C26   A    
C96   H78   S    
C14   C18   A    
C82   H44   S    
C24   O6    A    
C78   H36   S    
C77   H32   S    
C86   H53   S    
C96   H79   S    
O15   C79   S    
C47   C49   A    
C78   H35   S    
O20   C91   S    
C27   C33   A    
C24   O8    A    
C12   C68   A    
C30   C38   A    
O17   C85   S    
C47   C55   A    
C82   H45   S    
C73   N1    S    
C79   C80   S    
C34   H1    S    
C47   O17   S    
C72   H16   S    
C80   C81   S    
C9    C22   A    
C92   H69   S    
C41   H7    S    
C65   C73   A    
C11   C67   A    
C3    C18   A    
C60   C62   A    
C59   H13   S    
C81   H41   S    
C11   C23   S    
C46   O10   S    
C69   C71   A    
C89   H61   S    
C20   O22   S    
C67   O20   S    
C93   C94   S    
C1    O3    A    
C91   H66   S    
C25   H23   S    
C65   H20   S    
C92   H68   S    
C48   O18   S    
C75   H28   S    
Cu2   O3    S    
C90   H64   S    
C83   C84   S    
C98   H84   S    
C93   H72   S    
C84   H49   S    
C45   N1    A    
C85   C86   S    
C75   C76   S    
C51   N3    A    
C76   H29   S    
C1    C27   S    
C90   H65   S    
C48   C50   A    
C28   C34   A    
Cu2   O2    S    
C87   H57   S    
C41   C43   A    
C49   H12   S    
C42   C44   A    
C95   H77   S    
C86   H54   S    
C52   C54   A    
C39   C42   A    
C5    C7    A    
C53   C55   A    
C10   C21   A    
C7    H17   S    
C80   H39   S    
C54   C56   A    
C59   C61   A    
C81   H43   S    
C13   C19   A    
C27   C31   A    
C98   H82   S    
C19   O21   S    
C88   H58   S    
C14   C20   A    
C36   C40   A    
C82   C83   S    
C8    H18   S    
C63   N1    A    
C39   C40   A    
C71   C73   A    
C63   O12   S    
C44   H26   S    
C2    C28   S    
O22   C96   S    
C92   H70   S    
C6    C8    A    
C51   O16   S    
C65   C67   A    
C58   C59   A    
O19   C89   S    
C5    C45   A    
C69   O13   S    
C64   O11   S    
C76   H31   S    
C51   C53   A    
C91   C92   S    
C30   H6    S    
C35   C39   A    
Cu1   Cu2   S    
C43   H25   S    
C93   H71   S    
C38   C44   A    
C3    C9    A    
Cu1   N4    S    
C23   O7    A    
C21   H21   S    
C45   O9    S    
C97   C98   S    
C28   C32   A    
Cu2   O6    S    
C94   C95   S    
C94   H74   S    
Cu2   O7    S    
C42   H8    S    
Cu1   O8    S    
C80   H40   S    
C84   H50   S    
C89   C90   S    
C56   C62   A    
C61   H9    S    
C50   H11   S    
C1    O1    A    
C4    C17   A    
C72   C74   A    
C40   C41   A    
C97   H81   S    
C29   H5    S    
C94   H73   S    
C87   H56   S    
C54   C58   A    
C96   C97   S    
C83   H47   S    
C37   C43   A    
C4    C6    A    
C20   C22   A    
C4    C10   A    
O14   C77   S    
C77   C78   S    
C3    C5    A    
C86   H55   S    
C75   H27   S    
C62   H10   S    
C79   H38   S    
C74   N2    S    
O16   C82   S    
C88   H59   S    
C16   C25   A    
C48   C56   A    
C12   C70   A    
C2    O4    A    
Cu1   O4    S    
C53   C57   A    
C6    C46   A    
C35   C37   A    
C9    C63   A    
Cu1   O5    S    
C64   N2    A    
C98   H83   S    
C95   H75   S    
C15   C26   A    
C77   H33   S    
C49   N3    A    
O13   C75   S    
C11   C69   A    
C15   C17   A    
C60   H14   S    
C23   O5    A    
C12   C24   S    
C10   C64   A    
C7    C25   A    
C13   C17   A    
C68   O19   S    
C36   C38   A    
C29   C31   A    
C32   H3    S    
C30   C32   A    
C85   H52   S    
C31   H4    S    
C57   C58   A    
C85   H51   S    
C46   N2    A    
C55   C61   A    
C2    O2    A    
C33   C35   A    
C89   H62   S    
C66   H19   S    
C34   C36   A    
O21   C93   S    
C33   H2    S    
C91   H67   S    
C95   H76   S    
C76   H30   S    
C52   N4    A    
C57   C60   A    
C71   H15   S    
C97   H80   S    
C87   C88   S    
C16   C18   A    
C90   H63   S    
C13   C16   A    
C29   C37   A    
C50   N4    A    
C52   O15   S    
C14   C15   A    
C79   H37   S    
C70   C72   A    
C88   H60   S    
C84   H48   S    
Cu2   N3    S    
C81   H42   S    
C78   H34   S    
C26   H24   S    
C83   H46   S    
C19   C21   A    
C66   C74   A    
