data_mof_unit_51057.cif
_audit_creation_date              2012-12-11T15:46:52-0500
_audit_creation_method            fapswitch 2.2
_symmetry_space_group_name_H-M    P1
_symmetry_Int_Tables_number       1
_space_group_crystal_system       triclinic
_cell_length_a                    11.911869
_cell_length_b                    11.880285
_cell_length_c                    19.531848
_cell_angle_alpha                 90.413548
_cell_angle_beta                  90.223128
_cell_angle_gamma                 58.793752
_cell_volume                      2364.07471975

loop_
_atom_site_label
_atom_site_type_symbol
_atom_type_description
_atom_site_fract_x
_atom_site_fract_y
_atom_site_fract_z
_atom_type_partial_charge
C1    C     C_R   0.639774 0.116244 0.599232 0.536098
C2    C     C_1   0.640887 0.705386 0.667896 0.005217
C3    C     C_1   0.124986 0.199581 0.859395 0.005998
C4    C     C_1   0.172685 0.171147 0.727711 -0.031207
C5    C     C_1   0.149624 0.183157 0.799033 -0.030352
C6    C     C_1   0.197603 0.161419 0.667402 0.004116
C7    C     C_1   0.679368 0.192156 0.860799 0.007326
C8    C     C_1   0.658705 0.166532 0.728939 -0.031280
C9    C     C_1   0.666248 0.181162 0.800337 -0.030748
C10   C     C_1   0.652731 0.148486 0.668553 0.004535
C11   C     C_R   0.645959 0.705910 0.182592 -0.067751
C12   C     C_R   0.611531 0.748264 0.598504 0.546808
C13   C     C_R   0.536957 0.728244 0.218277 -0.121762
C14   C     C_R   0.504843 0.776489 0.284261 -0.030232
C15   C     C_R   0.722876 0.744561 0.289811 0.286393
C16   C     C_R   0.735667 0.728271 0.218104 0.223194
C17   C     C_3   0.506406 0.626414 0.230551 0.206291
C18   C     C_3   0.443390 0.693492 0.295863 0.220187
C19   C     C_R   0.603477 0.775285 0.322772 -0.049936
C20   C     C_R   0.130334 0.197678 0.193016 -0.045308
C21   C     C_R   0.114724 0.297937 0.234193 -0.037979
C22   C     C_R   0.145778 0.277935 0.302899 -0.068079
C23   C     C_R   0.243963 0.144684 0.598245 0.542687
C24   C     C_R   0.186985 0.060053 0.293632 0.287834
C25   C     C_R   0.178964 0.071743 0.221609 0.349633
C26   C     C_3   0.183428 0.370313 0.223300 0.514783
C27   C     C_3   0.229586 0.336210 0.297476 0.492414
C28   C     C_R   0.177627 0.162927 0.335356 -0.089861
C29   C     C_R   0.673453 0.183741 0.193510 -0.025347
C30   C     C_R   0.754559 0.061213 0.225312 -0.104714
C31   C     C_R   0.752305 0.051427 0.294912 0.009558
C32   C     C_R   0.576348 0.274300 0.305178 0.295481
C33   C     C_R   0.572601 0.287864 0.232458 0.359662
C34   C     C_R   0.643858 0.112959 0.403011 0.513217
C35   C     C_3   0.900708 0.962387 0.226547 0.168240
C36   C     C_3   0.896219 0.970243 0.304528 0.590787
C37   C     C_R   0.663470 0.151786 0.335568 -0.049639
C38   C     C_R   0.079308 0.232309 0.928673 0.531849
C39   C     C_R   0.684287 0.601721 0.929542 0.527795
C40   C     C_R   0.709351 0.207536 0.930140 0.537156
C41   C     C_R   0.080318 0.235846 0.124703 0.558246
C42   C     C_R   0.680253 0.618081 0.122471 0.566625
C43   C     C_R   0.709516 0.210987 0.126841 0.600691
C44   C     C_R   0.583585 0.798400 0.395985 0.579886
C45   C     C_R   0.243097 0.140264 0.402217 0.523180
C46   C     C_1   0.669363 0.644657 0.860193 0.007076
C47   C     C_1   0.654122 0.684195 0.728391 -0.031843
C48   C     C_1   0.662310 0.665864 0.799744 -0.031015
Cr1   Cr    Cr6+3 0.404720 0.198220 0.499960 1.022739
Cr2   Cr    Cr6+3 0.698290 0.897110 0.500380 1.054865
Cr3   Cr    Cr6+3 0.396970 0.904720 0.499610 0.991279
Cr4   Cr    Cr6+3 0.926290 0.152010 0.028150 1.038373
Cr5   Cr    Cr6+3 0.921440 0.451830 0.027490 1.038873
Cr6   Cr    Cr6+3 0.626370 0.446880 0.028730 1.062814
H1    H     H_    0.924822 0.865302 0.205321 0.130227
H2    H     H_    0.439874 0.633247 0.188948 0.160011
H3    H     H_    0.337414 0.742283 0.285908 0.142568
O1    O     O_R   0.267750 0.231960 0.575440 -0.506769
O2    O     O_R   0.685950 0.784660 0.430010 -0.463672
O3    O     O_R   0.502510 0.767000 0.423980 -0.478920
O4    O     O_R   0.288320 0.026340 0.429250 -0.535775
O5    O     O_3   0.499990 0.000020 0.499980 -0.295791
O6    O     O_R   0.821590 0.119350 0.952850 -0.515931
O7    O     O_R   0.037230 0.162540 0.957390 -0.509150
O8    O     O_R   0.056530 0.344750 0.951370 -0.504377
O9    O     O_R   0.798000 0.560370 0.957490 -0.503915
O10   O     O_R   0.596230 0.579400 0.952760 -0.517552
O11   O     O_R   0.639160 0.321170 0.958690 -0.501499
O12   O     O_R   0.527290 0.186640 0.570530 -0.501524
O13   O     O_R   0.821370 0.124220 0.104400 -0.509517
O14   O     O_R   0.037020 0.167050 0.097880 -0.470555
O15   O     O_R   0.056310 0.349620 0.102920 -0.491024
O16   O     O_R   0.797790 0.564880 0.097980 -0.488349
O17   O     O_R   0.596000 0.584270 0.104310 -0.498862
O18   O     O_R   0.638950 0.325690 0.099180 -0.427592
O19   O     O_3   0.824700 0.350240 0.028120 -0.277512
O20   O     O_R   0.728110 0.003450 0.576380 -0.515605
O21   O     O_R   0.682980 0.789190 0.570500 -0.495559
O22   O     O_R   0.499300 0.771880 0.575540 -0.510078
O23   O     O_R   0.285350 0.030870 0.569740 -0.501080
O24   O     O_R   0.270960 0.227070 0.423890 -0.480096
O25   O     O_R   0.530270 0.182120 0.430040 -0.483615
O26   O     O_R   0.731320 0.998570 0.424830 -0.480158
O27   O     O_3   0.834711 0.705439 0.327676 -0.458238
C49   C     C_3   0.884825 0.573866 0.348056 -0.016935
H4    H     H_    0.922493 0.507497 0.303080 0.172024
H5    H     H_    0.810991 0.558471 0.374138 0.089175
H6    H     H_    0.964214 0.546731 0.385756 0.186684
O28   O     O_3   0.280171 0.326592 0.169562 -0.578742
C50   C     C_3   0.368486 0.190512 0.159330 -0.100901
H7    H     H_    0.375399 0.126950 0.201712 0.073209
H8    H     H_    0.467496 0.173408 0.150314 0.138870
H9    H     H_    0.341429 0.159380 0.111585 0.115035
O29   O     O_3   0.366187 0.246174 0.304313 -0.710680
H10   H     H_    0.388037 0.154100 0.308638 0.293562
O30   O     O_3   0.184094 0.447612 0.339886 -0.716577
H11   H     H_    0.252346 0.428939 0.374667 0.365075
O31   O     O_3   0.497800 0.380868 0.345535 -0.672388
H12   H     H_    0.540213 0.367812 0.390933 0.329974
O32   O     O_3   0.492049 0.406218 0.198178 -0.508511
C51   C     C_3   0.362241 0.483387 0.221743 0.019842
H13   H     H_    0.341149 0.568658 0.251835 0.065657
H14   H     H_    0.339883 0.435214 0.258715 0.246824
H15   H     H_    0.294274 0.520555 0.177504 0.155073
O33   O     O_3   0.976258 0.009641 0.199644 -0.595607
H16   H     H_    0.020359 0.953697 0.158861 0.351577
O34   O     O_3   0.932965 0.852085 0.339072 -0.517415
C52   C     C_3   0.065589 0.756928 0.327939 -0.077258
H17   H     H_    0.129395 0.798407 0.329506 0.131323
H18   H     H_    0.078295 0.705128 0.278582 0.192479
H19   H     H_    0.097065 0.684535 0.369808 0.158789
O35   O     O_3   0.951094 0.043683 0.331131 -0.524813
C53   C     C_3   0.935013 0.065459 0.402792 -0.094042
H20   H     H_    0.958422 0.975904 0.431903 0.159264
H21   H     H_    0.837076 0.150331 0.415433 0.111562
H22   H     H_    0.002469 0.096999 0.421382 0.103774
O36   O     O_3   0.845348 0.715002 0.187321 -0.673342
H23   H     H_    0.823625 0.741116 0.138755 0.310302
O37   O     O_3   0.622448 0.501687 0.239278 -0.600556
H24   H     H_    0.681352 0.507993 0.273245 0.332915
O38   O     O_3   0.488885 0.607010 0.352412 -0.502972
C54   C     C_3   0.381706 0.634479 0.395685 -0.055248
H25   H     H_    0.321058 0.598923 0.372309 0.110740
H26   H     H_    0.317448 0.740727 0.407901 0.121675
H27   H     H_    0.420682 0.582503 0.444943 0.139746
O39   O     O_3   0.211987 0.943874 0.320218 -0.700980
H28   H     H_    0.180804 0.955781 0.367594 0.339889
O40   O     O_3   0.212302 0.960443 0.182444 -0.532965
C55   C     C_3   0.307280 0.936480 0.132158 -0.142891
H29   H     H_    0.388261 0.946786 0.152726 0.077320
H30   H     H_    0.264320 0.998970 0.086504 0.128378
H31   H     H_    0.350531 0.833813 0.113634 0.142492
O41   O     O_3   0.091215 0.505163 0.216397 -0.655694
H32   H     H_    0.077043 0.523974 0.166712 0.370344

loop_
_geom_bond_atom_site_label_1
_geom_bond_atom_site_label_2
_ccdc_geom_bond_type
C23   O1    A    
C21   C26   S    
O39   H28   S    
C34   C37   S    
C1    O20   A    
C14   C18   S    
C35   C36   S    
Cr3   O4    S    
C2    C12   S    
O40   C55   S    
C20   C41   S    
C49   H4    S    
C26   O28   S    
C15   C19   A    
C26   C27   S    
C51   H13   S    
C40   O6    A    
C30   C35   S    
Cr2   O2    S    
C25   O40   S    
C53   H20   S    
C30   C31   A    
Cr6   O11   S    
C20   C25   A    
C44   O2    A    
C15   C16   A    
C12   O22   A    
C29   C33   A    
C52   H17   S    
C11   C42   S    
Cr1   O24   S    
Cr3   O23   S    
Cr6   O17   S    
C3    C38   S    
C52   H18   S    
C8    C9    S    
C12   O21   A    
C36   O35   S    
O34   C52   S    
C13   C14   A    
C23   O23   A    
Cr5   O8    S    
C41   O14   A    
C53   H22   S    
C51   H14   S    
Cr1   O12   S    
C21   C22   A    
C29   C43   S    
C36   O34   S    
C24   O39   S    
C27   O30   S    
Cr3   O5    S    
Cr2   O21   S    
O35   C53   S    
Cr2   O26   S    
C38   O7    A    
C49   H5    S    
C43   O18   A    
C46   C48   T    
C28   C45   S    
C42   O17   A    
C35   H1    S    
C24   C25   A    
C4    C6    T    
Cr4   O7    S    
Cr6   O10   S    
C3    C5    T    
C1    O12   A    
Cr1   O1    S    
C31   C37   A    
Cr1   O25   S    
C29   C30   A    
C35   O33   S    
C11   C16   A    
C18   H3    S    
C50   H8    S    
C47   C48   S    
C38   O8    A    
C7    C40   S    
O30   H11   S    
C17   C18   S    
C32   C37   A    
O27   C49   S    
Cr5   O9    S    
C17   H2    S    
O38   C54   S    
C39   C46   S    
Cr6   O19   S    
C51   H15   S    
C22   C27   S    
C41   O15   A    
O41   H32   S    
Cr2   O5    S    
C39   O9    A    
Cr5   O19   S    
C34   O26   A    
C54   H26   S    
Cr2   O20   S    
C19   C44   S    
C50   H9    S    
C55   H29   S    
C49   H6    S    
C7    C9    T    
C42   O16   A    
Cr1   O5    S    
C39   O10   A    
C14   C19   A    
Cr5   O16   S    
C1    C10   S    
C24   C28   A    
C4    C5    S    
Cr4   O19   S    
Cr4   O6    S    
O37   H24   S    
C15   O27   S    
C2    C47   T    
C43   O13   A    
O33   H16   S    
C52   H19   S    
C13   C17   S    
C33   O32   S    
C32   C33   A    
C55   H31   S    
C54   H27   S    
C54   H25   S    
Cr4   O14   S    
C16   O36   S    
C11   C13   A    
C50   H7    S    
C44   O3    A    
C6    C23   S    
C45   O4    A    
O32   C51   S    
C32   O31   S    
C45   O24   A    
O29   H10   S    
Cr3   O22   S    
Cr4   O13   S    
C17   O37   S    
C18   O38   S    
Cr6   O18   S    
C20   C21   A    
C8    C10   T    
O31   H12   S    
C40   O11   A    
C26   O41   S    
C31   C36   S    
C27   O29   S    
C22   C28   A    
Cr3   O3    S    
C34   O25   A    
C53   H21   S    
O28   C50   S    
O36   H23   S    
Cr5   O15   S    
C55   H30   S    
