data_mof_unit_35429.cif
_audit_creation_date              2013-03-05T15:47:34-0500
_audit_creation_method            fapswitch 2.2
_symmetry_space_group_name_H-M    P1
_symmetry_Int_Tables_number       1
_space_group_crystal_system       triclinic
_cell_length_a                    7.219518
_cell_length_b                    15.065194
_cell_length_c                    22.547115
_cell_angle_alpha                 90.000944
_cell_angle_beta                  91.189136
_cell_angle_gamma                 88.491425
_cell_volume                      2450.9234975

loop_
_atom_site_label
_atom_site_type_symbol
_atom_site_description
_atom_site_fract_x
_atom_site_fract_y
_atom_site_fract_z
_atom_type_partial_charge
O1    O     O_R   0.390810 0.844810 0.447340 -0.572845
O2    O     O_R   0.109190 0.155190 0.947340 -0.591865
O3    O     O_R   0.890810 0.655190 0.552660 -0.590376
O4    O     O_R   0.609190 0.344810 0.052660 -0.600151
O5    O     O_R   0.720550 0.655820 0.440420 -0.596549
O6    O     O_R   0.779450 0.344180 0.940420 -0.590887
O7    O     O_R   0.220550 0.844180 0.559580 -0.594010
O8    O     O_R   0.279450 0.155820 0.059580 -0.551177
C1    C     C_R   0.553088 0.627511 0.425903 0.934139
C2    C     C_R   0.944098 0.373385 0.926060 0.947747
C3    C     C_R   0.052992 0.873338 0.573853 0.940566
C4    C     C_R   0.451128 0.127184 0.073700 0.955396
O9    O     O_R   0.720530 0.844130 0.440420 -0.599535
O10   O     O_R   0.779470 0.155870 0.940420 -0.588463
O11   O     O_R   0.220530 0.655870 0.559580 -0.593043
O12   O     O_R   0.279470 0.344130 0.059580 -0.574782
O13   O     O_R   0.890830 0.844810 0.552660 -0.558552
O14   O     O_R   0.609170 0.155190 0.052660 -0.602965
O15   O     O_R   0.390830 0.655190 0.447340 -0.552109
O16   O     O_R   0.109170 0.344810 0.947340 -0.560150
C5    C     C_R   0.548835 0.873769 0.426854 0.920221
C6    C     C_R   0.947570 0.125469 0.926665 0.933386
C7    C     C_R   0.055399 0.625923 0.573796 0.930009
C8    C     C_R   0.445969 0.374108 0.073119 0.930118
O17   O     O_3   0.557310 0.749980 0.536820 -0.276796
O18   O     O_3   0.942690 0.250020 0.036820 -0.280068
O19   O     O_3   0.057310 0.750020 0.463180 -0.259873
O20   O     O_3   0.442690 0.249980 0.963180 -0.273038
V1    V     V_3+5 0.832160 0.749980 0.493170 1.216142
V2    V     V_3+5 0.667840 0.250020 0.993170 1.200215
V3    V     V_3+5 0.332160 0.750020 0.506830 1.227260
V4    V     V_3+5 0.167840 0.249980 0.006830 1.226645
C9    C     C_R   0.771000 0.576725 0.844749 -0.144855
C10   C     C_R   0.712504 0.421343 0.349714 -0.138703
C11   C     C_R   0.612918 0.911779 0.140140 -0.133915
C12   C     C_R   0.214574 0.074402 0.654418 -0.138916
H1    H     H_    0.780728 0.533563 0.935133 0.136970
H2    H     H_    0.717517 0.469928 0.438409 0.134866
H3    H     H_    0.557192 0.960794 0.052590 0.143025
H4    H     H_    0.199275 0.032901 0.563872 0.146549
H5    H     H_    0.647041 0.662806 0.748171 0.196764
H6    H     H_    0.820154 0.326155 0.258046 0.178876
H7    H     H_    0.759303 0.808074 0.224139 0.206828
H8    H     H_    0.344422 0.156861 0.750278 0.193958
H9    H     H_    0.677713 0.632130 0.854482 0.150181
H10   H     H_    0.805801 0.366106 0.361134 0.155804
H11   H     H_    0.676769 0.850938 0.123653 0.141723
H12   H     H_    0.303470 0.128975 0.644166 0.147693
C13   C     C_R   0.936073 0.443354 0.879400 -0.194521
C14   C     C_R   0.553587 0.556540 0.380579 -0.183435
C15   C     C_R   0.473801 0.056435 0.118741 -0.180079
C16   C     C_R   0.054995 0.943288 0.620419 -0.194479
C17   C     C_R   0.210372 0.486812 0.605833 -0.189840
C18   C     C_R   0.297605 0.514760 0.100743 -0.192483
C19   C     C_R   0.416181 0.022025 0.408326 -0.200983
C20   C     C_R   0.807177 0.985398 0.897547 -0.186835
C21   C     C_R   0.279106 0.430335 0.650602 -0.041839
C22   C     C_R   0.213306 0.565394 0.144880 -0.030818
C23   C     C_R   0.328215 0.083412 0.370180 -0.032252
C24   C     C_R   0.737959 0.929679 0.853418 -0.035635
C25   C     C_R   0.199273 0.434443 0.706511 -0.208569
C26   C     C_R   0.278358 0.556201 0.203414 -0.182108
C27   C     C_R   0.352025 0.074608 0.309012 -0.170792
C28   C     C_R   0.810147 0.934124 0.796477 -0.206435
C29   C     C_R   0.039761 0.487838 0.717294 0.114296
C30   C     C_R   0.440827 0.505812 0.217841 0.118356
C31   C     C_R   0.478470 0.011437 0.285245 0.099176
C32   C     C_R   0.964462 0.986275 0.784034 0.116118
C33   C     C_R   0.973052 0.546546 0.671213 0.094704
C34   C     C_R   0.513751 0.447850 0.173184 0.076807
C35   C     C_R   0.558980 0.946119 0.324741 0.098025
C36   C     C_R   0.031718 0.044041 0.829619 0.093314
C37   C     C_R   0.956358 0.490807 0.774677 0.037748
C38   C     C_R   0.521058 0.504548 0.276811 0.031442
C39   C     C_R   0.512472 0.005843 0.222659 0.028486
C40   C     C_R   0.041619 0.989146 0.725746 0.039755
C41   C     C_R   0.828658 0.561069 0.786644 0.145614
C42   C     C_R   0.649240 0.434206 0.291289 0.142187
C43   C     C_R   0.602312 0.927593 0.201142 0.138891
C44   C     C_R   0.164157 0.058137 0.712987 0.142654
C45   C     C_R   0.755310 0.613313 0.740115 -0.217894
C46   C     C_R   0.716704 0.377440 0.247253 -0.111470
C47   C     C_R   0.683317 0.865692 0.240570 -0.168406
C48   C     C_R   0.239566 0.108660 0.759111 -0.222629
C49   C     C_R   0.821145 0.603386 0.682776 -0.182182
C50   C     C_R   0.653662 0.385452 0.188903 -0.208293
C51   C     C_R   0.664409 0.875299 0.301396 -0.197418
C52   C     C_R   0.179094 0.099184 0.816959 -0.178461
C53   C     C_R   0.990789 0.425894 0.820258 -0.120665
C54   C     C_R   0.484499 0.570722 0.321621 -0.137698
C55   C     C_R   0.464909 0.074749 0.180450 -0.130104
C56   C     C_R   0.006194 0.925489 0.679927 -0.118923
C57   C     C_R   0.830568 0.520622 0.890868 -0.133760
C58   C     C_R   0.661156 0.480357 0.393932 -0.131712
C59   C     C_R   0.543720 0.974202 0.099568 -0.159384
C60   C     C_R   0.153928 0.019832 0.608487 -0.134998
C61   C     C_R   0.066713 0.549327 0.616103 -0.202999
C62   C     C_R   0.435764 0.450323 0.114786 -0.195860
C63   C     C_R   0.522390 0.950569 0.386347 -0.179552
C64   C     C_R   0.943286 0.047544 0.885581 -0.202459
H13   H     H_    0.278838 0.487057 0.563479 0.168748
H14   H     H_    0.240677 0.517806 0.055869 0.163385
H15   H     H_    0.389766 0.025277 0.455464 0.154671
H16   H     H_    0.743293 0.986020 0.940662 0.159960
H17   H     H_    0.269853 0.398693 0.742054 0.165620
H18   H     H_    0.195676 0.586233 0.237629 0.157684
H19   H     H_    0.263336 0.115122 0.280443 0.159346
H20   H     H_    0.737477 0.899603 0.761655 0.165609
H21   H     H_    0.755408 0.642950 0.648141 0.210778
H22   H     H_    0.711857 0.340053 0.156770 0.168545
H23   H     H_    0.727533 0.824575 0.329719 0.159839
H24   H     H_    0.245516 0.137471 0.851297 0.209232
C65   C     C_2   0.033939 0.333264 0.803605 0.936124
O21   O     O_2   0.161622 0.292590 0.828415 -0.662369
O22   O     O_R   0.928985 0.293772 0.758468 -0.759271
H25   H     H_    0.966795 0.229798 0.750953 0.329495
C66   C     C_2   0.404548 0.659905 0.305847 0.926494
O23   O     O_2   0.283658 0.694402 0.335990 -0.618718
O24   O     O_R   0.461871 0.702600 0.254678 -0.793494
H26   H     H_    0.384342 0.758190 0.245498 0.332714
C67   C     C_2   0.443486 0.168874 0.199161 0.926144
O25   O     O_2   0.552103 0.198992 0.235745 -0.638773
O26   O     O_R   0.297753 0.222248 0.176221 -0.791435
H27   H     H_    0.295634 0.284207 0.193766 0.321336
C68   C     C_2   0.965935 0.833308 0.695914 0.934181
O27   O     O_2   0.837002 0.796088 0.671626 -0.661349
O28   O     O_R   0.074381 0.790308 0.739863 -0.762913
H28   H     H_    0.036696 0.727184 0.747218 0.328576
C69   C     C_2   0.442861 0.371033 0.639874 1.013606
O29   O     O_2   0.501776 0.320456 0.678750 -0.627446
O30   O     O_R   0.530543 0.372763 0.585145 -0.813996
H29   H     H_    0.640635 0.329708 0.583393 0.333423
C70   C     C_2   0.049226 0.623581 0.130249 1.009507
O31   O     O_2   0.975189 0.668087 0.168947 -0.653890
O32   O     O_R   0.978552 0.627764 0.072038 -0.818196
H30   H     H_    0.866492 0.669462 0.067785 0.326319
C71   C     C_2   0.203284 0.154012 0.394279 1.019974
O33   O     O_2   0.122753 0.206861 0.360855 -0.650644
O34   O     O_R   0.177988 0.160654 0.455490 -0.821450
H31   H     H_    0.090358 0.211499 0.466407 0.328906
C72   C     C_2   0.580773 0.871183 0.865969 1.004982
O35   O     O_2   0.519375 0.822381 0.827326 -0.633297
O36   O     O_R   0.502243 0.871606 0.922180 -0.824597
H32   H     H_    0.396062 0.829201 0.925143 0.333579

loop_
_geom_bond_atom_site_label_1
_geom_bond_atom_site_label_2
_geom_bond_distance
_ccdc_geom_bond_type
O17   V3    1.747491 S    
C47   C51   1.388225 A    
C22   C26   1.397296 A    
C19   C23   1.394544 A    
O19   V1    1.773433 S    
C9    H9    1.083957 S    
O3    C7    1.335049 A    
H6    C46   1.084456 S    
C44   C48   1.398403 A    
C11   H11   1.084273 S    
C56   C68   1.472620 S    
C36   C64   1.426219 A    
C29   C37   1.438563 A    
O32   H30   1.014082 S    
C30   C34   1.432219 A    
O1    C5    1.324133 A    
C71   O34   1.399152 S    
C8    C62   1.484847 S    
C28   C32   1.412879 A    
C21   C69   1.486805 S    
C50   H22   1.080138 S    
H4    C60   1.083934 S    
C69   O29   1.223635 D    
C49   H21   1.077072 S    
C66   O24   1.396379 S    
C18   C22   1.394021 A    
O4    C8    1.338415 A    
C29   C33   1.431962 A    
C51   H23   1.081232 S    
C23   C71   1.486546 S    
O22   H25   1.010032 S    
C30   C38   1.439155 A    
C19   H15   1.084578 S    
H7    C47   1.083991 S    
O1    V3    2.018216 S    
O13   V1    2.006935 S    
O2    V4    2.006471 S    
C11   C43   1.399215 A    
O3    V1    1.990572 S    
C12   C60   1.392909 A    
C3    C16   1.487687 S    
C15   C55   1.420871 A    
C14   C54   1.424230 A    
C17   H13   1.084416 S    
O2    C6    1.335726 A    
C16   C60   1.401297 A    
C10   H10   1.084317 S    
C25   H17   1.077302 S    
O5    V1    2.023967 S    
C39   C55   1.438389 A    
O11   C7    1.331062 A    
O15   V3    2.002805 S    
O12   C8    1.324920 A    
O10   V2    2.013813 S    
C36   C52   1.401012 A    
C1    O15   1.333233 A    
C28   H20   1.076768 S    
C27   C31   1.414475 A    
C22   C70   1.486459 S    
O34   H31   1.014158 S    
C53   C65   1.472195 S    
O7    V3    2.013859 S    
C26   C30   1.412505 A    
H1    C57   1.083864 S    
O8    V4    1.994038 S    
C54   C66   1.488440 S    
C48   C52   1.392505 A    
O26   H27   1.013642 S    
C6    C64   1.495968 S    
C20   H16   1.084540 S    
C12   C44   1.400389 A    
C2    O16   1.336052 A    
C17   C21   1.395023 A    
O18   V4    1.773404 S    
C14   C58   1.397987 A    
C17   C61   1.405279 A    
C46   C50   1.387392 A    
C35   C63   1.420563 A    
C20   C24   1.394893 A    
C65   O22   1.398411 S    
C32   C36   1.432136 A    
C19   C63   1.401667 A    
O7    C3    1.322137 A    
O5    C1    1.327183 A    
C24   C72   1.486769 S    
C42   C46   1.397308 A    
C41   C45   1.398403 A    
O8    C4    1.333840 A    
H5    C45   1.084029 S    
H2    C58   1.084252 S    
O9    C5    1.335870 A    
O11   V3    2.043509 S    
H3    C59   1.084173 S    
C67   O25   1.221911 D    
C40   C56   1.433268 A    
C35   C51   1.403051 A    
O6    V2    2.043553 S    
C10   C58   1.385566 A    
C55   C67   1.484524 S    
C68   O27   1.219458 D    
C16   C56   1.421582 A    
C32   C40   1.439105 A    
C20   C64   1.405125 A    
C27   H19   1.076917 S    
O28   H28   1.010636 S    
C34   C50   1.401678 A    
C4    C15   1.475836 S    
C33   C49   1.402281 A    
C68   O28   1.398443 S    
C65   O21   1.219413 D    
O16   V4    1.991028 S    
O9    V1    1.993987 S    
C3    O13   1.336761 A    
C7    C61   1.496670 S    
C18   H14   1.084653 S    
C1    C14   1.478988 S    
C40   C44   1.415866 A    
C13   C53   1.421196 A    
H8    C48   1.084082 S    
C9    C57   1.393898 A    
O6    C2    1.324718 A    
O24   H26   1.013914 S    
C21   C25   1.397622 A    
C26   H18   1.077501 S    
C11   C59   1.388199 A    
O12   V4    2.023919 S    
C71   O33   1.223651 D    
C23   C27   1.399227 A    
C24   C28   1.397847 A    
O10   C6    1.328580 A    
C72   O36   1.399066 S    
O36   H32   1.013957 S    
C37   C53   1.432121 A    
C72   O35   1.223648 D    
C10   C42   1.397094 A    
C43   C47   1.397034 A    
C9    C41   1.400962 A    
C70   O31   1.223527 D    
C5    C63   1.480020 S    
C38   C54   1.442741 A    
O20   V2    1.747520 S    
C12   H12   1.084061 S    
C31   C35   1.430942 A    
O30   H29   1.013993 S    
O4    V2    2.002348 S    
C67   O26   1.397832 S    
O14   V2    2.018682 S    
C52   H24   1.077595 S    
C25   C29   1.412518 A    
C31   C39   1.439431 A    
C38   C42   1.421898 A    
C4    O14   1.323906 A    
C70   O32   1.399091 S    
C37   C41   1.414972 A    
C18   C62   1.404784 A    
C13   C57   1.401269 A    
C66   O23   1.222479 D    
C2    C13   1.488489 S    
C39   C43   1.420752 A    
C45   C49   1.393350 A    
C34   C62   1.421343 A    
C15   C59   1.397341 A    
C69   O30   1.399063 S    
C33   C61   1.428054 A    
