data_mof_unit_65239.cif
_audit_creation_date              2012-12-10T18:24:42-0500
_audit_creation_method            fapswitch 2.2
_symmetry_space_group_name_H-M    P1
_symmetry_Int_Tables_number       1
_space_group_crystal_system       triclinic
_cell_length_a                    16.060695
_cell_length_b                    16.061016
_cell_length_c                    19.4784
_cell_angle_alpha                 95.527986
_cell_angle_beta                  90.562387
_cell_angle_gamma                 84.057101
_cell_volume                      4974.22866133

loop_
_atom_site_label
_atom_site_type_symbol
_atom_type_description
_atom_site_fract_x
_atom_site_fract_y
_atom_site_fract_z
_atom_type_partial_charge
C1    C     C_R   0.275754 0.510881 0.491056 0.504328
C2    C     C_2   0.489737 0.525604 0.984203 0.011630
C3    C     C_2   0.527848 0.461757 0.016205 0.311342
C4    C     C_R   0.724071 0.489235 0.508976 0.503753
C5    C     C_R   0.518062 0.479983 0.236189 0.004660
C6    C     C_1   0.186271 0.516162 0.486953 0.007021
C7    C     C_2   0.020959 0.526721 0.478444 0.002944
C8    C     C_2   0.978775 0.479900 0.516907 -0.096257
C9    C     C_1   0.888724 0.482390 0.514773 -0.038724
C10   C     C_1   0.111048 0.520854 0.483211 -0.028914
C11   C     C_1   0.813530 0.485167 0.512409 0.019338
C12   C     C_R   0.487088 0.523473 0.908512 0.081539
C13   C     C_1   0.515696 0.185076 0.487330 0.018638
C14   C     C_2   0.521298 0.019284 0.482452 -0.093811
C15   C     C_2   0.471776 0.981422 0.522345 0.004255
C16   C     C_R   0.511723 0.274912 0.490787 0.504881
C17   C     C_1   0.478064 0.890768 0.517234 -0.027178
C18   C     C_1   0.518573 0.109605 0.484828 -0.038054
C19   C     C_1   0.482930 0.815108 0.513310 0.010908
C20   C     C_R   0.488102 0.725168 0.509183 0.507818
C21   C     C_R   0.511180 0.488574 0.311455 0.494505
C22   C     C_R   0.489180 0.509623 0.688570 0.509259
C23   C     C_R   0.409328 0.528522 0.872952 0.225735
C24   C     C_R   0.485643 0.515207 0.764068 -0.022589
C25   C     C_R   0.561439 0.511046 0.799930 -0.142710
C26   C     C_R   0.562956 0.516581 0.871925 0.262887
C27   C     C_3   0.977204 0.585157 0.430352 -0.360430
C28   C     C_3   0.409832 0.030614 0.572391 -0.366389
C29   C     C_3   0.326470 0.527255 0.761499 -0.315056
C30   C     C_R   0.408765 0.524744 0.800308 0.026840
C31   C     C_R   0.446261 0.468663 0.125453 0.220920
C32   C     C_R   0.444203 0.475398 0.197678 -0.142566
C33   C     C_R   0.596202 0.475097 0.201875 0.232473
C34   C     C_R   0.597626 0.469345 0.130019 -0.101408
C35   C     C_R   0.523600 0.466388 0.091952 -0.009002
H1    H     H_    0.619849 0.505081 0.771577 0.123393
H2    H     H_    0.375114 0.987848 0.600270 0.140170
H3    H     H_    0.443157 0.070547 0.610993 0.144819
H4    H     H_    0.363818 0.071193 0.544212 0.141044
H5    H     H_    0.665967 0.455203 0.282154 0.338160
H6    H     H_    0.591145 0.352038 0.011130 0.326796
H7    H     H_    0.340988 0.528221 0.956223 0.357908
H8    H     H_    0.325578 0.466135 0.118134 0.332092
H9    H     H_    0.316010 0.586273 0.735924 0.154036
H10   H     H_    0.327520 0.472386 0.722073 0.116657
H11   H     H_    0.271752 0.524909 0.795252 0.194042
H12   H     H_    0.657071 0.466585 0.103578 0.172246
H13   H     H_    0.684766 0.511436 0.874559 0.326794
H14   H     H_    0.012441 0.438419 0.551011 0.123886
H15   H     H_    0.565262 0.981760 0.446952 0.127709
H16   H     H_    0.384698 0.478122 0.224027 0.125113
H17   H     H_    0.455471 0.578631 0.014208 0.088568
H18   H     H_    0.022992 0.617991 0.403447 0.137128
H19   H     H_    0.941551 0.548889 0.390845 0.153095
H20   H     H_    0.933482 0.633313 0.459958 0.144482
O1    O     O_3   0.500000 0.500000 0.500000 -0.443044
O2    O     O_R   0.462330 0.445560 0.340470 -0.542385
O3    O     O_R   0.440930 0.559110 0.655640 -0.547094
O4    O     O_R   0.554010 0.538050 0.348260 -0.527178
O5    O     O_R   0.542730 0.457290 0.655630 -0.533463
O6    O     O_3   0.672231 0.473681 0.235679 -0.676119
O7    O     O_3   0.569341 0.392758 0.978468 -0.643123
O8    O     O_3   0.333072 0.536024 0.906839 -0.700045
O9    O     O_3   0.374143 0.463618 0.086682 -0.704696
O10   O     O_3   0.637694 0.516653 0.907788 -0.656569
O11   O     O_R   0.555880 0.314540 0.535300 -0.532644
O12   O     O_R   0.439840 0.689760 0.546310 -0.535096
O13   O     O_R   0.320170 0.458170 0.449830 -0.533237
O14   O     O_R   0.684110 0.537530 0.468570 -0.535575
O15   O     O_R   0.310830 0.559620 0.535340 -0.539967
O16   O     O_R   0.684890 0.444680 0.546270 -0.535330
O17   O     O_R   0.463420 0.314900 0.449800 -0.534727
O18   O     O_R   0.540870 0.680800 0.468590 -0.530708
Zn1   Zn    Zn3+2 0.569660 0.430340 0.558290 0.951312
Zn2   Zn    Zn3+2 0.437560 0.430860 0.436130 0.949001
Zn3   Zn    Zn3+2 0.568560 0.563000 0.447270 0.958960
Zn4   Zn    Zn3+2 0.424220 0.575810 0.558310 0.941003

loop_
_geom_bond_atom_site_label_1
_geom_bond_atom_site_label_2
_ccdc_geom_bond_type
C7    C10   S    
O1    Zn3   S    
C14   C18   S    
C20   O12   A    
C19   C20   S    
O12   Zn4   S    
C2    C12   S    
C27   H19   S    
C7    C8    D    
O13   Zn2   S    
C12   C23   A    
C13   C18   T    
C21   O4    A    
C22   O5    A    
C27   H20   S    
O11   Zn1   S    
C1    O13   A    
C7    C27   S    
O14   Zn3   S    
C34   C35   A    
O3    Zn4   S    
C5    C33   A    
C8    C9    S    
C16   O17   A    
C3    C35   S    
H13   O10   S    
C5    C32   A    
C23   O8    S    
O1    Zn2   S    
O15   Zn4   S    
H6    O7    S    
O17   Zn2   S    
C4    O14   A    
H8    O9    S    
O1    Zn1   S    
C1    C6    S    
C23   C30   A    
C24   C25   A    
C28   H4    S    
C25   C26   A    
H5    O6    S    
C12   C26   A    
C32   H16   S    
C21   O2    A    
C29   C30   S    
C31   C32   A    
C28   H3    S    
C33   C34   A    
C4    C11   S    
C9    C11   T    
C2    H17   S    
O4    Zn3   S    
C29   H9    S    
O18   Zn3   S    
C31   C35   A    
C16   O11   A    
C3    O7    S    
C15   C17   S    
C26   O10   S    
C31   O9    S    
C22   O3    A    
O16   Zn1   S    
C27   H18   S    
C1    O15   A    
C29   H11   S    
O2    Zn2   S    
C2    C3    D    
C15   C28   S    
C14   H15   S    
C28   H2    S    
H7    O8    S    
O5    Zn1   S    
C17   C19   T    
C20   O18   A    
C22   C24   S    
C24   C30   A    
C6    C10   T    
O1    Zn4   S    
C25   H1    S    
C5    C21   S    
C33   O6    S    
C13   C16   S    
C29   H10   S    
C14   C15   D    
C34   H12   S    
C8    H14   S    
C4    O16   A    
