data_mof_unit_9165.cif
_audit_creation_date              2012-10-26T20:19:34-0400
_audit_creation_method            fapswitch 2.2
_symmetry_space_group_name_H-M    P1
_symmetry_Int_Tables_number       1
_space_group_crystal_system       triclinic
_cell_length_a                    10.803021
_cell_length_b                    10.860306
_cell_length_c                    9.628164
_cell_angle_alpha                 91.532976
_cell_angle_beta                  90.404883
_cell_angle_gamma                 94.160277
_cell_volume                      1126.19009276

loop_
_atom_site_label
_atom_site_type_symbol
_atom_type_description
_atom_site_fract_x
_atom_site_fract_y
_atom_site_fract_z
_atom_type_partial_charge
C1    C     C_R   0.505805 0.263292 0.498297 0.549387
C2    C     C_R   0.562637 0.072461 0.611576 0.032318
C3    C     C_R   0.514301 0.130178 0.495948 0.008035
C4    C     C_R   0.260150 0.494980 0.499203 0.557672
C5    C     C_R   0.459076 0.058909 0.385974 -0.157433
C6    C     C_R   0.453223 0.931181 0.389968 -0.170067
C7    C     C_R   0.488855 0.872703 0.510464 0.008253
C8    C     C_R   0.667406 0.665358 0.150216 -0.107019
C9    C     C_R   0.752070 0.743218 0.081135 -0.195336
C10   C     C_R   0.750932 0.743796 0.938141 -0.118775
C11   C     C_R   0.665791 0.665948 0.862948 -0.063826
C12   C     C_3   0.878429 0.495632 0.500957 -0.005889
C13   C     C_R   0.579714 0.583499 0.928574 0.115759
C14   C     C_R   0.580491 0.582910 0.077865 0.134390
C15   C     C_R   0.429074 0.416451 0.072827 -0.005544
C16   C     C_R   0.494607 0.737703 0.502858 0.577457
C17   C     C_R   0.430761 0.413230 0.925678 0.161261
C18   C     C_R   0.739792 0.496731 0.500354 0.563696
C19   C     C_3   0.069898 0.428283 0.628333 -0.223568
C20   C     C_3   0.928082 0.435297 0.636098 -0.063087
C21   C     C_3   0.084346 0.627721 0.499996 -0.227636
C22   C     C_3   0.066210 0.421835 0.367382 -0.243163
C23   C     C_3   0.941686 0.630062 0.481792 -0.039716
C24   C     C_3   0.122533 0.493049 0.497886 -0.026690
C25   C     C_2   0.364928 0.302854 0.859681 0.589776
C26   C     C_2   0.895757 0.493678 0.774518 0.580138
C27   C     C_2   0.887975 0.735409 0.562882 0.561763
C28   C     C_R   0.860325 0.286584 0.350258 0.022314
C29   C     C_R   0.766917 0.263582 0.247783 -0.053753
C30   C     C_R   0.712180 0.144484 0.222993 -0.113404
C31   C     C_R   0.751365 0.045795 0.297373 -0.104515
C32   C     C_R   0.844493 0.066252 0.397846 -0.108584
C33   C     C_R   0.898819 0.185293 0.424145 -0.113964
C34   C     C_3   0.921979 0.417777 0.370495 -0.144107
C35   C     C_R   0.638908 0.138000 0.712613 -0.062036
C36   C     C_R   0.658225 0.087694 0.841310 -0.090674
C37   C     C_R   0.599257 0.973730 0.871350 -0.121510
C38   C     C_R   0.536785 0.902407 0.766177 -0.097015
C39   C     C_R   0.529813 0.946263 0.629457 0.041645
Cu1   Cu    Cu3+1 0.499990 0.499990 0.640660 1.005630
Cu2   Cu    Cu3+1 0.500010 0.500010 0.359340 0.923535
H1    H     H_    0.116041 0.470809 0.723552 0.195661
H2    H     H_    0.417909 0.878010 0.299513 0.139756
H3    H     H_    0.371929 0.348038 0.127947 0.135533
H4    H     H_    0.092846 0.330359 0.625940 0.144522
H5    H     H_    0.675794 0.672412 0.260108 0.208214
H6    H     H_    0.819049 0.803699 0.139093 0.127206
H7    H     H_    0.816047 0.805918 0.885079 0.174518
H8    H     H_    0.671554 0.672554 0.753561 0.225988
H9    H     H_    0.884859 0.339668 0.638760 0.103443
H10   H     H_    0.117658 0.672984 0.599627 0.199091
H11   H     H_    0.099547 0.469185 0.271990 0.141134
H12   H     H_    0.895597 0.467941 0.276424 0.123237
H13   H     H_    0.100702 0.327901 0.360778 0.132452
H14   H     H_    0.337004 0.116968 0.856096 0.341207
H15   H     H_    0.814252 0.468540 0.960671 0.328609
H16   H     H_    0.918089 0.885787 0.689914 0.322621
H17   H     H_    0.735620 0.337865 0.186772 0.135518
H18   H     H_    0.637805 0.129003 0.147482 0.121175
H19   H     H_    0.708361 0.953779 0.278467 0.128544
H20   H     H_    0.875279 0.989700 0.455097 0.154463
H21   H     H_    0.972769 0.196170 0.499894 0.102619
H22   H     H_    0.131528 0.680101 0.415070 0.107146
H23   H     H_    0.926149 0.654995 0.371813 0.080751
H24   H     H_    0.422304 0.101963 0.295800 0.144190
H25   H     H_    0.682025 0.228939 0.693778 0.153462
H26   H     H_    0.713622 0.140147 0.919334 0.134136
H27   H     H_    0.603403 0.939719 0.975735 0.118876
H28   H     H_    0.488375 0.817548 0.796812 0.145667
N1    N     N_R   0.501200 0.501210 0.147910 -0.271326
N2    N     N_R   0.501250 0.501290 0.852040 -0.268542
O1    O     O_R   0.499990 0.319640 0.618810 -0.475225
O2    O     O_R   0.387562 0.186182 0.907852 -0.732806
O3    O     O_2   0.941303 0.596090 0.809663 -0.507850
O4    O     O_R   0.821423 0.424817 0.867066 -0.718147
O5    O     O_2   0.781016 0.759317 0.540319 -0.577992
O6    O     O_R   0.962575 0.812986 0.652596 -0.689987
O7    O     O_R   0.500000 0.319660 0.381240 -0.515681
O8    O     O_R   0.317680 0.499970 0.618790 -0.466058
O9    O     O_R   0.317700 0.499990 0.381210 -0.512495
O10   O     O_R   0.500000 0.680340 0.618760 -0.534211
O11   O     O_R   0.500010 0.680360 0.381190 -0.516900
O12   O     O_R   0.682300 0.500010 0.618790 -0.494136
O13   O     O_R   0.682320 0.500030 0.381210 -0.536709
O14   O     O_2   0.286962 0.312171 0.769596 -0.527393

loop_
_geom_bond_atom_site_label_1
_geom_bond_atom_site_label_2
_ccdc_geom_bond_type
C2    C35   A    
Cu1   N2    S    
C35   C36   A    
Cu2   O9    S    
C36   H26   S    
C22   H13   S    
C12   C23   S    
C37   C38   A    
C28   C29   A    
C15   H3    S    
C4    O9    A    
C30   C31   A    
C4    C24   S    
C37   H27   S    
C20   H9    S    
C2    C39   A    
C19   C20   S    
C33   H21   S    
C18   O13   A    
C23   C27   S    
C9    C10   A    
C19   H1    S    
C38   H28   S    
C28   C34   S    
H15   O4    S    
C13   C14   A    
C1    O7    A    
C14   N1    A    
Cu1   O12   S    
C25   O14   D    
C18   O12   A    
C38   C39   A    
C22   C34   S    
C1    O1    A    
H16   O6    S    
C4    O8    A    
C5    H24   S    
Cu2   O7    S    
C8    C9    A    
C13   N2    A    
C35   H25   S    
C27   O6    S    
Cu2   O13   S    
C1    C3    S    
C31   H19   S    
C29   C30   A    
C11   H8    S    
C31   C32   A    
C30   H18   S    
C12   C20   S    
C16   O11   A    
C26   O4    S    
Cu1   O8    S    
Cu1   Cu2   S    
C28   C33   A    
C17   N2    A    
C6    H2    S    
C21   C23   S    
C10   H7    S    
C22   C24   S    
C12   C34   S    
C27   O5    D    
C21   H10   S    
C22   H11   S    
C15   C17   A    
C15   N1    A    
C23   H23   S    
C8    C14   A    
Cu1   O1    S    
Cu1   O10   S    
C7    C16   S    
C3    C5    A    
C32   H20   S    
C19   H4    S    
C9    H6    S    
C6    C7    A    
C17   C25   S    
C32   C33   A    
C2    C3    A    
C11   C13   A    
C5    C6    A    
C20   C26   S    
Cu2   O11   S    
C16   O10   A    
C26   O3    D    
C19   C24   S    
C25   O2    S    
C8    H5    S    
C21   H22   S    
C10   C11   A    
H14   O2    S    
C29   H17   S    
C34   H12   S    
C36   C37   A    
C21   C24   S    
C12   C18   S    
C7    C39   A    
Cu2   N1    S    
