data_mof_unit_31058.cif
_audit_creation_date              2013-03-05T16:54:28-0500
_audit_creation_method            fapswitch 2.2
_symmetry_space_group_name_H-M    P1
_symmetry_Int_Tables_number       1
_space_group_crystal_system       triclinic
_cell_length_a                    17.495185
_cell_length_b                    16.845374
_cell_length_c                    10.694904
_cell_angle_alpha                 90.641735
_cell_angle_beta                  91.510096
_cell_angle_gamma                 91.11124
_cell_volume                      3150.02301001

loop_
_atom_site_label
_atom_site_type_symbol
_atom_site_description
_atom_site_fract_x
_atom_site_fract_y
_atom_site_fract_z
_atom_type_partial_charge
O1    O     O_R   0.389110 0.566570 0.499990 -0.622857
O2    O     O_R   0.610890 0.566570 0.500010 -0.636265
O3    O     O_R   0.389090 0.433480 0.499980 -0.603444
O4    O     O_R   0.610910 0.433480 0.500020 -0.621673
C1    C     C_R   0.353678 0.499149 0.515160 0.899182
C2    C     C_R   0.644916 0.500581 0.476603 0.881267
O5    O     O_R   0.500000 0.566560 0.316760 -0.647792
O6    O     O_R   0.500000 0.566560 0.683240 -0.652957
O7    O     O_R   0.499970 0.433470 0.316760 -0.567390
O8    O     O_R   0.500030 0.433470 0.683240 -0.560296
C3    C     C_R   0.508986 0.499814 0.259195 0.902748
C4    C     C_R   0.488459 0.500648 0.738930 0.896478
Zn1   Zn    Zn3+2 0.500000 0.588860 0.500000 0.901153
Zn2   Zn    Zn3+2 0.500000 0.411140 0.500000 0.980768
C5    C     C_R   0.543220 0.645934 0.113707 -0.311756
C6    C     C_R   0.462203 0.649611 0.889205 -0.295127
H1    H     H_    0.576726 0.645747 0.199185 0.168710
H2    H     H_    0.428781 0.652064 0.803152 0.161011
C7    C     C_R   0.526719 0.719812 0.061632 0.018761
C8    C     C_R   0.482826 0.721676 0.948805 0.010466
C9    C     C_R   0.483784 0.575674 0.939093 0.097682
C10   C     C_R   0.515195 0.573765 0.059869 0.093381
C11   C     C_R   0.517764 0.499891 0.122908 -0.247515
C12   C     C_R   0.473551 0.503327 0.872523 -0.245209
C13   C     C_R   0.506249 0.427603 0.054643 0.171590
C14   C     C_R   0.470117 0.431317 0.936647 0.200671
C15   C     C_R   0.845738 0.577453 0.414571 0.158073
C16   C     C_R   0.154806 0.574556 0.541945 0.160647
C17   C     C_R   0.764717 0.574833 0.406672 0.156833
C18   C     C_R   0.233706 0.568743 0.571570 0.118221
C19   C     C_R   0.725519 0.502027 0.433043 -0.187158
C20   C     C_R   0.270839 0.497366 0.541857 -0.219303
C21   C     C_R   0.765319 0.430406 0.413100 0.064533
C22   C     C_R   0.226630 0.425973 0.536131 0.144278
C23   C     C_R   0.845695 0.432380 0.423795 -0.016746
C24   C     C_R   0.148544 0.430704 0.503393 -0.046759
C25   C     C_R   0.884868 0.505998 0.432150 -0.014473
C26   C     C_R   0.113659 0.505226 0.502899 -0.053682
C27   C     C_1   0.965844 0.507724 0.455047 0.023743
C28   C     C_1   0.033289 0.508156 0.475450 -0.032259
C29   C     C_R   0.454300 0.834032 0.421230 -0.190455
C30   C     C_R   0.547582 0.834266 0.586624 -0.215709
H3    H     H_    0.418972 0.868414 0.358665 0.185959
H4    H     H_    0.583849 0.867062 0.653600 0.185971
C31   C     C_R   0.452293 0.749547 0.418762 0.210755
C32   C     C_R   0.548416 0.750342 0.582307 0.231525
N1    N     N_R   0.500000 0.707230 0.500000 -0.156402
C33   C     C_R   0.501570 0.876485 0.504995 0.043597
C34   C     C_1   0.502861 0.963458 0.506270 -0.012503
C35   C     C_1   0.503058 0.035930 0.505730 -0.014577
C36   C     C_R   0.442473 0.163174 0.439911 0.003909
C37   C     C_R   0.560740 0.168995 0.564128 0.008339
C38   C     C_R   0.442794 0.248194 0.438782 0.032962
C39   C     C_R   0.558080 0.253653 0.562442 0.019400
N2    N     N_R   0.500000 0.292770 0.500000 -0.148541
C40   C     C_R   0.501917 0.123502 0.503654 0.082079
C41   C     C_3   0.535210 0.347904 0.101894 -0.370956
C42   C     C_3   0.591389 0.310009 0.013058 -0.866896
H5    H     H_    0.562913 0.289229 0.925414 0.287562
H6    H     H_    0.638072 0.352759 0.990947 0.285046
H7    H     H_    0.616259 0.256794 0.057335 0.239651
H8    H     H_    0.568273 0.354628 0.190778 0.226824
H9    H     H_    0.486940 0.305795 0.116959 0.237972
C43   C     C_3   0.416188 0.364810 0.889462 -0.392757
C44   C     C_3   0.346552 0.358222 0.972127 -0.873674
H10   H     H_    0.363805 0.349230 0.070807 0.305684
H11   H     H_    0.312563 0.413131 0.965794 0.260293
H12   H     H_    0.310287 0.306472 0.942078 0.254933
H13   H     H_    0.393889 0.376696 0.793824 0.211213
H14   H     H_    0.444299 0.306762 0.885414 0.220732
C45   C     C_3   0.380873 0.114583 0.367203 -0.427613
C46   C     C_3   0.396812 0.112623 0.227477 -0.800615
H15   H     H_    0.396398 0.173270 0.188025 0.252965
H16   H     H_    0.453366 0.085963 0.211494 0.273260
H17   H     H_    0.352087 0.075934 0.177395 0.252990
H18   H     H_    0.376785 0.052389 0.399487 0.219892
H19   H     H_    0.323012 0.137486 0.383282 0.194642
C47   C     C_3   0.624964 0.126610 0.634179 -0.429920
C48   C     C_3   0.601848 0.106684 0.766958 -0.785040
H20   H     H_    0.589246 0.161815 0.819651 0.256398
H21   H     H_    0.550481 0.066865 0.765212 0.272059
H22   H     H_    0.649378 0.076092 0.816086 0.249664
H23   H     H_    0.640158 0.071191 0.584227 0.217043
H24   H     H_    0.678884 0.162244 0.638537 0.185564
C49   C     C_2   0.379086 0.287000 0.371221 0.450615
H25   H     H_    0.321093 0.265463 0.379951 0.045264
O9    O     O_2   0.390324 0.339456 0.296839 -0.568623
C50   C     C_2   0.620215 0.298804 0.628207 0.523208
H26   H     H_    0.678194 0.295263 0.596028 -0.006267
O10   O     O_2   0.608470 0.336902 0.722766 -0.575553
C51   C     C_2   0.552671 0.791424 0.134499 0.445660
H27   H     H_    0.601227 0.787536 0.199351 0.036965
O11   O     O_2   0.518229 0.853633 0.129621 -0.538830
C52   C     C_2   0.461264 0.795594 0.883644 0.417281
H28   H     H_    0.409953 0.795815 0.824367 0.044345
O12   O     O_2   0.502491 0.854873 0.887834 -0.539192
C53   C     C_3   0.890798 0.655682 0.404084 -0.408509
C54   C     C_3   0.893124 0.701379 0.527988 -0.886756
H29   H     H_    0.835082 0.720440 0.551861 0.263672
H30   H     H_    0.916149 0.663700 0.604184 0.258844
H31   H     H_    0.930532 0.755020 0.520427 0.255740
H32   H     H_    0.950245 0.645517 0.376278 0.215424
H33   H     H_    0.868167 0.693643 0.328447 0.213173
C55   C     C_3   0.114787 0.653927 0.548022 -0.398488
C56   C     C_3   0.110382 0.691488 0.418698 -0.854804
H34   H     H_    0.168499 0.706247 0.385765 0.257727
H35   H     H_    0.082172 0.650252 0.349432 0.259285
H36   H     H_    0.077141 0.746880 0.423164 0.248382
H37   H     H_    0.056322 0.645926 0.584209 0.206176
H38   H     H_    0.143680 0.696677 0.613731 0.220260
C57   C     C_3   0.724218 0.640913 0.336670 -0.425445
C58   C     C_3   0.733221 0.629928 0.195605 -0.899644
H39   H     H_    0.794305 0.625753 0.171343 0.266501
H40   H     H_    0.702681 0.574770 0.162842 0.265214
H41   H     H_    0.708857 0.681349 0.145478 0.247420
H42   H     H_    0.662900 0.643819 0.354225 0.231140
H43   H     H_    0.746957 0.700214 0.365609 0.205342
C59   C     C_3   0.271088 0.624640 0.669054 -0.382377
C60   C     C_3   0.298925 0.704306 0.618367 -0.852438
H44   H     H_    0.270153 0.719091 0.528484 0.268068
H45   H     H_    0.287895 0.752370 0.687066 0.231658
H46   H     H_    0.361389 0.703166 0.605801 0.263952
H47   H     H_    0.229886 0.635341 0.744528 0.185776
H48   H     H_    0.319584 0.595028 0.717132 0.186091
C61   C     C_3   0.726068 0.356316 0.355320 -0.416358
C62   C     C_3   0.747882 0.345522 0.218711 -0.836517
H49   H     H_    0.725867 0.395574 0.162380 0.257300
H50   H     H_    0.810539 0.342783 0.207803 0.292378
H51   H     H_    0.722670 0.288881 0.181784 0.246477
H52   H     H_    0.741816 0.302719 0.408647 0.180332
H53   H     H_    0.663270 0.358112 0.352778 0.225552
C63   C     C_3   0.255594 0.349179 0.593432 -0.389294
C64   C     C_3   0.216584 0.331813 0.716670 -0.898647
H54   H     H_    0.226227 0.382316 0.783119 0.267643
H55   H     H_    0.154162 0.321568 0.702699 0.255832
H56   H     H_    0.240591 0.277145 0.757691 0.257211
H57   H     H_    0.244430 0.298304 0.529166 0.233550
H58   H     H_    0.317343 0.350622 0.615913 0.212133
C65   C     C_2   0.888215 0.356895 0.422239 0.366863
H59   H     H_    0.869553 0.307301 0.478419 0.056263
O13   O     O_2   0.941762 0.348408 0.352781 -0.555964
C66   C     C_2   0.102269 0.357482 0.475477 0.488359
H60   H     H_    0.047288 0.349165 0.518259 0.078807
O14   O     O_2   0.124896 0.306781 0.403682 -0.553979
C67   C     C_3   0.395994 0.707342 0.327024 -0.346325
C68   C     C_3   0.343338 0.759519 0.247539 -0.974992
H61   H     H_    0.307175 0.796420 0.308130 0.261583
H62   H     H_    0.376953 0.797612 0.184277 0.301412
H63   H     H_    0.304665 0.720974 0.188113 0.262813
H64   H     H_    0.427270 0.671711 0.259982 0.252748
H65   H     H_    0.356783 0.668801 0.377948 0.252532
C69   C     C_3   0.604231 0.712511 0.673436 -0.349450
C70   C     C_3   0.686818 0.738467 0.651609 -0.926876
H66   H     H_    0.697784 0.800429 0.684836 0.261162
H67   H     H_    0.726420 0.699238 0.703891 0.260217
H68   H     H_    0.698825 0.734688 0.550875 0.260584
H69   H     H_    0.590192 0.729828 0.770159 0.208943
H70   H     H_    0.602490 0.648097 0.670108 0.280688

loop_
_geom_bond_atom_site_label_1
_geom_bond_atom_site_label_2
_geom_bond_distance
_ccdc_geom_bond_type
C32   C69   1.515723 S    
C6    C9    1.414576 A    
C15   C17   1.417581 A    
C39   N2    1.383022 A    
C57   C58   1.530547 S    
C58   H40   1.111376 S    
C67   C68   1.533197 S    
C41   H8    1.103242 S    
C49   H25   1.077610 S    
O5    C3    1.290105 A    
C56   H35   1.109401 S    
C62   H49   1.110834 S    
C61   C62   1.529520 S    
C36   C45   1.530845 S    
C31   C67   1.531187 S    
C26   C28   1.430724 S    
C12   C14   1.401207 A    
C55   H37   1.109440 S    
C63   H58   1.100278 S    
C53   C54   1.524238 S    
C61   H53   1.099290 S    
C36   C40   1.411639 A    
C30   C32   1.414334 A    
C31   N1    1.399424 A    
O2    Zn1   1.983175 S    
C14   C43   1.523562 S    
C59   C60   1.528682 S    
C55   C56   1.528109 S    
C24   C66   1.485336 S    
C23   C65   1.485746 S    
C69   H69   1.106752 S    
C61   H52   1.108702 S    
C5    C10   1.412877 A    
C7    C8    1.414110 A    
C63   C64   1.528676 S    
C44   H11   1.111017 S    
C64   H56   1.109625 S    
C19   C21   1.421480 A    
C57   H42   1.095856 S    
C43   H14   1.103961 S    
C70   H67   1.111308 S    
C22   C24   1.405308 A    
C67   H64   1.094325 S    
O6    C4    1.280918 A    
C1    C20   1.484306 S    
C42   H7    1.109477 S    
C38   N2    1.385443 A    
Zn2   N2    1.993987 S    
C22   C63   1.527293 S    
C9    C10   1.391288 A    
C29   H3    1.079798 S    
O2    C2    1.296149 A    
C30   H4    1.083724 S    
C46   H17   1.110347 S    
C37   C47   1.527184 S    
C47   H23   1.110646 S    
C58   H39   1.109715 S    
C37   C39   1.428058 A    
C41   H9    1.108506 S    
C68   H62   1.109707 S    
C60   H45   1.110329 S    
C25   C27   1.430996 S    
C56   H36   1.110262 S    
C69   H70   1.085070 S    
C49   O9    1.212253 D    
C13   C41   1.530566 S    
O4    C2    1.297103 A    
O8    Zn2   1.991350 S    
C51   H27   1.085873 S    
C48   H21   1.110575 S    
C47   C48   1.525931 S    
C59   H48   1.110071 S    
C18   C59   1.522991 S    
C62   H51   1.107676 S    
C63   H57   1.103749 S    
C35   C40   1.476110 S    
C36   C38   1.432285 A    
C20   C22   1.417066 A    
C5    C7    1.401168 A    
O7    Zn2   1.999630 S    
C51   O11   1.219848 D    
C68   H63   1.111023 S    
C16   C55   1.522786 S    
C16   C26   1.413210 A    
C6    C8    1.401335 A    
C44   H12   1.107831 S    
C21   C61   1.529136 S    
C60   H44   1.106445 S    
C30   C33   1.383856 A    
C43   H13   1.106831 S    
C69   C70   1.526067 S    
C70   H68   1.104416 S    
C52   O12   1.220143 D    
O7    C3    1.290973 A    
C53   H33   1.106603 S    
O3    Zn2   1.983696 S    
O8    C4    1.294791 A    
C46   H16   1.110991 S    
C33   C34   1.464737 S    
C50   O10   1.215880 D    
C34   C35   1.220830 T    
C54   H30   1.110590 S    
C64   H54   1.109886 S    
O1    C1    1.297149 A    
C42   H5    1.100276 S    
O1    Zn1   1.968878 S    
C44   H10   1.102914 S    
C24   C26   1.406459 A    
C45   H19   1.107243 S    
C55   H38   1.106260 S    
Zn1   N1    1.993987 S    
C68   H61   1.111058 S    
C60   H46   1.105071 S    
C5    H1    1.072962 S    
C8    C52   1.483991 S    
C32   N1    1.393675 A    
C15   C53   1.529149 S    
C62   H50   1.107231 S    
C23   C25   1.406022 A    
C66   H60   1.083353 S    
C17   C57   1.524106 S    
C53   H32   1.105220 S    
C46   H15   1.109767 S    
O3    C1    1.289087 A    
C48   H22   1.110290 S    
C65   H59   1.084684 S    
C67   H65   1.095019 S    
C54   H31   1.110345 S    
C56   H34   1.109383 S    
C4    C12   1.459478 S    
C57   H43   1.105955 S    
C43   C44   1.527058 S    
C39   C50   1.473262 S    
C16   C18   1.413605 A    
C13   C14   1.399044 A    
C45   C46   1.527466 S    
C17   C19   1.428046 A    
C18   C20   1.414702 A    
C65   O13   1.220401 D    
C41   C42   1.528451 S    
C45   H18   1.108353 S    
C15   C25   1.408233 A    
C3    C11   1.469679 S    
C21   C23   1.407541 A    
C29   C33   1.386200 A    
C2    C19   1.496567 S    
C66   O14   1.220722 D    
C59   H47   1.111795 S    
C11   C13   1.421002 A    
O4    Zn2   1.969363 S    
C52   H28   1.085339 S    
C7    C51   1.485850 S    
C48   H20   1.109701 S    
C27   C28   1.194175 T    
O6    Zn1   1.999539 S    
C47   H24   1.107919 S    
O5    Zn1   1.991276 S    
C50   H26   1.082230 S    
C6    H2    1.078901 S    
C54   H29   1.106300 S    
C9    C12   1.410520 A    
C64   H55   1.108284 S    
C29   C31   1.422861 A    
C10   C11   1.422876 A    
C38   C49   1.479218 S    
C70   H66   1.110355 S    
C42   H6    1.110286 S    
C58   H41   1.109998 S    
C37   C40   1.409937 A    
