data_mof_unit_9979.cif
_audit_creation_date              2012-12-11T15:14:42-0500
_audit_creation_method            fapswitch 2.2
_symmetry_space_group_name_H-M    P1
_symmetry_Int_Tables_number       1
_space_group_crystal_system       triclinic
_cell_length_a                    22.315985
_cell_length_b                    7.215898
_cell_length_c                    19.321961
_cell_angle_alpha                 90.047736
_cell_angle_beta                  98.933387
_cell_angle_gamma                 90.036807
_cell_volume                      3073.66804255

loop_
_atom_site_label
_atom_site_type_symbol
_atom_type_description
_atom_site_fract_x
_atom_site_fract_y
_atom_site_fract_z
_atom_type_partial_charge
O1    O     O_R   0.448470 0.506130 0.415700 -0.544538
O2    O     O_R   0.551530 0.006130 0.584300 -0.539930
O3    O     O_R   0.436320 0.174490 0.555800 -0.544194
O4    O     O_R   0.563680 0.674490 0.444200 -0.544907
C1    C     C_R   0.421698 0.344230 0.575731 0.756154
C2    C     C_R   0.578463 0.844219 0.424477 0.752877
O5    O     O_R   0.441350 0.176340 0.414480 -0.530116
O6    O     O_R   0.558650 0.676340 0.585520 -0.532294
O7    O     O_R   0.556600 0.007100 0.441970 -0.523751
O8    O     O_R   0.443400 0.507100 0.558030 -0.521413
C3    C     C_R   0.427088 0.344998 0.389304 0.888771
C4    C     C_R   0.573201 0.845302 0.610377 0.879571
O9    O     O_3   0.537810 0.339550 0.509190 -0.383440
O10   O     O_3   0.462190 0.839550 0.490810 -0.382469
V1    V     V_3+5 0.492990 0.064280 0.498300 1.483893
V2    V     V_3+5 0.507010 0.564280 0.501700 1.485767
C5    C     C_R   0.870196 0.008842 0.696514 0.449335
C6    C     C_R   0.132141 0.522194 0.302046 0.449005
C7    C     C_R   0.884689 0.943762 0.821873 -0.323800
C8    C     C_R   0.116210 0.445460 0.177566 -0.326748
C9    C     C_R   0.591558 0.834831 0.738922 0.369543
C10   C     C_R   0.409995 0.336319 0.260448 0.283540
C11   C     C_R   0.627178 0.867502 0.803877 0.227931
C12   C     C_R   0.374448 0.371182 0.194814 0.220997
C13   C     C_R   0.687589 0.929757 0.806705 0.290221
C14   C     C_R   0.314000 0.431178 0.191721 0.389260
C15   C     C_R   0.717036 0.912697 0.747117 0.023025
C16   C     C_R   0.284423 0.416075 0.251277 -0.012919
C17   C     C_R   0.679727 0.898473 0.680251 -0.131720
C18   C     C_R   0.321262 0.397874 0.318286 -0.133282
C19   C     C_R   0.781807 0.929884 0.752302 -0.060829
C20   C     C_R   0.219569 0.433436 0.246183 -0.059017
C21   C     C_R   0.806884 0.973818 0.691015 -0.195307
C22   C     C_R   0.195195 0.485495 0.307093 -0.191348
C23   C     C_R   0.768778 0.976166 0.625026 0.340456
C24   C     C_R   0.234106 0.497324 0.372184 0.331706
C25   C     C_R   0.705996 0.937060 0.619632 0.254752
C26   C     C_R   0.294180 0.429059 0.378825 0.254663
C27   C     C_R   0.822033 0.894644 0.816443 0.433258
C28   C     C_R   0.178781 0.394574 0.182733 0.429819
C29   C     C_R   0.907786 0.002610 0.761716 0.313118
C30   C     C_R   0.093962 0.510633 0.237456 0.317096
C31   C     C_R   0.616320 0.857113 0.676828 -0.237209
C32   C     C_R   0.384513 0.355534 0.322279 -0.196481
C33   C     C_3   0.771918 0.776733 0.306415 -0.336092
C34   C     C_3   0.229044 0.276435 0.694776 -0.336317
C35   C     C_3   0.803484 0.959631 0.287797 0.311609
C36   C     C_3   0.197390 0.459121 0.713383 0.311779
H1    H     H_    0.787971 0.680306 0.350061 0.141314
H2    H     H_    0.213024 0.179653 0.651152 0.142146
C37   C     C_1   0.875899 0.940647 0.121429 -0.184441
C38   C     C_1   0.124498 0.440554 0.879106 -0.184574
C39   C     C_1   0.624640 0.853482 0.379493 -0.173863
C40   C     C_1   0.375850 0.353576 0.621149 -0.182240
C41   C     C_3   0.761664 0.729855 0.226793 0.477796
C42   C     C_3   0.239339 0.229953 0.774390 0.477210
C43   C     C_3   0.793314 0.910554 0.208910 -0.103120
C44   C     C_3   0.207574 0.410419 0.792261 -0.104661
C45   C     C_3   0.699040 0.827857 0.216284 -0.243895
C46   C     C_3   0.301906 0.328594 0.784878 -0.238485
C47   C     C_3   0.709855 0.879667 0.295254 -0.081530
C48   C     C_3   0.291045 0.379998 0.705909 -0.082684
C49   C     C_3   0.731639 0.008854 0.200859 0.270407
C50   C     C_3   0.269192 0.509330 0.800325 0.272303
C51   C     C_3   0.741886 0.060421 0.278925 0.432680
C52   C     C_3   0.258922 0.560530 0.722267 0.432849
C53   C     C_1   0.838341 0.928909 0.160415 0.050116
C54   C     C_1   0.162320 0.428788 0.840462 0.052185
C55   C     C_1   0.663108 0.864019 0.341624 0.037081
C56   C     C_1   0.337620 0.364268 0.659322 0.039701
H3    H     H_    0.656427 0.773029 0.185837 0.161267
H4    H     H_    0.344555 0.274301 0.815319 0.165372
O11   O     O_R   0.056650 0.288730 0.942060 -0.535196
O12   O     O_R   0.943350 0.788730 0.057940 -0.534032
O13   O     O_R   0.058660 0.616870 0.085540 -0.521691
O14   O     O_R   0.941340 0.116870 0.914460 -0.523003
C57   C     C_R   0.073656 0.448675 0.110311 0.761814
C58   C     C_R   0.926617 0.948458 0.889501 0.760786
O15   O     O_R   0.063700 0.618520 0.944220 -0.542071
O16   O     O_R   0.936300 0.118520 0.055780 -0.541711
O17   O     O_R   0.948460 0.787610 0.915680 -0.540512
O18   O     O_R   0.051540 0.287610 0.084320 -0.540670
C59   C     C_R   0.078633 0.450141 0.924465 0.688747
C60   C     C_R   0.921482 0.950178 0.075689 0.690142
O19   O     O_3   0.962230 0.453430 0.990860 -0.375278
O20   O     O_3   0.037770 0.953430 0.009140 -0.376318
V3    V     V_3+5 0.007010 0.728750 0.001700 1.452718
V4    V     V_3+5 0.992990 0.228750 0.998300 1.450686
O21   O     O_3   0.967377 0.062572 0.765614 -0.534914
C61   C     C_3   0.008161 0.911646 0.777994 -0.221640
H5    H     H_    0.986681 0.772181 0.768831 0.112745
H6    H     H_    0.032833 0.919120 0.832407 0.153233
H7    H     H_    0.042308 0.924361 0.742266 0.137652
O22   O     O_3   0.034440 0.570560 0.233831 -0.533572
C62   C     C_3   0.993804 0.418538 0.224861 -0.216152
H8    H     H_    0.015673 0.279604 0.233494 0.111459
H9    H     H_    0.967090 0.422976 0.171412 0.150053
H10   H     H_    0.961530 0.432676 0.262786 0.140289
O23   O     O_3   0.728508 0.240104 0.301142 -0.537101
C63   C     C_3   0.749635 0.260799 0.373322 -0.159840
H11   H     H_    0.799456 0.282702 0.382806 0.171543
H12   H     H_    0.737225 0.141874 0.404843 0.126564
H13   H     H_    0.728432 0.386425 0.392101 0.146960
O24   O     O_3   0.272200 0.740326 0.700133 -0.535626
C64   C     C_3   0.251052 0.760714 0.627975 -0.166413
H14   H     H_    0.201239 0.782581 0.618531 0.171285
H15   H     H_    0.263387 0.641569 0.596487 0.125813
H16   H     H_    0.272314 0.886198 0.609169 0.145550
O25   O     O_3   0.710730 0.131600 0.146524 -0.601706
H17   H     H_    0.670360 0.173273 0.155629 0.321736
O26   O     O_3   0.290031 0.632439 0.854673 -0.597371
H18   H     H_    0.330371 0.674498 0.845565 0.325793
O27   O     O_3   0.768032 0.553997 0.196712 -0.512386
C65   C     C_3   0.826455 0.483612 0.220386 -0.097891
H19   H     H_    0.834146 0.462312 0.278020 0.133480
H20   H     H_    0.862186 0.574421 0.204700 0.087674
H21   H     H_    0.830598 0.346419 0.195665 0.179725
O28   O     O_3   0.233185 0.054092 0.804466 -0.510896
C66   C     C_3   0.174708 0.983344 0.781186 -0.095449
H22   H     H_    0.166546 0.962908 0.723491 0.131777
H23   H     H_    0.139143 0.073455 0.797583 0.088077
H24   H     H_    0.170844 0.845699 0.805597 0.179892
O29   O     O_3   0.793719 0.011957 0.565271 -0.624654
H25   H     H_    0.773150 0.933537 0.526561 0.283451
O30   O     O_3   0.212848 0.573848 0.429337 -0.623690
H26   H     H_    0.247504 0.626064 0.461815 0.286520
O31   O     O_3   0.895492 0.065184 0.638908 -0.504248
C67   C     C_3   0.920222 0.909335 0.609156 -0.106358
H27   H     H_    0.929073 0.947294 0.556039 0.153132
H28   H     H_    0.888736 0.788373 0.603124 0.117732
H29   H     H_    0.964184 0.868790 0.640221 0.116836
O32   O     O_3   0.107125 0.579798 0.359680 -0.504450
C68   C     C_3   0.087389 0.422367 0.393284 -0.104487
H30   H     H_    0.072304 0.467582 0.442692 0.150800
H31   H     H_    0.124443 0.319468 0.407319 0.129420
H32   H     H_    0.048118 0.355069 0.360570 0.105202
O33   O     O_3   0.801508 0.773907 0.864130 -0.539066
C69   C     C_3   0.812975 0.836703 0.934199 -0.098077
H33   H     H_    0.822529 0.988009 0.939807 0.114891
H34   H     H_    0.850035 0.753800 0.963662 0.132715
H35   H     H_    0.772251 0.808608 0.958966 0.168932
O34   O     O_3   0.198715 0.269873 0.135926 -0.537447
C70   C     C_3   0.186303 0.326789 0.065229 -0.090597
H36   H     H_    0.177001 0.477828 0.058122 0.108206
H37   H     H_    0.148822 0.242300 0.037296 0.134045
H38   H     H_    0.226491 0.295434 0.039926 0.179699
O35   O     O_3   0.531925 0.777359 0.735874 -0.538935
C71   C     C_3   0.495016 0.933756 0.741592 -0.155930
H39   H     H_    0.499552 0.039109 0.700700 0.099616
H40   H     H_    0.505194 0.997658 0.794480 0.179232
H41   H     H_    0.446926 0.888340 0.733861 0.165087
O36   O     O_3   0.470410 0.285726 0.264748 -0.558296
C72   C     C_3   0.505867 0.446829 0.261451 -0.240979
H42   H     H_    0.500784 0.545783 0.304270 0.131911
H43   H     H_    0.494717 0.517472 0.209957 0.159427
H44   H     H_    0.554319 0.405809 0.267844 0.179897
O37   O     O_3   0.715303 0.033259 0.862843 -0.639335
H45   H     H_    0.684404 0.079057 0.890372 0.302883
O38   O     O_3   0.285086 0.524854 0.133665 -0.633895
H46   H     H_    0.313008 0.543000 0.099110 0.338372
O39   O     O_3   0.601265 0.841658 0.863569 -0.621784
H47   H     H_    0.634048 0.825271 0.904015 0.306219
O40   O     O_3   0.397720 0.352899 0.132858 -0.640314
H48   H     H_    0.436380 0.283343 0.141484 0.336607
O41   O     O_3   0.669449 0.945314 0.555239 -0.667236
H49   H     H_    0.683649 0.047787 0.527717 0.285068
O42   O     O_3   0.326800 0.395810 0.444332 -0.669055
H50   H     H_    0.298233 0.365786 0.477216 0.276931
O43   O     O_3   0.856930 0.039543 0.324394 -0.558445
C73   C     C_3   0.902586 0.903701 0.337165 -0.224450
H51   H     H_    0.910749 0.834161 0.288103 0.147065
H52   H     H_    0.891473 0.799857 0.375688 0.134500
H53   H     H_    0.945564 0.972329 0.360269 0.166200
O44   O     O_3   0.143895 0.538435 0.676807 -0.558482
C74   C     C_3   0.098356 0.402030 0.663858 -0.225899
H54   H     H_    0.090324 0.331796 0.712803 0.147269
H55   H     H_    0.109522 0.298780 0.625108 0.135535
H56   H     H_    0.055293 0.470243 0.640959 0.164998

loop_
_geom_bond_atom_site_label_1
_geom_bond_atom_site_label_2
_ccdc_geom_bond_type
C70   H38   S    
C29   O21   S    
C27   O33   S    
O4    V2    S    
O37   H45   S    
C28   O34   S    
C15   C17   A    
O43   C73   S    
C6    O32   S    
C62   H8    S    
O1    C3    A    
C71   H41   S    
O16   C60   A    
C39   C55   T    
C67   H27   S    
C2    O7    A    
C49   C51   S    
O39   H47   S    
C62   H10   S    
O29   H25   S    
C74   H55   S    
C14   C16   A    
O5    C3    A    
C8    C30   A    
C64   H15   S    
C18   C26   A    
O41   H49   S    
C8    C57   S    
C34   C48   S    
C9    O35   S    
C23   C25   A    
C71   H40   S    
C4    C31   S    
C41   C45   S    
C6    C30   A    
O10   V1    S    
C8    C28   A    
O11   C59   A    
O19   V4    S    
C73   H51   S    
C46   H4    S    
C70   H36   S    
C45   H3    S    
C48   C56   S    
C46   C48   S    
O28   C66   S    
O35   C71   S    
C9    C31   A    
C10   C32   A    
O40   H48   S    
C42   C44   S    
O32   C68   S    
C68   H32   S    
C19   C21   A    
O12   V3    S    
C72   H43   S    
O14   V4    S    
C38   C54   T    
O5    V1    S    
O2    C4    A    
O6    V2    S    
C17   C31   A    
C18   C32   A    
C5    C21   A    
C43   C53   S    
O15   V3    S    
O24   C64   S    
C35   O43   S    
C43   C49   S    
C74   H56   S    
C36   O44   S    
C33   C35   S    
C44   C50   S    
C26   O42   S    
C64   H16   S    
C10   O36   S    
C45   C47   S    
C24   O30   S    
C48   C52   S    
C15   C19   A    
C52   O24   S    
C1    C40   S    
C16   C20   A    
C71   H39   S    
C51   O23   S    
O4    C2    A    
O12   C60   A    
O42   H50   S    
O20   V3    S    
C5    O31   S    
C50   O26   S    
C25   O41   S    
C41   O27   S    
C63   H13   S    
C42   C46   S    
C20   C22   A    
C49   O25   S    
C38   C59   S    
O11   V4    S    
C35   C43   S    
O13   C57   A    
C61   H6    S    
O38   H46   S    
C40   C56   T    
C33   H1    S    
O6    C4    A    
C63   H12   S    
C23   O29   S    
C7    C29   A    
C14   O38   S    
O1    V2    S    
C37   C53   T    
C72   H44   S    
C36   C44   S    
O2    V1    S    
C6    C22   A    
O17   V3    S    
C66   H23   S    
C7    C27   A    
O13   V3    S    
C41   C43   S    
C13   O37   S    
C68   H30   S    
C10   C12   A    
C12   O40   S    
C2    C39   S    
C17   C25   A    
C24   C26   A    
O21   C61   S    
C67   H29   S    
C3    C32   S    
O3    V1    S    
C61   H7    S    
O27   C65   S    
C64   H14   S    
C66   H24   S    
C47   C55   S    
C70   H37   S    
O26   H18   S    
C30   O22   S    
C42   O28   S    
C12   C14   A    
O14   C58   A    
O3    C1    A    
C69   H35   S    
C67   H28   S    
C65   H20   S    
C66   H22   S    
C62   H9    S    
C16   C18   A    
C65   H19   S    
C69   H34   S    
C13   C15   A    
O33   C69   S    
C34   H2    S    
C45   C49   S    
O23   C63   S    
C46   C50   S    
C7    C58   S    
C9    C11   A    
O7    V1    S    
C1    O8    A    
O16   V4    S    
C74   H54   S    
O8    V2    S    
O25   H17   S    
O15   C59   A    
C58   O17   A    
C44   C54   S    
C61   H5    S    
O30   H26   S    
C73   H52   S    
C57   O18   A    
O18   V4    S    
C73   H53   S    
C33   C47   S    
C63   H11   S    
C21   C23   A    
C19   C27   A    
C22   C24   A    
C20   C28   A    
O22   C62   S    
C5    C29   A    
C65   H21   S    
C69   H33   S    
C34   C36   S    
C47   C51   S    
C11   C13   A    
O36   C72   S    
C33   C41   S    
O9    V2    S    
C34   C42   S    
C68   H31   S    
O34   C70   S    
C36   C52   S    
C72   H42   S    
C37   C60   S    
C35   C51   S    
O31   C67   S    
C50   C52   S    
C11   O39   S    
O44   C74   S    
