data_mof_unit_20550.cif
_audit_creation_date              2012-12-11T15:13:46-0500
_audit_creation_method            fapswitch 2.2
_symmetry_space_group_name_H-M    P1
_symmetry_Int_Tables_number       1
_space_group_crystal_system       triclinic
_cell_length_a                    6.956986
_cell_length_b                    13.521102
_cell_length_c                    20.072074
_cell_angle_alpha                 104.020486
_cell_angle_beta                  90.048124
_cell_angle_gamma                 90.324818
_cell_volume                      1831.81972747

loop_
_atom_site_label
_atom_site_type_symbol
_atom_type_description
_atom_site_fract_x
_atom_site_fract_y
_atom_site_fract_z
_atom_type_partial_charge
O1    O     O_R   0.506780 0.600060 0.449950 -0.537317
O2    O     O_R   0.179840 0.597110 0.589410 -0.535037
O3    O     O_R   0.004570 0.399940 0.550050 -0.542168
C1    C     C_R   0.348897 0.620102 0.616431 0.696229
O4    O     O_R   0.177380 0.612160 0.452890 -0.541789
O5    O     O_R   0.002100 0.415100 0.412560 -0.541186
C2    C     C_R   0.346751 0.639593 0.436891 0.706061
O6    O     O_R   0.509250 0.584900 0.587440 -0.543273
O7    O     O_3   0.337570 0.435330 0.486930 -0.373696
V1    V     V_3+5 0.064650 0.512000 0.502430 1.414904
O8    O     O_R   0.672090 0.402890 0.410590 -0.543731
C3    C     C_R   0.840706 0.380870 0.383189 0.672929
O9    O     O_R   0.674540 0.387840 0.547110 -0.543810
C4    C     C_R   0.843083 0.359367 0.562271 0.690855
V2    V     V_3+5 0.564040 0.488000 0.497570 1.394346
O10   O     O_3   0.840990 0.564670 0.513070 -0.366751
C5    C     C_R   0.902608 0.106139 0.605884 -0.167926
H1    H     H_    0.906459 0.157219 0.512560 0.101763
H2    H     H_    0.935139 0.981563 0.689143 0.118586
H3    H     H_    0.932294 0.027939 0.579297 0.105444
C6    C     C_R   0.850307 0.280521 0.600846 -0.041674
C7    C     C_R   0.821537 0.315334 0.930755 -0.166820
C8    C     C_R   0.792041 0.389883 0.895021 -0.109523
C9    C     C_R   0.796899 0.365183 0.823572 -0.191863
C10   C     C_R   0.834000 0.264150 0.785582 0.060139
C11   C     C_R   0.863284 0.187901 0.822612 0.075158
C12   C     C_R   0.844842 0.236639 0.712244 0.076389
C13   C     C_R   0.883745 0.133944 0.677727 0.150088
C14   C     C_R   0.906894 0.060175 0.715137 -0.220238
C15   C     C_R   0.897319 0.086540 0.786384 -0.205582
C16   C     C_R   0.823672 0.308263 0.671874 -0.258779
C17   C     C_R   0.888131 0.179345 0.567763 -0.184058
C18   C     C_R   0.856744 0.214730 0.895381 -0.075605
H4    H     H_    0.792900 0.387384 0.694075 0.110992
H5    H     H_    0.814035 0.335826 0.986342 0.098504
H6    H     H_    0.771691 0.427297 0.799852 0.114818
H7    H     H_    0.763697 0.467538 0.922915 0.119344
H8    H     H_    0.918647 0.026606 0.812910 0.121885
C19   C     C_3   0.677413 0.219900 0.229170 -0.114531
C20   C     C_3   0.775876 0.199641 0.293829 -0.145204
H9    H     H_    0.709798 0.159654 0.330368 0.092114
H10   H     H_    0.529368 0.195526 0.211578 0.106771
C21   C     C_3   0.849856 0.310416 0.312651 -0.004181
C22   C     C_3   0.751512 0.331489 0.248814 -0.137244
C23   C     C_3   0.937324 0.298639 0.206921 -0.145763
C24   C     C_3   0.035719 0.278287 0.271547 -0.118110
C25   C     C_3   0.961629 0.166688 0.251858 -0.140392
C26   C     C_3   0.863276 0.187889 0.188000 -0.004375
H11   H     H_    0.664626 0.399817 0.248010 0.101135
H12   H     H_    0.003969 0.339107 0.170724 0.098486
H13   H     H_    0.183782 0.302441 0.289239 0.109717
H14   H     H_    0.048560 0.098373 0.252710 0.107910
C27   C     C_3   0.540285 0.740873 0.725300 -0.178043
C28   C     C_3   0.432219 0.843878 0.747031 -0.118883
H15   H     H_    0.492100 0.919608 0.745539 0.118777
H16   H     H_    0.689338 0.731573 0.705108 0.131144
C29   C     C_3   0.359409 0.813660 0.812051 -0.055006
C30   C     C_3   0.469035 0.712032 0.791660 -0.218331
C31   C     C_3   0.289141 0.663690 0.752179 0.464595
C32   C     C_3   0.177874 0.764352 0.773692 -0.144507
C33   C     C_3   0.250309 0.793543 0.707788 -0.195132
C34   C     C_3   0.358029 0.691338 0.686645 -0.085777
H17   H     H_    0.557534 0.678171 0.826418 0.106726
H18   H     H_    0.028624 0.772537 0.793766 0.117021
H19   H     H_    0.161325 0.827136 0.673047 0.112494
C35   C     C_R   0.437045 0.892132 0.394492 0.103316
H20   H     H_    0.433425 0.836504 0.486716 0.100520
H21   H     H_    0.467724 0.016554 0.306363 0.129752
C36   C     C_R   0.359639 0.718272 0.398387 -0.057105
C37   C     C_R   0.315521 0.683775 0.069020 -0.168303
C38   C     C_R   0.294887 0.608643 0.104925 -0.123988
C39   C     C_R   0.310726 0.632912 0.176245 -0.162954
C40   C     C_R   0.348372 0.734365 0.213980 0.089979
C41   C     C_R   0.372989 0.810514 0.176548 0.072089
C42   C     C_R   0.363926 0.762347 0.287316 0.049295
C43   C     C_R   0.411618 0.865023 0.321791 0.116416
C44   C     C_R   0.434470 0.937741 0.282855 -0.222568
C45   C     C_R   0.414137 0.911316 0.212041 -0.208683
C46   C     C_R   0.334812 0.691059 0.327479 -0.224271
C47   C     C_R   0.411991 0.817480 0.431541 -0.207576
C48   C     C_R   0.354968 0.784291 0.104025 -0.077452
H22   H     H_    0.295187 0.612872 0.305422 0.098540
H23   H     H_    0.300386 0.663544 0.013612 0.105240
H24   H     H_    0.294117 0.569906 0.199828 0.102076
H25   H     H_    0.265548 0.530766 0.077273 0.117803
H26   H     H_    0.433067 0.971169 0.185198 0.119775
O11   O     O_R   0.203580 0.914920 0.912610 -0.542544
O12   O     O_R   0.535710 0.887810 0.047120 -0.541061
O13   O     O_R   0.710730 0.084950 0.087430 -0.542592
C49   C     C_R   0.366646 0.861417 0.064012 0.689079
O14   O     O_R   0.533010 0.902850 0.910600 -0.541948
O15   O     O_R   0.708010 0.100090 0.949930 -0.537640
C50   C     C_R   0.364842 0.882399 0.882828 0.700968
O16   O     O_R   0.206300 0.899780 0.050100 -0.537343
O17   O     O_3   0.375170 0.064580 0.013100 -0.371702
V3    V     V_3+5 0.648200 0.988020 0.997570 1.417724
O18   O     O_R   0.038030 0.112330 0.952840 -0.541836
C51   C     C_R   0.869068 0.137788 0.935406 0.686572
O19   O     O_R   0.040730 0.097300 0.089360 -0.542967
C52   C     C_R   0.872234 0.118378 0.117096 0.677978
V4    V     V_3+5 0.148780 0.012220 0.002360 1.415096
O20   O     O_3   0.871930 0.935430 0.986900 -0.369139
O21   O     O_3   0.204581 0.570445 0.755604 -0.582449
C53   C     C_3   0.343504 0.492384 0.743794 0.029343
H27   H     H_    0.419543 0.492850 0.792627 0.129250
H28   H     H_    0.451054 0.499334 0.704021 0.109825
C54   C     C_3   0.236090 0.392277 0.719032 -0.282097
H29   H     H_    0.135663 0.383761 0.759971 0.215040
H30   H     H_    0.155582 0.396426 0.672236 0.217095
C55   C     C_3   0.364978 0.299559 0.701346 -0.816415
H31   H     H_    0.451854 0.301864 0.655573 0.242289
H32   H     H_    0.275418 0.229302 0.688504 0.240501
H33   H     H_    0.457211 0.296723 0.745800 0.242899
C56   C     C_3   0.496285 0.998303 0.434336 -0.371441
C57   C     C_3   0.323461 0.070359 0.447876 -0.347283
C58   C     C_3   0.384323 0.177410 0.486767 -0.692965
H34   H     H_    0.447834 0.175607 0.537235 0.227644
H35   H     H_    0.491374 0.209261 0.456452 0.219422
H36   H     H_    0.257029 0.227975 0.495754 0.222301
H37   H     H_    0.254345 0.074861 0.398808 0.191406
H38   H     H_    0.215225 0.040626 0.478936 0.199265
H39   H     H_    0.559673 0.995127 0.484703 0.177131
H40   H     H_    0.612464 0.028935 0.406981 0.159671

loop_
_geom_bond_atom_site_label_1
_geom_bond_atom_site_label_2
_ccdc_geom_bond_type
C22   H11   S    
C20   C25   S    
O12   V3    S    
V4    O20   S    
C57   H38   S    
C27   C30   S    
V3    O20   S    
C40   C42   A    
C40   C41   A    
O17   V3    S    
C1    O6    A    
C53   H28   S    
C56   C57   S    
O15   C51   A    
C44   C45   A    
C7    H5    S    
C6    C16   A    
C9    H6    S    
C4    C6    S    
C13   C14   A    
C3    C21   S    
O5    C3    A    
C27   H16   S    
V2    O10   S    
O18   C51   A    
O15   V3    S    
C5    H3    S    
C58   H34   S    
C15   H8    S    
C18   C51   S    
C24   C25   S    
C37   C48   A    
C55   H31   S    
O14   V3    S    
O11   V4    S    
O8    V2    S    
C20   C21   S    
C25   C26   S    
O16   V4    S    
C8    C9    A    
C37   C38   A    
O1    V2    S    
O7    V1    S    
C45   H26   S    
C31   C32   S    
C29   C50   S    
O9    C4    A    
C54   H30   S    
C53   H27   S    
C49   O16   A    
C19   H10   S    
C26   C52   S    
C6    C17   A    
O13   C52   A    
C12   C16   A    
C9    C10   A    
C19   C20   S    
O4    C2    A    
C29   C32   S    
C10   C11   A    
C23   C24   S    
C24   H13   S    
C32   C33   S    
O2    C1    A    
C42   C43   A    
C2    C36   S    
C14   C15   A    
C8    H7    S    
O14   C50   A    
C27   C34   S    
C11   C18   A    
O19   C52   A    
C54   H29   S    
C35   C43   A    
C16   H4    S    
C43   C44   A    
C37   H23   S    
C55   H33   S    
C39   H24   S    
O3    C4    A    
C48   C49   S    
C20   H9    S    
O19   V4    S    
O12   C49   A    
C11   C15   A    
O6    V2    S    
O9    V2    S    
C21   C22   S    
C54   C55   S    
C36   C46   A    
H1    C17   S    
C56   H40   S    
C19   C22   S    
O2    V1    S    
C12   C13   A    
C22   C23   S    
C23   C26   S    
H21   C44   S    
C7    C18   A    
C28   H15   S    
C31   C34   S    
C35   C56   S    
O1    C2    A    
C5    C13   A    
H20   C47   S    
C30   H17   S    
C39   C40   A    
O5    V1    S    
C46   H22   S    
O8    C3    A    
C27   C28   S    
C25   H14   S    
C28   C33   S    
C10   C12   A    
C35   C47   A    
C58   H36   S    
C32   H18   S    
C1    C34   S    
C31   O21   S    
O13   V3    S    
C30   C31   S    
O4    V1    S    
O3    V1    S    
V1    O10   S    
C29   C30   S    
C23   H12   S    
C38   H25   S    
O11   C50   A    
C58   H35   S    
O7    V2    S    
C33   C34   S    
C21   C24   S    
C55   H32   S    
C56   H39   S    
C33   H19   S    
C38   C39   A    
C57   H37   S    
C41   C45   A    
O21   C53   S    
C5    C17   A    
C7    C8    A    
C36   C47   A    
C41   C48   A    
C57   C58   S    
C42   C46   A    
C53   C54   S    
O18   V4    S    
O17   V4    S    
C19   C26   S    
C28   C29   S    
H2    C14   S    
