data_mof_unit_10959.cif
_audit_creation_date              2012-12-10T16:53:10-0500
_audit_creation_method            fapswitch 2.2
_symmetry_space_group_name_H-M    P1
_symmetry_Int_Tables_number       1
_space_group_crystal_system       triclinic
_cell_length_a                    10.823553
_cell_length_b                    10.935215
_cell_length_c                    9.694309
_cell_angle_alpha                 91.027016
_cell_angle_beta                  89.729792
_cell_angle_gamma                 90.469298
_cell_volume                      1147.16306654

loop_
_atom_site_label
_atom_site_type_symbol
_atom_type_description
_atom_site_fract_x
_atom_site_fract_y
_atom_site_fract_z
_atom_type_partial_charge
C1    C     C_R   0.494927 0.265544 0.498515 0.773022
C2    C     C_R   0.062887 0.404750 0.588513 0.057582
C3    C     C_R   0.128615 0.485898 0.501601 -0.149539
C4    C     C_R   0.066031 0.562008 0.412153 -0.274024
C5    C     C_R   0.938095 0.565813 0.412684 0.490230
C6    C     C_R   0.871122 0.486968 0.498604 -0.192883
C7    C     C_2   0.527485 0.932853 0.395016 -0.295865
C8    C     C_2   0.533325 0.865182 0.508784 0.350395
C9    C     C_2   0.538203 0.066070 0.403848 -0.145569
C10   C     C_2   0.471634 0.134927 0.493100 0.110142
C11   C     C_2   0.426554 0.431798 0.921376 -0.168107
C12   C     C_R   0.262562 0.494125 0.500480 0.818320
C13   C     C_2   0.437771 0.420233 0.076742 0.568646
C14   C     C_R   0.508804 0.734237 0.501510 0.745295
C15   C     C_R   0.737360 0.495889 0.499559 0.817794
C16   C     C_R   0.123545 0.322258 0.675507 -0.223454
C17   C     C_R   0.057568 0.241631 0.759671 0.222378
C18   C     C_R   0.927880 0.238591 0.753438 0.233624
C19   C     C_R   0.867057 0.316601 0.663742 -0.198114
C20   C     C_R   0.932548 0.403415 0.584544 -0.017206
Cu1   Cu    Cu3+1 0.500020 0.500020 0.638630 0.944974
Cu2   Cu    Cu3+1 0.499980 0.499980 0.361370 0.994572
H1    H     H_    0.116931 0.622015 0.344079 0.166850
H2    H     H_    0.356190 0.377324 0.869502 0.170987
H3    H     H_    0.571313 0.542796 0.894620 0.192773
H4    H     H_    0.539004 0.572552 0.106376 0.153526
H5    H     H_    0.222802 0.317810 0.678041 0.156812
H6    H     H_    0.768008 0.306889 0.655686 0.166009
H7    H     H_    0.518420 0.890447 0.293375 0.143663
H8    H     H_    0.605462 0.108794 0.336042 0.115308
N1    N     N_2   0.498640 0.498660 0.846910 -0.301120
N2    N     N_2   0.498610 0.498630 0.153040 -0.309778
O1    O     O_R   0.500020 0.321960 0.617040 -0.589424
O2    O     O_R   0.499980 0.321920 0.382900 -0.551943
O3    O     O_R   0.319670 0.500020 0.617100 -0.581232
O4    O     O_R   0.319630 0.499980 0.382950 -0.536411
O5    O     O_R   0.500020 0.678080 0.617100 -0.541378
O6    O     O_R   0.499980 0.678040 0.382960 -0.604318
O7    O     O_R   0.680370 0.500020 0.617050 -0.598261
O8    O     O_R   0.680330 0.499980 0.382900 -0.533613
C21   C     C_3   0.361848 0.088316 0.574497 -0.755664
H9    H     H_    0.280200 0.144509 0.550836 0.189411
H10   H     H_    0.334871 0.992951 0.547760 0.239410
H11   H     H_    0.381743 0.095746 0.686504 0.243218
O9    O     O_3   0.371131 0.328950 0.141311 -0.537919
C22   C     C_3   0.419152 0.214300 0.100227 -0.302179
H12   H     H_    0.520047 0.208867 0.121037 0.157007
H13   H     H_    0.401176 0.193558 0.989631 0.137389
H14   H     H_    0.372461 0.142328 0.161121 0.193596
C23   C     C_3   0.126687 0.158035 0.853547 -0.869845
H15   H     H_    0.227816 0.172761 0.846229 0.214947
H16   H     H_    0.098640 0.175493 0.962360 0.251660
H17   H     H_    0.106915 0.061144 0.824882 0.235545
C24   C     C_3   0.853386 0.152631 0.841394 -0.903142
H18   H     H_    0.880716 0.056854 0.818292 0.226426
H19   H     H_    0.870117 0.173770 0.952184 0.243676
H20   H     H_    0.752642 0.160747 0.822570 0.233729
O10   O     O_3   0.877459 0.643924 0.325288 -0.558585
C25   C     C_3   0.887348 0.764472 0.378557 -0.340104
H21   H     H_    0.859079 0.770425 0.488996 0.131457
H22   H     H_    0.824238 0.823606 0.320005 0.191119
H23   H     H_    0.982772 0.800953 0.365470 0.164234
O11   O     O_3   0.554527 0.919588 0.637025 -0.555139
C26   C     C_3   0.678825 0.901578 0.673291 -0.317975
H24   H     H_    0.741814 0.952997 0.603749 0.159016
H25   H     H_    0.703468 0.802990 0.673478 0.156725
H26   H     H_    0.692346 0.937197 0.779893 0.191323

loop_
_geom_bond_atom_site_label_1
_geom_bond_atom_site_label_2
_ccdc_geom_bond_type
C17   C23   S    
H3    N1    S    
C23   H16   S    
H4    N2    S    
Cu1   O3    S    
C12   O4    A    
C2    C16   A    
C21   H9    S    
C21   H10   S    
C13   N2    D    
C19   C20   A    
Cu1   O7    S    
Cu2   O8    S    
C26   H24   S    
C16   H5    S    
C2    C3    A    
C6    C15   S    
C11   N1    D    
C7    C8    D    
Cu1   Cu2   S    
C10   C21   S    
C13   O9    S    
C19   H6    S    
Cu1   N1    S    
C22   H14   S    
C15   O7    A    
Cu2   N2    S    
C9    H8    S    
C11   C13   S    
C7    H7    S    
C5    O10   S    
C1    O2    A    
C17   C18   A    
C22   H13   S    
C5    C6    A    
Cu2   O2    S    
C21   H11   S    
C24   H19   S    
C15   O8    A    
C25   H22   S    
C23   H17   S    
Cu1   O1    S    
C18   C24   S    
C8    O11   S    
C1    O1    A    
C14   O6    A    
Cu2   O6    S    
C26   H26   S    
O9    C22   S    
C11   H2    S    
C25   H21   S    
C6    C20   A    
C3    C4    A    
Cu1   O5    S    
C14   O5    A    
C18   C19   A    
C9    C10   D    
C7    C9    S    
C4    H1    S    
C24   H18   S    
C16   C17   A    
C25   H23   S    
C8    C14   S    
C3    C12   S    
C23   H15   S    
O10   C25   S    
C22   H12   S    
C2    C20   A    
Cu2   O4    S    
C1    C10   S    
O11   C26   S    
C4    C5    A    
C12   O3    A    
C24   H20   S    
C26   H25   S    
