data_mof_unit_28103.cif
_audit_creation_date              2012-12-11T17:02:13-0500
_audit_creation_method            fapswitch 2.2
_symmetry_space_group_name_H-M    P1
_symmetry_Int_Tables_number       1
_space_group_crystal_system       triclinic
_cell_length_a                    21.654088
_cell_length_b                    7.067568
_cell_length_c                    14.826718
_cell_angle_alpha                 90.000437
_cell_angle_beta                  105.951939
_cell_angle_gamma                 90.000241
_cell_volume                      2181.72924139

loop_
_atom_site_label
_atom_site_type_symbol
_atom_type_description
_atom_site_fract_x
_atom_site_fract_y
_atom_site_fract_z
_atom_type_partial_charge
O1    O     O_R   0.585850 0.505770 0.002130 -0.538381
O2    O     O_R   0.414150 0.005770 0.997870 -0.538381
O3    O     O_R   0.467530 0.173560 0.861970 -0.535877
O4    O     O_R   0.532470 0.673560 0.138030 -0.535876
C1    C     C_R   0.455856 0.344455 0.825255 0.681745
C2    C     C_R   0.544143 0.844457 0.174745 0.681745
O5    O     O_R   0.588690 0.175900 0.993250 -0.543692
O6    O     O_R   0.411310 0.675900 0.006750 -0.543693
O7    O     O_R   0.536170 0.007950 0.130090 -0.538405
O8    O     O_R   0.463830 0.507950 0.869910 -0.538403
C3    C     C_R   0.615077 0.344702 0.997758 0.689435
C4    C     C_R   0.384923 0.844701 0.002242 0.689433
O9    O     O_3   0.482630 0.339970 0.044740 -0.372793
O10   O     O_3   0.517370 0.839970 0.955260 -0.372791
V1    V     V_3+5 0.503220 0.064200 0.991700 1.417109
V2    V     V_3+5 0.496780 0.564200 0.008300 1.417106
C5    C     C_R   0.277551 0.008985 0.959756 0.110993
C6    C     C_R   0.722449 0.508985 0.040246 0.110983
C7    C     C_R   0.315708 0.852952 0.998286 -0.113217
C8    C     C_R   0.684292 0.352953 0.001714 -0.113212
C9    C     C_R   0.284909 0.700442 0.029205 -0.181518
C10   C     C_R   0.715090 0.200441 0.970794 -0.181509
H1    H     H_    0.312056 0.576329 0.058931 0.144301
H2    H     H_    0.687943 0.076327 0.941068 0.144299
C11   C     C_R   0.219680 0.711733 0.027984 -0.176303
C12   C     C_R   0.780319 0.211732 0.972016 -0.176300
H3    H     H_    0.198667 0.595164 0.056446 0.132059
H4    H     H_    0.801332 0.095162 0.943553 0.132052
C13   C     C_R   0.183234 0.876278 0.996143 -0.110572
C14   C     C_R   0.816766 0.376277 0.003857 -0.110564
C15   C     C_R   0.213128 0.020575 0.958887 0.103870
C16   C     C_R   0.786872 0.520575 0.041114 0.103859
C17   C     C_3   0.218297 0.226471 0.981314 -0.417447
C18   C     C_3   0.781705 0.726471 0.018691 -0.417444
C19   C     C_3   0.288450 0.213969 0.981857 -0.403984
C20   C     C_3   0.711552 0.713969 0.018148 -0.403985
H5    H     H_    0.211548 0.257181 0.051548 0.166189
H6    H     H_    0.788455 0.757181 0.948457 0.166195
H7    H     H_    0.188891 0.313924 0.922841 0.175788
H8    H     H_    0.811112 0.813923 0.077165 0.175787
H9    H     H_    0.322347 0.237994 0.052296 0.172334
H10   H     H_    0.677655 0.737995 0.947709 0.172338
H11   H     H_    0.299476 0.293734 0.923524 0.166238
H12   H     H_    0.700527 0.793734 0.076482 0.166237
C21   C     C_R   0.926518 0.884729 0.723703 -0.031565
C22   C     C_R   0.073481 0.384761 0.276299 -0.031570
C23   C     C_R   0.571839 0.852228 0.276253 -0.024929
C24   C     C_R   0.428159 0.352224 0.723747 -0.024923
C25   C     C_R   0.937874 0.885320 0.566517 -0.169221
C26   C     C_R   0.062127 0.385796 0.433486 -0.169226
C27   C     C_R   0.965510 0.890300 0.662986 -0.177125
C28   C     C_R   0.034491 0.390646 0.337016 -0.177114
C29   C     C_R   0.859698 0.875833 0.688167 -0.213569
C30   C     C_R   0.140298 0.375710 0.311837 -0.213586
C31   C     C_R   0.830076 0.874173 0.590236 0.113540
C32   C     C_R   0.169921 0.374261 0.409768 0.113543
C33   C     C_R   0.870835 0.877208 0.529789 0.140882
C34   C     C_R   0.129164 0.377556 0.470215 0.140885
C35   C     C_R   0.761801 0.869263 0.550454 -0.006961
C36   C     C_R   0.238195 0.369326 0.449550 -0.006956
C37   C     C_R   0.735709 0.864569 0.450780 0.056494
C38   C     C_R   0.264288 0.364727 0.549224 0.056499
C39   C     C_R   0.778728 0.864929 0.394155 -0.165390
C40   C     C_R   0.221271 0.365332 0.605851 -0.165394
C41   C     C_R   0.844659 0.872006 0.433045 -0.208348
C42   C     C_R   0.155342 0.372512 0.566960 -0.208351
C43   C     C_R   0.718899 0.870516 0.607053 -0.275625
C44   C     C_R   0.281096 0.370532 0.392950 -0.275645
C45   C     C_R   0.652521 0.860427 0.568700 0.434643
C46   C     C_R   0.347474 0.360443 0.431302 0.434653
C47   C     C_R   0.626372 0.858120 0.471085 0.034060
C48   C     C_R   0.373624 0.358145 0.528916 0.034074
C49   C     C_R   0.667517 0.860382 0.410953 0.022214
C50   C     C_R   0.332479 0.360446 0.589050 0.022207
C51   C     C_R   0.559187 0.852659 0.432699 -0.122375
C52   C     C_R   0.440809 0.352663 0.567299 -0.122371
C53   C     C_R   0.532262 0.848510 0.336050 -0.187700
C54   C     C_R   0.467736 0.348513 0.663948 -0.187712
C55   C     C_R   0.638485 0.858707 0.312856 -0.177034
C56   C     C_R   0.361512 0.358711 0.687146 -0.177031
H13   H     H_    0.875574 0.873129 0.386587 0.121447
H14   H     H_    0.124427 0.373851 0.613420 0.121452
H15   H     H_    0.665838 0.861308 0.262252 0.086689
H16   H     H_    0.334159 0.361237 0.737751 0.086682
H17   H     H_    0.480539 0.842312 0.307835 0.108554
H18   H     H_    0.519460 0.342309 0.692161 0.108553
H19   H     H_    0.968986 0.888463 0.520398 0.119557
H20   H     H_    0.031017 0.389167 0.479604 0.119557
H21   H     H_    0.017275 0.897872 0.690344 0.105799
H22   H     H_    0.982728 0.398361 0.309656 0.105800
H23   H     H_    0.832711 0.870866 0.739239 0.089536
H24   H     H_    0.167284 0.370465 0.260767 0.089547
H25   H     H_    0.763372 0.860017 0.318790 0.118311
H26   H     H_    0.236628 0.360606 0.681217 0.118313
H27   H     H_    0.734959 0.880663 0.682269 0.139107
H28   H     H_    0.265034 0.380704 0.317734 0.139107
H29   H     H_    0.527082 0.850300 0.477291 0.161586
H30   H     H_    0.472915 0.350293 0.522707 0.161584
O11   O     O_R   0.036080 0.231270 0.130120 -0.538176
O12   O     O_R   0.963920 0.731270 0.869880 -0.538172
O13   O     O_R   0.911300 0.558970 0.006750 -0.540793
O14   O     O_R   0.088700 0.058970 0.993250 -0.540793
C57   C     C_R   0.884757 0.389917 0.001472 0.690283
C58   C     C_R   0.115243 0.889917 0.998528 0.690281
O15   O     O_R   0.032450 0.561140 0.138040 -0.539603
O16   O     O_R   0.967550 0.061140 0.861960 -0.539604
O17   O     O_R   0.085870 0.728910 0.002130 -0.541054
O18   O     O_R   0.914130 0.228910 0.997870 -0.541054
C59   C     C_R   0.044949 0.392577 0.175005 0.691447
C60   C     C_R   0.955051 0.892573 0.824995 0.691447
O19   O     O_3   0.017320 0.394650 0.955270 -0.372827
O20   O     O_3   0.982680 0.894650 0.044730 -0.372828
V3    V     V_3+5 0.996780 0.670490 0.008300 1.410699
V4    V     V_3+5 0.003220 0.170490 0.991700 1.410698
O21   O     O_3   0.612767 0.867920 0.627527 -0.555856
C61   C     C_3   0.610758 0.687068 0.666833 -0.271129
H31   H     H_    0.593432 0.578006 0.611403 0.140241
H32   H     H_    0.576333 0.691083 0.710101 0.168572
H33   H     H_    0.658413 0.646236 0.713788 0.137747
O22   O     O_3   0.387227 0.367941 0.372476 -0.555860
C62   C     C_3   0.389230 0.187098 0.333157 -0.271120
H34   H     H_    0.406570 0.078024 0.388581 0.140243
H35   H     H_    0.423642 0.191125 0.289867 0.168563
H36   H     H_    0.341566 0.146276 0.286220 0.137748

loop_
_geom_bond_atom_site_label_1
_geom_bond_atom_site_label_2
_ccdc_geom_bond_type
C14   C16   A    
C39   C41   A    
O12   C60   A    
C31   C35   A    
O13   V3    S    
C25   H19   S    
C28   H22   S    
O1    C3    A    
C23   C55   A    
C56   H16   S    
O2    C4    A    
O11   V4    S    
O20   V4    S    
O5    C3    A    
C17   H7    S    
O16   V4    S    
C18   H8    S    
O15   V3    S    
C7    C9    A    
C52   C54   A    
C17   C19   S    
C21   C27   A    
O18   V4    S    
O21   C61   S    
O11   C59   A    
C22   C28   A    
C51   H29   S    
C25   C33   A    
C61   H31   S    
C36   C38   A    
C24   C54   A    
C45   C47   A    
O17   V3    S    
C62   H36   S    
C38   C40   A    
C35   C43   A    
C20   H10   S    
C34   C42   A    
C46   O22   S    
C25   C27   A    
C14   C57   S    
C29   H23   S    
C26   C28   A    
C15   C17   S    
C57   O18   A    
C19   H11   S    
C18   C20   S    
C48   C52   A    
C54   H18   S    
O5    V1    S    
C53   H17   S    
O13   C57   A    
C50   C56   A    
C43   H27   S    
C2    O7    A    
O20   V3    S    
C22   C59   S    
C29   C31   A    
C11   C13   A    
C1    C24   S    
C30   C32   A    
C3    C8    S    
C35   C37   A    
C2    C23   S    
C26   C34   A    
C48   C50   A    
C47   C49   A    
C21   C60   S    
C37   C49   A    
C17   H5    S    
C32   C36   A    
C13   C58   S    
C43   C45   A    
C40   C42   A    
O4    V2    S    
C30   H24   S    
O14   V4    S    
C42   H14   S    
C41   H13   S    
O6    C4    A    
C22   C30   A    
C37   C39   A    
C49   C55   A    
O19   V3    S    
O1    V2    S    
C44   H28   S    
O14   C58   A    
O2    V1    S    
C51   C53   A    
C62   H34   S    
C61   H32   S    
O4    C2    A    
C8    C10   A    
C12   C14   A    
C31   C33   A    
C5    C15   A    
C10   H2    S    
C20   H12   S    
C6    C16   A    
C23   C53   A    
O3    V1    S    
O22   C62   S    
O16   C60   A    
C9    C11   A    
C45   O21   S    
C18   H6    S    
O12   V3    S    
C33   C41   A    
O3    C1    A    
C26   H20   S    
C11   H3    S    
C39   H25   S    
C12   H4    S    
C61   H33   S    
C24   C56   A    
C9    H1    S    
O7    V1    S    
C40   H26   S    
C1    O8    A    
C13   C15   A    
O8    V2    S    
C27   H21   S    
C47   C51   A    
C6    C20   S    
O15   C59   A    
C4    C7    S    
C5    C7    A    
C32   C34   A    
O19   V4    S    
C6    C8    A    
C19   H9    S    
C62   H35   S    
C21   C29   A    
C55   H15   S    
C36   C44   A    
O6    V2    S    
C10   C12   A    
O9    V2    S    
C44   C46   A    
O10   V1    S    
C38   C50   A    
C46   C48   A    
C5    C19   S    
C52   H30   S    
C58   O17   A    
C16   C18   S    
