data_mof_unit_39020.cif
_audit_creation_date              2012-12-11T17:14:16-0500
_audit_creation_method            fapswitch 2.2
_symmetry_space_group_name_H-M    P1
_symmetry_Int_Tables_number       1
_space_group_crystal_system       triclinic
_cell_length_a                    8.356787
_cell_length_b                    16.564063
_cell_length_c                    17.397073
_cell_angle_alpha                 99.839594
_cell_angle_beta                  96.979715
_cell_angle_gamma                 93.740622
_cell_volume                      2346.01159478

loop_
_atom_site_label
_atom_site_type_symbol
_atom_type_description
_atom_site_fract_x
_atom_site_fract_y
_atom_site_fract_z
_atom_type_partial_charge
Ba1   Ba    Ba6+2 0.836100 0.536190 0.461710 1.739839
Ba2   Ba    Ba6+2 0.353720 0.463880 0.538300 1.759245
C1    C     C_3   0.650394 0.801439 0.206782 -0.280047
C2    C     C_3   0.330863 0.570489 0.229184 -0.079045
C3    C     C_2   0.276580 0.546351 0.142015 -0.085470
C4    C     C_3   0.101301 0.720005 0.256420 0.355152
C5    C     C_2   0.140552 0.495822 0.114124 0.046750
C6    C     C_2   0.054011 0.458397 0.172698 -0.080145
C7    C     C_1   0.114054 0.471059 0.248923 0.024744
C8    C     C_R   0.896973 0.467617 0.860636 -0.133254
C9    C     C_R   0.828671 0.462440 0.782334 0.046507
C10   C     C_R   0.074446 0.528916 0.751857 0.028840
C11   C     C_R   0.146171 0.531499 0.830225 -0.115209
C12   C     C_3   0.566957 0.728624 0.233271 0.281175
C13   C     C_R   0.057942 0.501360 0.885906 0.014896
C14   C     C_2   0.069199 0.479901 0.028308 -0.066949
C15   C     C_2   0.135218 0.510442 0.970025 -0.068556
C16   C     C_3   0.077791 0.745644 0.175744 -0.181319
C17   C     C_R   0.915782 0.494932 0.729528 -0.245356
C18   C     C_R   0.377555 0.732010 0.473225 -0.267886
C19   C     C_R   0.529208 0.761710 0.515251 -0.032909
C20   C     C_R   0.576317 0.847624 0.529751 -0.094061
C21   C     C_R   0.474883 0.901659 0.494843 0.219861
C22   C     C_R   0.320948 0.869586 0.455591 -0.148453
C23   C     C_3   0.352825 0.244144 0.296901 0.175923
C24   C     C_R   0.270513 0.785886 0.447091 -0.022906
C25   C     C_R   0.611753 0.147226 0.484709 -0.040208
C26   C     C_R   0.670265 0.227553 0.481146 -0.066115
C27   C     C_R   0.712653 0.095172 0.521013 0.300626
C28   C     C_3   0.327186 0.727767 0.700625 0.183565
C29   C     C_R   0.831922 0.253846 0.511439 -0.332116
C30   C     C_R   0.928669 0.206975 0.554397 -0.051794
C31   C     C_R   0.869582 0.126704 0.557851 -0.144903
C32   C     C_3   0.300077 0.806064 0.667170 -0.412617
C33   C     C_3   0.840083 0.281031 0.282715 0.326116
C34   C     C_3   0.310679 0.155991 0.309726 -0.353185
C35   C     C_3   0.832595 0.187031 0.270733 -0.329809
C36   C     C_3   0.821440 0.702664 0.705001 0.313625
C37   C     C_3   0.917470 0.786923 0.729704 -0.279234
C38   C     C_2   0.841263 0.149849 0.186142 0.921302
C39   C     C_2   0.792660 0.668268 0.777616 0.819302
C40   C     C_2   0.337448 0.249120 0.210187 0.930492
C41   C     C_2   0.596673 0.184381 0.708840 0.878490
C42   C     C_2   0.715628 0.882075 0.589897 0.897315
C43   C     C_2   0.912024 0.325973 0.490908 0.858630
C44   C     C_2   0.146724 0.832568 0.179596 0.904591
C45   C     C_3   0.173338 0.300281 0.751652 0.336139
C46   C     C_2   0.409638 0.751699 0.785179 0.967067
C47   C     C_3   0.217417 0.281311 0.833812 -0.308313
C48   C     C_3   0.686976 0.263775 0.752569 0.361495
C49   C     C_3   0.786714 0.249612 0.828152 -0.352513
C50   C     C_2   0.250692 0.516815 0.277794 -0.220253
H1    H     H_    0.238461 0.849789 0.706929 0.121938
H2    H     H_    0.842074 0.832702 0.758476 0.191607
H3    H     H_    0.445682 0.715337 0.197519 0.005689
H4    H     H_    0.289140 0.156483 0.371341 0.109736
H5    H     H_    0.410057 0.116761 0.296050 0.108066
H6    H     H_    0.137932 0.703055 0.134070 0.020972
H7    H     H_    0.253992 0.354244 0.745900 0.092133
H8    H     H_    0.045992 0.316077 0.745233 -0.082231
H9    H     H_    0.194202 0.333919 0.878677 0.074903
H10   H     H_    0.144620 0.225377 0.840971 0.132664
H11   H     H_    0.347104 0.270298 0.843834 0.161972
H12   H     H_    0.417182 0.837243 0.660514 0.140954
H13   H     H_    0.770596 0.284234 0.713102 -0.160299
H14   H     H_    0.865117 0.198926 0.814598 0.122708
H15   H     H_    0.705821 0.233367 0.870427 0.161902
H16   H     H_    0.055620 0.654177 0.248511 0.029764
H17   H     H_    0.865584 0.305519 0.856532 0.073722
H18   H     H_    0.942323 0.419327 0.151993 0.077713
H19   H     H_    0.822404 0.445976 0.900687 0.068563
H20   H     H_    0.955154 0.442275 0.014151 0.080716
H21   H     H_    0.342687 0.577370 0.104244 0.063808
H22   H     H_    0.268912 0.559021 0.848407 0.123305
H23   H     H_    0.224424 0.790860 0.608760 0.111757
H24   H     H_    0.297902 0.524813 0.339770 0.058699
H25   H     H_    0.855516 0.499611 0.672418 0.058349
H26   H     H_    0.489955 0.124935 0.458271 0.088376
H27   H     H_    0.232751 0.727856 0.279111 -0.160686
H28   H     H_    0.946365 0.088154 0.587579 0.104988
H29   H     H_    0.338408 0.667168 0.465088 0.067858
H30   H     H_    0.947063 0.739784 0.152691 0.076939
H31   H     H_    0.401322 0.691065 0.662644 0.078598
H32   H     H_    0.553971 0.746625 0.296766 0.012533
H33   H     H_    0.618857 0.088144 0.170137 0.292207
H34   H     H_    0.772701 0.300779 0.230805 0.041020
H35   H     H_    0.932835 0.167629 0.309624 0.087717
H36   H     H_    0.876392 0.655565 0.888327 0.324268
H37   H     H_    0.955790 0.807236 0.677012 0.109209
H38   H     H_    0.574458 0.854101 0.213386 0.117771
H39   H     H_    0.268588 0.285516 0.323457 0.078835
H40   H     H_    0.393648 0.371721 0.232682 0.253196
H41   H     H_    0.197202 0.128255 0.271895 0.127901
H42   H     H_    0.668197 0.784895 0.143991 0.141235
H43   H     H_    0.537972 0.063167 0.703429 0.345481
H44   H     H_    0.252174 0.545318 0.983400 0.091749
H45   H     H_    0.784915 0.302712 0.335659 0.067802
H46   H     H_    0.239322 0.910323 0.432138 0.112041
H47   H     H_    0.952715 0.922095 0.613133 0.295359
H48   H     H_    0.827034 0.400282 0.575327 0.245926
H49   H     H_    0.139686 0.953062 0.223100 0.317656
H50   H     H_    0.227635 0.702383 0.835374 0.297316
H51   H     H_    0.717995 0.163463 0.288648 0.017481
H52   H     H_    0.886586 0.658194 0.668508 0.003441
H53   H     H_    0.768684 0.820994 0.243482 0.173687
H54   H     H_    0.026801 0.785563 0.772234 0.127111
N1    N     N_2   0.518205 0.987957 0.498879 -0.225863
N2    N     N_2   0.665450 0.010337 0.518727 -0.206592
O1    O     O_2   0.836060 0.445790 0.307930 -0.470522
O2    O     O_2   0.260577 0.213937 0.551418 -0.407644
O3    O     O_3   0.193887 0.231447 0.695270 -0.572980
O4    O     O_3   0.108600 0.451610 0.405920 -0.418635
O5    O     O_3   0.568670 0.599440 0.540100 -0.465127
O6    O     O_2   0.371480 0.300500 0.461810 -0.416054
O7    O     O_3   0.512755 0.272743 0.328998 -0.705373
O8    O     O_2   0.497682 0.471144 0.781146 -0.449070
O9    O     O_3   0.572636 0.320239 0.772430 -0.624044
O10   O     O_3   0.604850 0.595390 0.356120 -0.471466
O11   O     O_2   0.626694 0.499807 0.219062 -0.454084
O12   O     O_3   0.671195 0.714174 0.665249 -0.654103
O13   O     O_3   0.001106 0.314512 0.296535 -0.637156
O14   O     O_3   0.657337 0.659787 0.220903 -0.576457
O15   O     O_2   0.818230 0.699530 0.538240 -0.455659
O16   O     O_3   0.027730 0.639010 0.395710 -0.487380
O17   O     O_2   0.934733 0.785590 0.448457 -0.410735
O18   O     O_2   0.961477 0.165857 0.156319 -0.520339
O19   O     O_R   0.713881 0.097286 0.140679 -0.668738
O20   O     O_2   0.665393 0.628011 0.778648 -0.583550
O21   O     O_R   0.911328 0.681339 0.843528 -0.783656
O22   O     O_2   0.307697 0.187146 0.159694 -0.517040
O23   O     O_3   0.012890 0.767452 0.308118 -0.571196
O24   O     O_R   0.362350 0.324884 0.186531 -0.721398
O25   O     O_2   0.515862 0.183893 0.645571 -0.579837
O26   O     O_R   0.604119 0.111633 0.739427 -0.737816
O27   O     O_2   0.692111 0.908964 0.657078 -0.614662
O28   O     O_R   0.870408 0.891272 0.568393 -0.720213
O29   O     O_2   0.014493 0.315903 0.447112 -0.557645
O30   O     O_R   0.900761 0.403310 0.534014 -0.656166
O31   O     O_2   0.256732 0.846285 0.141997 -0.591063
O32   O     O_R   0.083354 0.897551 0.225257 -0.732456
O33   O     O_2   0.539964 0.792680 0.798445 -0.546999
O34   O     O_2   0.353650 0.554240 0.692110 -0.444384
O35   O     O_R   0.340324 0.731039 0.849302 -0.700384
O36   O     O_3   0.081100 0.548460 0.594090 -0.428958
O37   O     O_3   0.584850 0.404680 0.643890 -0.471504
O38   O     O_3   0.176199 0.685056 0.696576 -0.699869
O39   O     O_3   0.621030 0.400630 0.459910 -0.442393
O40   O     O_3   0.161970 0.361060 0.604300 -0.459658
P1    P     P_3+3 0.011660 0.422550 0.320180 1.041250
P2    P     P_3+3 0.650900 0.688870 0.561900 1.011749
P3    P     P_3+3 0.063447 0.745107 0.402102 1.021723
P4    P     P_3+3 0.178040 0.577520 0.679830 0.994563
P5    P     P_3+3 0.135371 0.253117 0.601305 1.047653
P6    P     P_3+3 0.555132 0.579531 0.254255 0.995679
P7    P     P_3+3 0.541949 0.296801 0.432405 0.949329
P8    P     P_3+3 0.622330 0.415586 0.746358 1.011733

loop_
_geom_bond_atom_site_label_1
_geom_bond_atom_site_label_2
_ccdc_geom_bond_type
C42   O28   S    
C37   H54   S    
C2    P6    S    
C31   H28   S    
C47   H11   S    
C25   C27   A    
C48   O9    S    
Ba2   O36   S    
C10   P4    S    
O23   P3    S    
C14   H20   S    
C12   H32   S    
C25   H26   S    
C5    C6    S    
C45   C47   S    
C1    H53   S    
Ba2   O37   S    
C9    C17   A    
C2    C50   S    
C1    H38   S    
C22   H46   S    
C28   C46   S    
C24   P3    S    
H40   O24   S    
C22   C24   A    
C35   C38   S    
C8    C13   A    
C23   O7    S    
Ba1   O4    S    
C36   C37   S    
Ba2   O5    S    
C37   H2    S    
Ba2   O40   S    
C27   C31   A    
C41   O25   D    
Ba1   Ba2   S    
O34   P4    D    
C28   H31   S    
C17   H25   S    
C36   H52   S    
O17   P3    D    
Ba1   O1    S    
C45   H8    S    
O37   P8    S    
C34   H41   S    
C16   H6    S    
C20   C42   S    
C14   C15   D    
C46   O33   D    
C26   P7    S    
C21   C22   A    
C27   N2    S    
Ba1   P1    S    
O39   P7    S    
C32   H23   S    
C36   O12   S    
C8    H19   S    
C42   O27   D    
C4    H16   S    
C12   H3    S    
O15   P2    D    
C38   O18   D    
C19   C20   A    
Ba2   O4    S    
O14   P6    S    
C39   O20   D    
C7    C50   D    
Ba1   O5    S    
H36   O21   S    
C4    C16   S    
C16   C44   S    
C43   O29   D    
H49   O32   S    
C28   O38   S    
Ba2   P4    S    
C7    P1    S    
C23   H39   S    
C47   H9    S    
C28   C32   S    
C33   O13   S    
C36   C39   S    
C34   H5    S    
C3    C5    D    
C6    C7    D    
Ba2   O39   S    
C38   O19   S    
H43   O26   S    
C46   O35   S    
C49   H14   S    
C41   O26   S    
O1    P1    D    
Ba1   O15   S    
C34   H4    S    
C29   C30   A    
N1    N2    D    
C21   N1    S    
O9    P8    S    
C32   H12   S    
C48   C49   S    
Ba1   P2    S    
C40   O22   D    
C15   H44   S    
C49   H15   S    
C19   P2    S    
C10   C11   A    
O3    P5    S    
C1    C12   S    
H48   O30   S    
C9    P8    S    
O38   P4    S    
C5    C14   S    
O16   P3    S    
O11   P6    D    
O7    P7    S    
C11   C13   A    
C29   C43   S    
Ba2   O34   S    
H33   O19   S    
O40   P5    S    
O6    P7    D    
C44   O32   S    
C13   C15   S    
C47   H10   S    
C33   C35   S    
O4    P1    S    
O12   P2    S    
O5    P2    S    
C35   H35   S    
C26   C29   A    
C4    O23   S    
C50   H24   S    
C23   C40   S    
C35   H51   S    
C41   C48   S    
C6    H18   S    
C30   C31   A    
Ba1   O16   S    
O36   P4    S    
O2    P5    D    
C39   O21   S    
Ba2   O6    S    
C4    H27   S    
C18   C24   A    
C45   O3    S    
C10   C17   A    
C43   O30   S    
C16   H30   S    
O13   P1    S    
H47   O28   S    
O10   P6    S    
C1    H42   S    
Ba1   O10   S    
C3    H21   S    
C48   H13   S    
O8    P8    D    
Ba1   O39   S    
C8    C9    A    
C23   C34   S    
C45   H7    S    
C30   P5    S    
C2    C3    S    
C18   C19   A    
C32   H1    S    
H50   O35   S    
C25   C26   A    
Ba1   O36   S    
C12   O14   S    
C20   C21   A    
C44   O31   D    
C40   O24   S    
C49   H17   S    
C33   H45   S    
C33   H34   S    
C37   H37   S    
C11   H22   S    
C18   H29   S    
