data_mof_unit_50493.cif
_audit_creation_date              2012-12-11T14:58:44-0500
_audit_creation_method            fapswitch 2.2
_symmetry_space_group_name_H-M    P1
_symmetry_Int_Tables_number       1
_space_group_crystal_system       triclinic
_cell_length_a                    10.902864
_cell_length_b                    10.890879
_cell_length_c                    18.773086
_cell_angle_alpha                 89.891191
_cell_angle_beta                  90.833803
_cell_angle_gamma                 60.166853
_cell_volume                      1933.42563366

loop_
_atom_site_label
_atom_site_type_symbol
_atom_type_description
_atom_site_fract_x
_atom_site_fract_y
_atom_site_fract_z
_atom_type_partial_charge
C1    C     C_R   0.357498 0.775111 0.397840 0.540410
C2    C     C_R   0.252228 0.443737 0.196679 -0.147704
C3    C     C_R   0.250851 0.454057 0.270541 -0.036184
C4    C     C_R   0.386227 0.355781 0.387024 0.543416
C5    C     C_R   0.914888 0.837237 0.356278 -0.107626
C6    C     C_R   0.938026 0.706529 0.382382 0.097556
C7    C     C_R   0.045862 0.580496 0.353871 -0.016806
C8    C     C_R   0.134174 0.584902 0.301272 0.019615
C9    C     C_R   0.363388 0.344549 0.310810 0.005375
C10   C     C_R   0.834248 0.238452 0.293698 -0.148850
C11   C     C_R   0.854806 0.227899 0.220998 -0.157163
C12   C     C_R   0.612524 0.112326 0.168407 0.054048
C13   C     C_R   0.858087 0.337579 0.183508 0.021702
C14   C     C_R   0.837598 0.458740 0.218980 -0.146013
C15   C     C_R   0.822420 0.466802 0.291479 -0.154944
C16   C     C_R   0.774448 0.381221 0.402068 0.549833
C17   C     C_R   0.821253 0.356444 0.329449 0.025224
C18   C     C_R   0.443789 0.750427 0.276337 -0.141514
C19   C     C_R   0.425759 0.795403 0.205767 -0.132129
C20   C     C_R   0.310262 0.926514 0.186410 0.030911
C21   C     C_R   0.218715 0.015813 0.238401 -0.149472
C22   C     C_R   0.234935 0.969677 0.308958 -0.143033
C23   C     C_R   0.362268 0.329104 0.162057 0.001592
C24   C     C_R   0.345964 0.835449 0.327502 0.032524
C25   C     C_R   0.462939 0.269375 0.716546 -0.188637
C26   C     C_R   0.446947 0.270813 0.788771 -0.157414
C27   C     C_R   0.311611 0.335625 0.816753 -0.014291
C28   C     C_R   0.345632 0.768371 0.604921 0.540918
C29   C     C_R   0.192192 0.412652 0.772718 -0.133461
C30   C     C_R   0.207923 0.419281 0.699335 0.246428
C31   C     C_R   0.344243 0.339907 0.671086 0.044973
C32   C     C_R   0.716637 0.384406 0.734625 -0.144156
C33   C     C_R   0.758459 0.361825 0.805681 -0.127093
C34   C     C_R   0.477591 0.234476 0.275071 -0.140262
C35   C     C_R   0.902460 0.289288 0.823492 0.028211
C36   C     C_R   0.004644 0.235160 0.770385 -0.148083
C37   C     C_R   0.962570 0.258088 0.698898 -0.114888
C38   C     C_R   0.818497 0.334220 0.681433 0.035967
C39   C     C_R   0.194094 0.856636 0.709626 -0.145479
C40   C     C_R   0.372392 0.351243 0.597169 0.573901
C41   C     C_R   0.182010 0.868363 0.782751 -0.143641
C42   C     C_R   0.298772 0.844673 0.825168 0.026498
C43   C     C_R   0.428717 0.805849 0.793762 -0.136243
C44   C     C_R   0.441444 0.791888 0.720544 -0.141610
C45   C     C_R   0.482424 0.228295 0.201483 -0.018806
C46   C     C_R   0.324324 0.816276 0.678097 0.027575
C47   C     C_R   0.910639 0.315459 0.111863 0.542727
C48   C     C_R   0.330387 0.294507 0.091762 0.532334
C49   C     C_R   0.272736 0.963568 0.111885 0.564418
C50   C     C_R   0.946986 0.281343 0.896914 0.564625
C51   C     C_R   0.296352 0.292058 0.886838 0.539691
C52   C     C_R   0.769204 0.373131 0.608867 0.548055
C53   C     C_R   0.275014 0.893856 0.897966 0.545414
C54   C     C_R   0.852403 0.892697 0.103652 -0.111405
C55   C     C_R   0.791433 0.030633 0.076703 -0.099421
C56   C     C_R   0.109198 0.716667 0.275617 -0.089358
C57   C     C_R   0.674020 0.140599 0.109678 -0.067510
C58   C     C_3   0.021105 0.636134 0.665751 0.013638
C59   C     C_3   0.861721 0.698216 0.655596 -0.259853
C60   C     C_3   0.782347 0.858772 0.664318 -0.496237
C61   C     C_R   0.000201 0.841496 0.302803 -0.115711
C62   C     C_R   0.674055 0.972251 0.194457 -0.095642
C63   C     C_R   0.794044 0.863761 0.162595 -0.115700
Cr1   Cr    Cr6+3 0.601770 0.606860 0.505860 1.007170
Cr2   Cr    Cr6+3 0.291380 0.601660 0.495070 1.034135
Cr3   Cr    Cr6+3 0.606880 0.291510 0.499120 0.996163
Cr4   Cr    Cr6+3 0.062440 0.063090 0.008210 0.977663
Cr5   Cr    Cr6+3 0.062880 0.375170 0.998920 0.997660
Cr6   Cr    Cr6+3 0.374700 0.061720 0.992470 1.019358
H1    H     H_    0.569290 0.155123 0.304479 0.133962
H2    H     H_    0.132654 0.119072 0.223708 0.119566
H3    H     H_    0.841855 0.757099 0.183637 0.107930
H4    H     H_    0.159661 0.036369 0.348312 0.114586
H5    H     H_    0.569750 0.214638 0.696584 0.151530
H6    H     H_    0.540366 0.212539 0.822423 0.143034
H7    H     H_    0.086775 0.460280 0.794253 0.139134
H8    H     H_    0.604908 0.444944 0.720963 0.120348
H9    H     H_    0.679271 0.404645 0.846647 0.128785
H10   H     H_    0.116317 0.179756 0.784342 0.112621
H11   H     H_    0.041343 0.220273 0.657720 0.130917
H12   H     H_    0.831125 0.935099 0.377503 0.101184
H13   H     H_    0.102339 0.875592 0.677968 0.119060
H14   H     H_    0.983334 0.940982 0.282142 0.112385
H15   H     H_    0.079331 0.902850 0.805563 0.135891
H16   H     H_    0.519343 0.789478 0.825678 0.132130
H17   H     H_    0.543971 0.757335 0.697608 0.133662
H18   H     H_    0.944737 0.808174 0.078805 0.114544
H19   H     H_    0.835815 0.052534 0.030515 0.147809
H20   H     H_    0.629645 0.247433 0.088862 0.108481
H21   H     H_    0.175012 0.722872 0.234691 0.130467
H22   H     H_    0.628566 0.946355 0.238934 0.107606
H23   H     H_    0.062540 0.479585 0.373488 0.126424
H24   H     H_    0.162019 0.523007 0.166157 0.131802
H25   H     H_    0.864147 0.754250 0.481993 0.209974
H26   H     H_    0.747473 0.756984 0.421093 0.232834
H27   H     H_    0.058609 0.683912 0.625350 0.176519
H28   H     H_    0.040854 0.667283 0.719491 0.111747
H29   H     H_    0.839242 0.672617 0.601465 0.203641
H30   H     H_    0.823316 0.649975 0.695405 0.179187
H31   H     H_    0.800483 0.887135 0.718736 0.146702
H32   H     H_    0.667177 0.900583 0.656094 0.158920
H33   H     H_    0.818174 0.909183 0.624451 0.146202
H34   H     H_    0.826161 0.156272 0.321920 0.120288
H35   H     H_    0.875812 0.131109 0.195143 0.143580
H36   H     H_    0.838837 0.545199 0.191263 0.130446
H37   H     H_    0.804358 0.563207 0.316938 0.149328
H38   H     H_    0.528862 0.645591 0.290335 0.129961
H39   H     H_    0.496864 0.725186 0.165941 0.132277
N1    N     N_3   0.853212 0.701003 0.438242 -0.607627
O1    O     O_R   0.748800 0.497470 0.428000 -0.504505
O2    O     O_R   0.417600 0.174890 0.067840 -0.510748
O3    O     O_R   0.375320 0.946260 0.070860 -0.491467
O4    O     O_R   0.476420 0.724060 0.429470 -0.510447
O5    O     O_R   0.160600 0.919630 0.926660 -0.531016
O6    O     O_R   0.933060 0.190520 0.936020 -0.515256
O7    O     O_R   0.908880 0.403460 0.925020 -0.513137
O8    O     O_R   0.179600 0.361450 0.918490 -0.522646
O9    O     O_R   0.391510 0.170860 0.907530 -0.516569
O10   O     O_R   0.351130 0.942530 0.922260 -0.498802
O11   O     O_3   0.166667 0.166667 0.999870 -0.285445
O12   O     O_R   0.300070 0.471040 0.567100 -0.473518
O13   O     O_R   0.264580 0.744340 0.416750 -0.500327
O14   O     O_R   0.309380 0.472470 0.418200 -0.490142
O15   O     O_R   0.501710 0.260430 0.414300 -0.532872
O16   O     O_R   0.728090 0.305600 0.428960 -0.511586
O17   O     O_R   0.738760 0.495930 0.588610 -0.511835
O18   O     O_R   0.467110 0.722640 0.578360 -0.509961
O19   O     O_R   0.254530 0.742800 0.577360 -0.541222
O20   O     O_3   0.090056 0.487976 0.654802 -0.561694
O21   O     O_R   0.491670 0.258900 0.574910 -0.537267
O22   O     O_R   0.718780 0.304180 0.577850 -0.510277
O23   O     O_3   0.500010 0.500010 0.500020 -0.251378
O24   O     O_R   0.186690 0.923650 0.086970 -0.519771
O25   O     O_R   0.957250 0.194250 0.084630 -0.531965
O26   O     O_R   0.934970 0.407490 0.085330 -0.518176
O27   O     O_R   0.203780 0.365190 0.067090 -0.509193

loop_
_geom_bond_atom_site_label_1
_geom_bond_atom_site_label_2
_ccdc_geom_bond_type
C25   C31   A    
C23   C45   A    
C27   C29   A    
C59   H30   S    
C41   C42   A    
C35   C36   A    
C8    C56   A    
C16   O1    A    
C7    C8    A    
C39   C41   A    
C29   H7    S    
C54   H18   S    
C40   O12   A    
C28   C46   S    
C26   C27   A    
C29   C30   A    
C57   H20   S    
C21   H2    S    
C18   C24   A    
C15   H37   S    
C36   C37   A    
Cr4   O24   S    
C37   C38   A    
C18   C19   A    
C42   C53   S    
C30   C31   A    
Cr6   O3    S    
C60   H33   S    
C33   H9    S    
C38   C52   S    
C54   C63   A    
C58   O20   S    
Cr6   O9    S    
C51   O9    A    
C5    H12   S    
C31   C40   S    
C4    O15   A    
C25   H5    S    
C55   H19   S    
C58   H27   S    
C1    O13   A    
Cr4   O6    S    
C51   O8    A    
C32   H8    S    
C18   H38   S    
C14   H36   S    
Cr1   O23   S    
C44   C46   A    
C16   C17   S    
C11   H35   S    
Cr1   O4    S    
C32   C38   A    
C16   O16   A    
C34   H1    S    
C50   O7    A    
C28   O18   A    
C48   O27   A    
C19   H39   S    
C56   H21   S    
C59   C60   S    
C13   C14   A    
C58   H28   S    
C1    O4    A    
C44   H17   S    
C27   C51   S    
Cr3   O23   S    
C2    H24   S    
C37   H11   S    
C43   H16   S    
Cr2   O19   S    
Cr5   O27   S    
Cr4   O25   S    
C3    C8    S    
C61   H14   S    
C13   C47   S    
C52   O17   A    
C58   C59   S    
C41   H15   S    
Cr6   O10   S    
C4    O14   A    
C43   C44   A    
C62   C63   A    
C3    C9    A    
Cr5   O8    S    
C20   C49   S    
C12   C62   A    
Cr1   O1    S    
Cr1   O18   S    
C62   H22   S    
C35   C50   S    
C26   H6    S    
C5    C61   A    
C34   C45   A    
Cr2   O13   S    
C63   H3    S    
Cr5   O7    S    
C39   C46   A    
C12   C57   A    
Cr2   O12   S    
C49   O3    A    
C47   O25   A    
H26   N1    S    
C9    C34   A    
C6    N1    S    
Cr3   O15   S    
C42   C43   A    
C60   H32   S    
Cr2   O23   S    
C53   O5    A    
Cr3   O22   S    
Cr4   O11   S    
C15   C17   A    
C40   O21   A    
C54   C55   A    
C10   H34   S    
C23   C48   S    
Cr6   O11   S    
C47   O26   A    
C14   C15   A    
C52   O22   A    
Cr4   O5    S    
Cr5   O26   S    
C39   H13   S    
C12   C45   S    
C60   H31   S    
C36   H10   S    
C53   O10   A    
C6    C7    A    
C30   O20   S    
H25   N1    S    
Cr1   O17   S    
Cr3   O16   S    
C32   C33   A    
C19   C20   A    
C55   C57   A    
C2    C3    A    
C25   C26   A    
C50   O6    A    
C11   C13   A    
C5    C6    A    
C7    H23   S    
C33   C35   A    
C22   C24   A    
Cr2   O14   S    
Cr6   O2    S    
C10   C11   A    
C48   O2    A    
C20   C21   A    
C1    C24   S    
C49   O24   A    
C2    C23   A    
C59   H29   S    
C56   C61   A    
C10   C17   A    
C22   H4    S    
C4    C9    S    
C21   C22   A    
Cr5   O11   S    
C28   O19   A    
Cr3   O21   S    
