data_mof_unit_39448.cif
_audit_creation_date              2012-12-10T19:09:04-0500
_audit_creation_method            fapswitch 2.2
_symmetry_space_group_name_H-M    P1
_symmetry_Int_Tables_number       1
_space_group_crystal_system       triclinic
_cell_length_a                    17.690014
_cell_length_b                    10.848181
_cell_length_c                    9.541551
_cell_angle_alpha                 90.166287
_cell_angle_beta                  89.123032
_cell_angle_gamma                 91.366733
_cell_volume                      1830.32508263

loop_
_atom_site_label
_atom_site_type_symbol
_atom_type_description
_atom_site_fract_x
_atom_site_fract_y
_atom_site_fract_z
_atom_type_partial_charge
C1    C     C_R   0.499797 0.262430 0.499808 0.788782
C2    C     C_R   0.884753 0.440736 0.516115 -0.012877
C3    C     C_1   0.965734 0.442880 0.522280 -0.001457
C4    C     C_1   0.033563 0.449317 0.521619 -0.078220
C5    C     C_R   0.154742 0.470284 0.640723 -0.160457
C6    C     C_R   0.233284 0.484144 0.635509 -0.201132
C7    C     C_R   0.272149 0.488840 0.505677 -0.033134
C8    C     C_R   0.230848 0.480075 0.381258 -0.197882
C9    C     C_R   0.152207 0.466240 0.386837 -0.161082
C10   C     C_R   0.114271 0.460876 0.516514 0.146506
C11   C     C_R   0.505232 0.064607 0.624952 0.128353
C12   C     C_R   0.355381 0.497956 0.501281 0.781545
C13   C     C_R   0.502415 0.129384 0.499072 -0.085450
C14   C     C_R   0.502614 0.064025 0.372014 -0.229177
C15   C     C_R   0.499508 0.935884 0.372693 -0.249240
C16   C     C_R   0.498167 0.871224 0.500117 -0.091900
C17   C     C_R   0.503207 0.937210 0.625808 0.122960
C18   C     C_3   0.450384 0.933573 0.749994 -0.472792
C19   C     C_3   0.453513 0.073114 0.749386 -0.466350
C20   C     C_R   0.559957 0.550854 0.071972 0.200243
C21   C     C_R   0.444899 0.439240 0.075734 -0.091514
C22   C     C_R   0.444757 0.439611 0.926853 -0.091580
C23   C     C_R   0.497326 0.737568 0.500271 0.763392
C24   C     C_R   0.560362 0.548266 0.924653 0.156422
C25   C     C_3   0.593129 0.674993 0.911594 0.192778
C26   C     C_3   0.588872 0.682825 0.071772 0.206060
C27   C     C_R   0.644937 0.495681 0.498855 0.828449
C28   C     C_R   0.839659 0.433497 0.637627 0.482059
C29   C     C_R   0.762485 0.454886 0.628525 -0.334462
C30   C     C_R   0.728315 0.477862 0.498801 -0.203731
C31   C     C_R   0.773491 0.478172 0.373779 0.457263
C32   C     C_R   0.851935 0.456859 0.386195 -0.366862
Cu1   Cu    Cu3+1 0.500000 0.499980 0.640670 0.942810
Cu2   Cu    Cu3+1 0.500000 0.500020 0.359330 0.958657
H1    H     H_    0.496764 0.888038 0.273329 0.158592
H2    H     H_    0.393663 0.893864 0.724605 0.202148
H3    H     H_    0.476145 0.895081 0.845071 0.176459
H4    H     H_    0.398514 0.114861 0.724391 0.195265
H5    H     H_    0.482576 0.113567 0.841864 0.195822
H6    H     H_    0.399629 0.391698 0.132501 0.140550
H7    H     H_    0.399312 0.392634 0.872192 0.137950
H8    H     H_    0.555365 0.737552 0.855465 0.063109
H9    H     H_    0.729212 0.452765 0.724780 0.214410
H10   H     H_    0.545646 0.748641 0.109564 0.012361
H11   H     H_    0.890024 0.456714 0.296694 0.157798
H12   H     H_    0.125620 0.466940 0.741446 0.129691
H13   H     H_    0.263504 0.490387 0.733231 0.145443
H14   H     H_    0.259222 0.483029 0.279893 0.143600
H15   H     H_    0.120993 0.459732 0.290147 0.126018
H16   H     H_    0.502340 0.111353 0.272225 0.167297
N1    N     N_R   0.500470 0.500930 0.147930 -0.208474
N2    N     N_R   0.500480 0.500890 0.852020 -0.207019
O1    O     O_R   0.500000 0.319640 0.618810 -0.579047
O2    O     O_R   0.500010 0.319680 0.381230 -0.583868
O3    O     O_R   0.391250 0.499990 0.618840 -0.588205
O4    O     O_R   0.391260 0.500020 0.381250 -0.586037
O5    O     O_R   0.499990 0.680320 0.618770 -0.583779
O6    O     O_R   0.500000 0.680360 0.381190 -0.596470
O7    O     O_R   0.608740 0.499980 0.618750 -0.564410
O8    O     O_R   0.608750 0.500010 0.381160 -0.518876
O9    O     O_3   0.870643 0.417316 0.768372 -0.635318
C33   C     C_3   0.892583 0.293779 0.785292 0.047773
H17   H     H_    0.933134 0.292219 0.873015 0.163890
H18   H     H_    0.923008 0.256819 0.691742 0.138506
C34   C     C_3   0.824484 0.209858 0.823026 -0.363264
H19   H     H_    0.793867 0.247956 0.915449 0.217093
H20   H     H_    0.785056 0.205022 0.733509 0.216516
C35   C     C_3   0.849647 0.079957 0.856177 -0.950673
H21   H     H_    0.884898 0.043142 0.769031 0.257181
H22   H     H_    0.798993 0.019047 0.869458 0.258242
H23   H     H_    0.882526 0.079864 0.954425 0.262520
O10   O     O_3   0.667946 0.669127 0.857311 -0.572252
C36   C     C_3   0.695595 0.787069 0.815739 0.129611
H24   H     H_    0.755262 0.796093 0.849305 0.156491
H25   H     H_    0.664674 0.864722 0.865414 0.122025
C37   C     C_3   0.694384 0.797718 0.656061 -0.368226
H26   H     H_    0.731736 0.727660 0.608490 0.218650
H27   H     H_    0.636265 0.779587 0.619211 0.219031
C38   C     C_3   0.720812 0.925414 0.606814 -0.962185
H28   H     H_    0.686885 0.998118 0.658243 0.264163
H29   H     H_    0.714006 0.932523 0.492001 0.256848
H30   H     H_    0.781518 0.940531 0.630238 0.269653
O11   O     O_3   0.662075 0.695701 0.128852 -0.538161
C39   C     C_3   0.664780 0.780840 0.241431 0.134486
H31   H     H_    0.715530 0.761776 0.304217 0.162614
H32   H     H_    0.617232 0.766403 0.315233 0.124980
C40   C     C_3   0.668207 0.915826 0.192098 -0.431181
H33   H     H_    0.630548 0.929299 0.101714 0.206500
H34   H     H_    0.647759 0.975582 0.278548 0.206472
C41   C     C_3   0.748387 0.959495 0.154134 -0.857505
H35   H     H_    0.747853 0.057567 0.121247 0.254554
H36   H     H_    0.771229 0.903800 0.066890 0.253202
H37   H     H_    0.785852 0.951905 0.245915 0.245167
O12   O     O_3   0.738719 0.503713 0.246354 -0.581717
C42   C     C_3   0.786673 0.504564 0.125441 0.165551
H38   H     H_    0.749700 0.500020 0.032404 0.203343
H39   H     H_    0.820724 0.419927 0.117438 0.102598
C43   C     C_3   0.834883 0.624871 0.114229 -0.390318
H40   H     H_    0.797843 0.703336 0.097305 0.264480
H41   H     H_    0.866054 0.644898 0.211820 0.205872
C44   C     C_3   0.891138 0.621675 0.992069 -0.859619
H42   H     H_    0.927054 0.539390 0.999024 0.269545
H43   H     H_    0.928239 0.705657 0.994576 0.238880
H44   H     H_    0.860348 0.621125 0.891631 0.296672

loop_
_geom_bond_atom_site_label_1
_geom_bond_atom_site_label_2
_ccdc_geom_bond_type
C24   N2    A    
C23   O6    A    
C40   H33   S    
Cu1   O3    S    
C44   H42   S    
C36   H24   S    
C42   H38   S    
C37   C38   S    
C42   C43   S    
C26   H10   S    
C7    C8    A    
Cu1   N2    S    
Cu2   O4    S    
C11   C19   S    
Cu2   N1    S    
C33   H17   S    
C26   O11   S    
C5    C6    A    
C28   C29   A    
C18   H3    S    
C37   H27   S    
C20   N1    A    
C27   O8    A    
C30   C31   A    
C22   H7    S    
C15   C16   A    
C2    C32   A    
C18   C19   S    
C32   H11   S    
C1    O1    A    
C33   H18   S    
C35   H21   S    
C39   H31   S    
C20   C24   A    
C8    C9    A    
C34   H20   S    
C39   C40   S    
C9    C10   A    
C28   O9    S    
Cu1   O7    S    
C21   C22   A    
C29   H9    S    
C27   C30   S    
Cu2   O8    S    
C36   H25   S    
O9    C33   S    
C15   H1    S    
Cu1   Cu2   S    
Cu1   O1    S    
C7    C12   S    
C6    H13   S    
C9    H15   S    
C37   H26   S    
C38   H29   S    
C16   C17   A    
C25   C26   S    
C1    O2    A    
C8    H14   S    
C29   C30   A    
C19   H4    S    
C41   H36   S    
C31   C32   A    
C34   C35   S    
C17   C18   S    
C25   O10   S    
C24   C25   S    
C12   O4    A    
C19   H5    S    
Cu2   O2    S    
C44   H44   S    
C43   H41   S    
C40   H34   S    
C36   C37   S    
O11   C39   S    
C1    C13   S    
C4    C10   S    
C3    C4    T    
C31   O12   S    
C21   N1    A    
C41   H37   S    
C22   N2    A    
C44   H43   S    
C23   O5    A    
C11   C17   A    
Cu1   O5    S    
C33   C34   S    
C39   H32   S    
O10   C36   S    
C25   H8    S    
C38   H30   S    
C42   H39   S    
C6    C7    A    
C16   C23   S    
C43   C44   S    
C5    H12   S    
C2    C3    S    
C5    C10   A    
C27   O7    A    
C11   C13   A    
C41   H35   S    
C14   H16   S    
C21   H6    S    
C20   C26   S    
C35   H23   S    
C34   H19   S    
O12   C42   S    
C12   O3    A    
C38   H28   S    
C35   H22   S    
C43   H40   S    
C40   C41   S    
Cu2   O6    S    
C14   C15   A    
C2    C28   A    
C13   C14   A    
C18   H2    S    
