data_mof_unit_20334.cif
_audit_creation_date              2012-12-10T16:59:19-0500
_audit_creation_method            fapswitch 2.2
_symmetry_space_group_name_H-M    P1
_symmetry_Int_Tables_number       1
_space_group_crystal_system       triclinic
_cell_length_a                    7.724973
_cell_length_b                    8.559807
_cell_length_c                    27.691681
_cell_angle_alpha                 90.890826
_cell_angle_beta                  86.314569
_cell_angle_gamma                 93.455133
_cell_volume                      1823.85895713

loop_
_atom_site_label
_atom_site_type_symbol
_atom_type_description
_atom_site_fract_x
_atom_site_fract_y
_atom_site_fract_z
_atom_type_partial_charge
C1    C     C_R   0.545788 0.794856 0.498723 0.965316
C2    C     C_R   0.454220 0.205149 0.501345 0.959914
C3    C     C_R   0.535721 0.481411 0.898135 -0.123835
C4    C     C_R   0.462563 0.516507 0.101822 -0.123587
C5    C     C_R   0.622043 0.605284 0.871460 -0.212965
C6    C     C_R   0.376270 0.392652 0.128511 -0.212626
C7    C     C_R   0.713527 0.726313 0.896002 0.416660
C8    C     C_R   0.284698 0.271637 0.103986 0.416057
C9    C     C_R   0.465188 0.349276 0.873705 0.031019
C10   C     C_R   0.533363 0.648567 0.126239 0.031295
C11   C     C_R   0.510033 0.488723 0.646486 -0.165163
C12   C     C_R   0.490010 0.508973 0.353395 -0.145148
C13   C     C_R   0.572577 0.630639 0.024540 0.114198
C14   C     C_R   0.425415 0.367339 0.975412 0.114179
C15   C     C_R   0.395908 0.381539 0.026248 -0.173097
C16   C     C_R   0.602126 0.616414 0.973713 -0.172991
C17   C     C_R   0.478446 0.508616 0.050721 0.014707
C18   C     C_R   0.519625 0.489342 0.949235 0.015133
C19   C     C_R   0.623538 0.768330 0.049827 -0.199914
C20   C     C_R   0.374479 0.229659 0.950114 -0.200285
C21   C     C_R   0.608076 0.775852 0.099870 -0.232748
C22   C     C_R   0.390288 0.222048 0.900070 -0.232598
C23   C     C_R   0.502700 0.497600 0.593965 0.893124
C24   C     C_R   0.497286 0.501928 0.406001 0.907301
C25   C     C_R   0.719810 0.719788 0.946322 0.315061
C26   C     C_R   0.278372 0.278084 0.053661 0.315179
C27   C     C_2   0.570173 0.958119 0.497979 -0.379975
C28   C     C_2   0.429851 0.041898 0.502200 -0.379350
C29   C     C_R   0.617871 0.601139 0.820797 0.577342
C30   C     C_R   0.380596 0.396792 0.179172 0.574727
C31   C     C_R   0.474390 0.346108 0.823235 0.500448
C32   C     C_R   0.524656 0.651588 0.176703 0.499078
C33   C     C_R   0.370899 0.454018 0.726775 -0.188576
C34   C     C_R   0.628733 0.542298 0.272993 -0.218860
C35   C     C_R   0.358681 0.454947 0.676816 0.440117
C36   C     C_R   0.641578 0.541528 0.323132 0.454487
C37   C     C_R   0.672074 0.509599 0.666685 -0.293795
C38   C     C_R   0.327792 0.488652 0.333260 -0.298691
C39   C     C_R   0.683869 0.499541 0.716278 -0.090873
C40   C     C_R   0.315625 0.498951 0.283710 -0.093412
C41   C     C_R   0.533134 0.474782 0.746583 0.225493
C42   C     C_R   0.466175 0.522948 0.253331 0.240781
H1    H     H_    0.654562 0.882306 0.117750 0.187062
H2    H     H_    0.343920 0.115562 0.882185 0.187280
N1    N     N_R   0.543649 0.473341 0.797968 -0.344749
N2    N     N_R   0.455254 0.524432 0.201971 -0.344979
N3    N     N_2   0.950320 0.457960 0.486880 -0.175060
N4    N     N_2   0.049680 0.542040 0.513120 -0.178857
O1    O     O_R   0.389250 0.738570 0.503220 -0.612853
O2    O     O_R   0.610750 0.261430 0.496780 -0.614794
O3    O     O_R   0.678390 0.711630 0.494810 -0.638641
O4    O     O_R   0.321610 0.288370 0.505190 -0.637405
O5    O     O_R   0.355440 0.513440 0.575450 -0.567131
O6    O     O_R   0.644560 0.486560 0.424550 -0.555970
O7    O     O_R   0.644590 0.486500 0.567040 -0.641074
O8    O     O_R   0.355410 0.513500 0.432960 -0.645138
O9    O     O_2   0.683713 0.724701 0.794473 -0.516040
O10   O     O_2   0.314493 0.273387 0.205525 -0.517277
O11   O     O_2   0.586062 0.780120 0.200477 -0.577068
O12   O     O_2   0.413662 0.217327 0.799458 -0.575175
Zn1   Zn    Zn3+2 0.306940 0.517990 0.505620 0.951000
Zn2   Zn    Zn3+2 0.693060 0.482010 0.494380 0.954667
H3    H     H_    0.790246 0.533680 0.644141 0.207107
H4    H     H_    0.209845 0.464036 0.355814 0.200325
H5    H     H_    0.014415 0.383599 0.463323 0.197740
H6    H     H_    0.985582 0.616367 0.536687 0.195953
H7    H     H_    0.810080 0.513492 0.731253 0.180100
H8    H     H_    0.189282 0.485330 0.268802 0.169537
O13   O     O_3   0.820923 0.836584 0.870805 -0.545728
C43   C     C_3   0.745742 0.983166 0.875048 0.169368
H9    H     H_    0.629793 0.982508 0.853176 0.177713
H10   H     H_    0.705908 0.013841 0.913249 0.125837
C44   C     C_3   0.877714 0.110252 0.856060 -0.737584
H11   H     H_    0.994559 0.113454 0.877512 0.251562
H12   H     H_    0.820179 0.226031 0.859208 0.191936
H13   H     H_    0.916734 0.086802 0.817451 0.274974
O14   O     O_3   0.177306 0.161418 0.129208 -0.545959
C45   C     C_3   0.252672 0.014912 0.125068 0.172011
H14   H     H_    0.369096 0.016037 0.146767 0.176842
H15   H     H_    0.291803 0.983766 0.086858 0.126245
C46   C     C_3   0.121208 0.887956 0.144417 -0.744267
H16   H     H_    0.003859 0.884309 0.123161 0.252655
H17   H     H_    0.178847 0.772218 0.141322 0.191880
H18   H     H_    0.082962 0.911904 0.183048 0.271976
O15   O     O_3   0.801588 0.567179 0.342815 -0.604148
C47   C     C_3   0.874585 0.718565 0.331048 0.087846
H19   H     H_    0.775214 0.804223 0.324532 0.150635
H20   H     H_    0.964016 0.710917 0.298118 0.156393
C48   C     C_3   0.977472 0.782744 0.372816 -0.775930
H21   H     H_    0.079797 0.703002 0.380637 0.258632
H22   H     H_    0.039922 0.899461 0.363370 0.211106
H23   H     H_    0.889227 0.794908 0.405767 0.256747
O16   O     O_3   0.197952 0.425036 0.658226 -0.605550
C49   C     C_3   0.175040 0.262358 0.649221 0.112808
H24   H     H_    0.172015 0.195989 0.683601 0.158738
H25   H     H_    0.280853 0.220749 0.623808 0.132289
C50   C     C_3   0.003396 0.226992 0.626127 -0.776760
H26   H     H_    0.998783 0.297312 0.592903 0.266107
H27   H     H_    0.989548 0.100817 0.616261 0.204295
H28   H     H_    0.893722 0.254887 0.652040 0.250710
H29   H     H_    0.745259 0.558868 0.249271 0.155649
H30   H     H_    0.253976 0.434798 0.750203 0.167791
H31   H     H_    0.671018 0.873788 0.031503 0.198050
H32   H     H_    0.326847 0.124235 0.968426 0.198062
O17   O     O_3   0.853386 0.806577 0.966973 -0.614912
C51   C     C_3   0.981801 0.704451 0.978198 0.130065
H33   H     H_    0.022632 0.631365 0.946228 0.144158
H34   H     H_    0.933527 0.626981 0.008631 0.130849
C52   C     C_3   0.140654 0.800025 0.993835 -0.808145
H35   H     H_    0.103021 0.878845 0.024393 0.292255
H36   H     H_    0.237383 0.720682 0.005741 0.203180
H37   H     H_    0.199631 0.870106 0.962987 0.251451
O18   O     O_3   0.144790 0.191228 0.033037 -0.614865
C53   C     C_3   0.016186 0.293260 0.021885 0.130594
H38   H     H_    0.063922 0.370129 0.991257 0.131004
H39   H     H_    0.976145 0.366972 0.053791 0.143700
C54   C     C_3   0.856759 0.197542 0.006700 -0.808956
H40   H     H_    0.798610 0.127843 0.037733 0.251487
H41   H     H_    0.759675 0.276766 0.994934 0.203299
H42   H     H_    0.893468 0.118359 0.976152 0.292304
H43   H     H_    0.702809 0.008822 0.493925 0.178266
H44   H     H_    0.297218 0.991196 0.506268 0.179649

loop_
_geom_bond_atom_site_label_1
_geom_bond_atom_site_label_2
_ccdc_geom_bond_type
O16   C49   S    
C8    C26   A    
C44   H11   S    
C14   C18   A    
C34   C42   A    
C46   H18   S    
N3    Zn2   S    
C46   H16   S    
C27   H43   S    
C25   O17   S    
C39   C41   A    
O14   C45   S    
C19   C21   A    
O4    Zn1   S    
C54   H41   S    
C28   H44   S    
C9    C22   A    
C51   H33   S    
C24   O6    A    
O7    Zn2   S    
C50   H26   S    
C3    C18   A    
C42   N2    S    
C11   C37   A    
C2    O2    A    
C52   H36   S    
C50   H27   S    
C21   H1    S    
C19   H31   S    
C22   H2    S    
C43   H9    S    
C12   C36   A    
C5    C29   A    
C40   C42   A    
C23   O7    A    
C44   H12   S    
O13   C43   S    
O3    Zn2   S    
C32   N2    A    
C46   H17   S    
C23   O5    A    
C38   H4    S    
C35   O16   S    
C10   C21   A    
C34   H29   S    
O1    Zn1   S    
C13   C19   A    
C47   H20   S    
C33   H30   S    
C14   C20   A    
C4    C6    A    
C52   H37   S    
C5    C7    A    
C47   H19   S    
C15   C26   A    
C6    C8    A    
O6    Zn2   S    
C49   C50   S    
O15   C47   S    
C43   H10   S    
C29   N1    A    
C31   O12   S    
C3    C9    A    
N3    N4    D    
C14   C15   A    
C37   H3    S    
C43   C44   S    
C45   H15   S    
C48   H23   S    
C49   H25   S    
C1    O3    A    
C2    O4    A    
C4    C17   A    
C6    C30   A    
C29   O9    S    
C40   H8    S    
C8    O14   S    
O2    Zn2   S    
C44   H13   S    
C54   H42   S    
C48   H22   S    
C4    C10   A    
C50   H28   S    
O18   C53   S    
C16   C25   A    
C15   C17   A    
C45   H14   S    
C39   H7    S    
O5    Zn1   S    
C30   N2    A    
C20   C22   A    
C3    C5    A    
C47   C48   S    
C7    O13   S    
C53   H39   S    
C53   H38   S    
C20   H32   S    
C36   O15   S    
C24   O8    A    
O17   C51   S    
C12   C24   S    
C7    C25   A    
C13   C17   A    
C33   C41   A    
C11   C35   A    
C26   O18   S    
C37   C39   A    
C52   H35   S    
C38   C40   A    
C45   C46   S    
N4    Zn1   S    
C51   H34   S    
C30   O10   S    
C11   C23   S    
C33   C35   A    
C34   C36   A    
C12   C38   A    
C49   H24   S    
C53   C54   S    
C9    C31   A    
C10   C32   A    
C16   C18   A    
C31   N1    A    
C13   C16   A    
C27   C28   D    
C1    C27   S    
C41   N1    S    
O8    Zn1   S    
C2    C28   S    
C32   O11   S    
N4    H6    S    
C48   H21   S    
C54   H40   S    
C1    O1    A    
N3    H5    S    
C51   C52   S    
