data_mof_unit_9805.cif
_audit_creation_date              2012-12-10T19:07:05-0500
_audit_creation_method            fapswitch 2.2
_symmetry_space_group_name_H-M    P1
_symmetry_Int_Tables_number       1
_space_group_crystal_system       triclinic
_cell_length_a                    27.713357
_cell_length_b                    10.847411
_cell_length_c                    9.551035
_cell_angle_alpha                 90.510884
_cell_angle_beta                  90.288588
_cell_angle_gamma                 90.462242
_cell_volume                      2870.96965294

loop_
_atom_site_label
_atom_site_type_symbol
_atom_type_description
_atom_site_fract_x
_atom_site_fract_y
_atom_site_fract_z
_atom_type_partial_charge
C1    C     C_R   0.498385 0.262467 0.499377 0.817767
C2    C     C_R   0.278374 0.469354 0.620367 -0.098854
C3    C     C_R   0.252861 0.492044 0.496202 0.344181
C4    C     C_R   0.100794 0.468346 0.503594 -0.051535
C5    C     C_R   0.127158 0.391894 0.412848 -0.016573
C6    C     C_R   0.102534 0.306914 0.326936 -0.142553
C7    C     C_R   0.125193 0.557128 0.586449 -0.021038
C8    C     C_R   0.354257 0.498394 0.498668 -0.038286
C9    C     C_R   0.644750 0.484732 0.502909 -0.069825
C10   C     C_R   0.973602 0.378515 0.415893 0.020322
C11   C     C_R   0.974743 0.500405 0.633606 0.029921
C12   C     C_R   0.407398 0.499837 0.499625 0.798278
C13   C     C_R   0.948557 0.439634 0.525254 0.032777
C14   C     C_R   0.946703 0.321134 0.308264 -0.229374
C15   C     C_R   0.896298 0.321860 0.305883 0.159891
C16   C     C_R   0.871004 0.387287 0.412365 -0.040057
C17   C     C_R   0.897390 0.440029 0.526522 -0.085941
C18   C     C_R   0.872761 0.495769 0.640462 -0.082359
C19   C     C_R   0.821686 0.499998 0.634662 0.549106
C20   C     C_R   0.820506 0.404623 0.408729 0.548767
C21   C     C_R   0.716472 0.357871 0.526086 -0.021152
C22   C     C_R   0.665863 0.367667 0.518372 -0.092933
C23   C     C_R   0.499291 0.737871 0.500195 0.799788
C24   C     C_R   0.673926 0.590222 0.496072 -0.175130
C25   C     C_R   0.723938 0.580268 0.501371 -0.058918
C26   C     C_R   0.745497 0.464772 0.516043 0.291639
C27   C     C_R   0.024931 0.376651 0.417747 0.054545
C28   C     C_R   0.049943 0.456436 0.511312 0.067180
C29   C     C_R   0.024403 0.525493 0.612131 0.044972
C30   C     C_R   0.052317 0.300125 0.328055 -0.226353
C31   C     C_R   0.098520 0.637016 0.671512 -0.149837
C32   C     C_R   0.950592 0.529281 0.760738 0.081945
C33   C     C_R   0.899801 0.539642 0.758269 -0.070784
C34   C     C_R   0.592296 0.498338 0.500533 0.806555
C35   C     C_R   0.048717 0.622651 0.682081 -0.205072
C36   C     C_R   0.485655 0.065110 0.621629 0.085647
C37   C     C_R   0.492701 0.129600 0.497456 -0.095825
C38   C     C_R   0.492990 0.063430 0.370198 -0.174502
C39   C     C_R   0.493699 0.934842 0.370820 -0.200465
C40   C     C_R   0.494437 0.871174 0.498665 -0.087599
C41   C     C_R   0.487109 0.938042 0.622089 0.115289
C42   C     C_3   0.513592 0.936233 0.758485 -0.519491
C43   C     C_3   0.511187 0.076078 0.759359 -0.199459
C44   C     C_R   0.540350 0.535376 0.074875 0.218219
C45   C     C_R   0.177725 0.401291 0.411763 0.535563
C46   C     C_R   0.461872 0.454517 0.073279 -0.050356
C47   C     C_R   0.461815 0.454893 0.924676 -0.044421
C48   C     C_R   0.540438 0.534553 0.926976 0.210585
C49   C     C_3   0.564581 0.657558 0.921902 -0.339920
C50   C     C_3   0.564495 0.658978 0.082047 -0.327436
C51   C     C_R   0.175676 0.565654 0.579499 0.536562
C52   C     C_R   0.278259 0.518536 0.373349 -0.094022
C53   C     C_R   0.328604 0.521058 0.374301 -0.216762
C54   C     C_R   0.328672 0.473139 0.621888 -0.212892
Cu1   Cu    Cu3+1 0.500000 0.499980 0.640670 0.956766
Cu2   Cu    Cu3+1 0.500000 0.500020 0.359330 0.958414
H1    H     H_    0.347483 0.454737 0.719052 0.152109
H2    H     H_    0.258949 0.536942 0.277021 0.151346
H3    H     H_    0.115952 0.711080 0.729931 0.187749
H4    H     H_    0.657852 0.680554 0.487017 0.150915
H5    H     H_    0.746122 0.662593 0.494372 0.154365
H6    H     H_    0.029150 0.691811 0.739948 0.144643
H7    H     H_    0.495414 0.110355 0.270819 0.180742
H8    H     H_    0.496185 0.886294 0.271645 0.159878
H9    H     H_    0.491815 0.891258 0.841527 0.196362
H10   H     H_    0.259154 0.447954 0.715670 0.149380
H11   H     H_    0.551115 0.902243 0.746658 0.196981
H12   H     H_    0.546913 0.123051 0.753969 0.178381
H13   H     H_    0.430728 0.418735 0.127685 0.149059
H14   H     H_    0.430614 0.419399 0.868728 0.146073
H15   H     H_    0.540837 0.727197 0.875773 0.163313
H16   H     H_    0.541193 0.731651 0.127717 0.158509
H17   H     H_    0.121970 0.245805 0.257280 0.187299
H18   H     H_    0.964300 0.276641 0.221233 0.140529
H19   H     H_    0.036033 0.231235 0.260435 0.140799
H20   H     H_    0.347398 0.541265 0.277927 0.156148
N1    N     N_R   0.200988 0.486755 0.495043 -0.466039
N2    N     N_R   0.797314 0.456603 0.519840 -0.461504
N3    N     N_R   0.500300 0.500930 0.147930 -0.198528
N4    N     N_R   0.500310 0.500890 0.852020 -0.198845
O1    O     O_R   0.500000 0.319640 0.618810 -0.582299
O2    O     O_2   0.794338 0.373749 0.294301 -0.536952
O3    O     O_2   0.199294 0.652150 0.656429 -0.539310
O4    O     O_2   0.796053 0.546113 0.742446 -0.511856
O5    O     O_R   0.500010 0.319680 0.381230 -0.577087
O6    O     O_R   0.430260 0.500000 0.618780 -0.590771
O7    O     O_R   0.430270 0.500040 0.381190 -0.591269
O8    O     O_R   0.499990 0.680320 0.618770 -0.579564
O9    O     O_R   0.500000 0.680360 0.381190 -0.591133
O10   O     O_R   0.569730 0.499960 0.618810 -0.574833
O11   O     O_R   0.569740 0.500000 0.381220 -0.571402
O12   O     O_2   0.203446 0.324467 0.329643 -0.541233
C55   C     C_3   0.977052 0.526664 0.902869 -0.396088
C56   C     C_3   0.005226 0.407319 0.923421 -0.810244
H21   H     H_    0.981631 0.325910 0.902500 0.245401
H22   H     H_    0.036979 0.403328 0.853467 0.264945
H23   H     H_    0.018515 0.402784 0.033160 0.241558
H24   H     H_    0.001021 0.607083 0.920160 0.200576
H25   H     H_    0.951467 0.531025 0.991569 0.204771
C57   C     C_1   0.876621 0.599792 0.876173 0.310509
N5    N     N_1   0.858395 0.648103 0.970422 -0.242823
C58   C     C_1   0.479588 0.124362 0.869948 0.299075
N6    N     N_1   0.454678 0.161309 0.957367 -0.319688
C59   C     C_1   0.612388 0.652273 0.855104 0.330476
N7    N     N_1   0.650158 0.648710 0.804328 -0.248022
C60   C     C_1   0.612585 0.654016 0.148089 0.338496
N8    N     N_1   0.650748 0.650728 0.197304 -0.264570
C61   C     C_1   0.635814 0.257952 0.525713 0.246916
N9    N     N_1   0.612061 0.169949 0.531327 -0.301548
C62   C     C_1   0.738886 0.239124 0.546249 0.287281
N10   N     N_1   0.756845 0.144314 0.562328 -0.267641
C63   C     C_3   0.872211 0.243056 0.192638 -0.354236
C64   C     C_3   0.864867 0.315168 0.057680 -0.712698
H26   H     H_    0.843895 0.400185 0.076974 0.297700
H27   H     H_    0.900313 0.341134 0.012887 0.224159
H28   H     H_    0.845124 0.256921 0.979888 0.244764
H29   H     H_    0.895188 0.162178 0.167833 0.178649
H30   H     H_    0.838011 0.200837 0.228991 0.245373

loop_
_geom_bond_atom_site_label_1
_geom_bond_atom_site_label_2
_ccdc_geom_bond_type
C10   C27   A    
C21   C26   A    
C55   C56   S    
Cu1   N4    S    
C20   O2    S    
C41   C42   S    
Cu1   Cu2   S    
C49   C59   S    
C51   N1    A    
C21   C62   S    
C39   H8    S    
C28   C29   A    
C26   N2    S    
Cu2   N3    S    
C5    C6    A    
C14   H18   S    
C36   C37   A    
C64   H26   S    
Cu1   O10   S    
C46   N3    A    
C9    C22   A    
C60   N8    T    
C1    O1    A    
C23   C40   S    
C61   N9    T    
C18   C19   A    
C31   H3    S    
Cu1   O8    S    
C45   O12   S    
C50   H16   S    
C62   N10   T    
C63   C64   S    
C46   H13   S    
C34   O11   A    
Cu2   O11   S    
C16   C17   A    
C42   H9    S    
C23   O9    A    
Cu1   O1    S    
C55   H25   S    
C16   C20   A    
C64   H28   S    
C32   C55   S    
C21   C22   A    
C27   C30   A    
C36   C41   A    
C56   H21   S    
C47   N4    A    
C4    C7    A    
C59   N7    T    
C4    C28   A    
C1    O5    A    
C7    C31   A    
C24   C25   A    
C2    C54   A    
C8    C54   A    
C39   C40   A    
C43   H12   S    
Cu2   O7    S    
C56   H23   S    
C25   C26   A    
C5    C45   A    
C19   N2    A    
C34   O10   A    
C47   H14   S    
C37   C38   A    
C8    C12   S    
C17   C18   A    
C25   H5    S    
C56   H22   S    
C52   H2    S    
C48   C49   S    
C6    C30   A    
C11   C32   A    
C23   O8    A    
C10   C14   A    
C42   H11   S    
C31   C35   A    
C53   H20   S    
C42   C43   S    
C19   O4    S    
C3    N1    S    
C51   O3    S    
C52   C53   A    
C6    H17   S    
C38   H7    S    
C44   C50   S    
Cu2   O9    S    
C46   C47   A    
C40   C41   A    
C12   O7    A    
C15   C63   S    
C44   N3    A    
C4    C5    A    
C2    H10   S    
C10   C13   A    
C8    C53   A    
C3    C52   A    
C9    C24   A    
C20   N2    A    
C29   C35   A    
C12   O6    A    
C63   H29   S    
C33   C57   S    
C32   C33   A    
C48   N4    A    
Cu1   O6    S    
C2    C3    A    
C43   C58   S    
C7    C51   A    
C63   H30   S    
C30   H19   S    
C11   C13   A    
Cu2   O5    S    
C38   C39   A    
C22   C61   S    
C57   N5    T    
C9    C34   S    
C35   H6    S    
C58   N6    T    
C18   C33   A    
C13   C17   A    
C44   C48   A    
C11   C29   A    
C49   C50   S    
C49   H15   S    
C27   C28   A    
C50   C60   S    
C14   C15   A    
C36   C43   S    
C45   N1    A    
C24   H4    S    
C55   H24   S    
C15   C16   A    
C1    C37   S    
C64   H27   S    
C54   H1    S    
