data_mof_unit_7775.cif
_audit_creation_date              2013-03-05T16:13:43-0500
_audit_creation_method            fapswitch 2.2
_symmetry_space_group_name_H-M    P1
_symmetry_Int_Tables_number       1
_space_group_crystal_system       triclinic
_cell_length_a                    10.731266
_cell_length_b                    9.918716
_cell_length_c                    8.902381
_cell_angle_alpha                 90.008428
_cell_angle_beta                  90.998896
_cell_angle_gamma                 89.991352
_cell_volume                      947.4287924

loop_
_atom_site_label
_atom_site_type_symbol
_atom_site_description
_atom_site_fract_x
_atom_site_fract_y
_atom_site_fract_z
_atom_type_partial_charge
O1    O     O_R   0.316770 0.614620 0.499990 -0.603272
O2    O     O_R   0.683230 0.385380 0.500010 -0.603400
O3    O     O_R   0.683230 0.614620 0.500010 -0.603812
O4    O     O_R   0.316770 0.385380 0.499990 -0.604295
C1    C     C_R   0.260083 0.500005 0.500682 0.881090
C2    C     C_R   0.739917 0.499994 0.499305 0.881265
O5    O     O_R   0.500010 0.614640 0.285340 -0.582573
O6    O     O_R   0.499990 0.385360 0.714660 -0.582450
O7    O     O_R   0.499990 0.614640 0.714660 -0.582448
O8    O     O_R   0.500010 0.385360 0.285340 -0.582428
C3    C     C_R   0.499779 0.499994 0.218874 0.925201
C4    C     C_R   0.500222 0.500006 0.781126 0.925329
Zn1   Zn    Zn3+2 0.500000 0.653120 0.500000 1.069424
Zn2   Zn    Zn3+2 0.500000 0.346880 0.500000 1.069312
C5    C     C_1   0.499919 0.499993 0.065444 -0.062032
C6    C     C_1   0.500083 0.500009 0.934556 -0.062093
C7    C     C_R   0.063830 0.377138 0.501000 -0.122915
C8    C     C_R   0.936171 0.622859 0.498932 -0.122786
C9    C     C_R   0.936202 0.377132 0.498565 -0.122420
C10   C     C_R   0.063798 0.622864 0.501382 -0.122436
H1    H     H_    0.111997 0.281239 0.502591 0.210134
H2    H     H_    0.888007 0.718759 0.497323 0.210119
H3    H     H_    0.888061 0.281232 0.496670 0.209992
H4    H     H_    0.111937 0.718764 0.503288 0.210000
C11   C     C_R   0.872498 0.499992 0.498511 -0.046538
C12   C     C_R   0.127501 0.500005 0.501444 -0.046534
C13   C     C_R   0.561660 0.071812 0.610535 0.220559
C14   C     C_R   0.438323 0.928193 0.389479 0.220719
C15   C     C_R   0.438300 0.071815 0.389508 0.220701
C16   C     C_R   0.561650 0.928190 0.610540 0.220519
N1    N     N_R   0.500000 0.857200 0.500000 -0.222584
N2    N     N_R   0.500000 0.142800 0.500000 -0.222674
N3    N     N_R   0.628109 0.142219 0.726596 0.259336
O9    O     O_R   0.743863 0.175207 0.706846 -0.370793
O10   O     O_R   0.583208 0.146015 0.861282 -0.282532
N4    N     N_R   0.371928 0.857797 0.273366 0.259400
O11   O     O_R   0.256263 0.824487 0.293189 -0.370601
O12   O     O_R   0.416720 0.854339 0.138614 -0.282527
N5    N     N_R   0.371611 0.142230 0.273672 0.259177
O13   O     O_R   0.417000 0.147236 0.139270 -0.282913
O14   O     O_R   0.255215 0.173041 0.292817 -0.370811
N6    N     N_R   0.628164 0.857784 0.726535 0.259272
O15   O     O_R   0.583016 0.853487 0.861078 -0.282714
O16   O     O_R   0.744170 0.825607 0.707070 -0.370968

loop_
_geom_bond_atom_site_label_1
_geom_bond_atom_site_label_2
_geom_bond_distance
_ccdc_geom_bond_type
C9    H3    1.082498 S    
O3    Zn1   2.002970 S    
O6    C4    1.281783 A    
O3    C2    1.289442 A    
C15   N5    1.427484 S    
N4    O12   1.300535 A    
N3    O9    1.299524 A    
O2    Zn2   2.003083 S    
N5    O14   1.299968 A    
C13   N3    1.427572 S    
C13   C16   1.424549 A    
O5    C3    1.281780 A    
O2    C2    1.289501 A    
C8    C11   1.397220 A    
N6    O16   1.299619 A    
C16   N6    1.427540 S    
O1    C1    1.289505 A    
C7    C12   1.397221 A    
N4    O11   1.299509 A    
C7    C9    1.369407 A    
C15   N2    1.370736 A    
C8    C10   1.369395 A    
O4    Zn2   2.002971 S    
C16   N1    1.370808 A    
C9    C11   1.397172 A    
O7    C4    1.281830 A    
C2    C11   1.422904 S    
O1    Zn1   2.003084 S    
O8    C3    1.281834 A    
C1    C12   1.422897 S    
C10   H4    1.082493 S    
O5    Zn1   1.948674 S    
C14   N4    1.427569 S    
N6    O15   1.300547 A    
Zn2   N2    2.024212 S    
N5    O13   1.300636 A    
O7    Zn1   1.948784 S    
C14   C15   1.424547 A    
O6    Zn2   1.948674 S    
C4    C6    1.365914 S    
N3    O10   1.300531 A    
C13   N2    1.370862 A    
C8    H2    1.082473 S    
C3    C5    1.365915 S    
Zn1   N1    2.024212 S    
C14   N1    1.370887 A    
C7    H1    1.082478 S    
C5    C6    1.165250 T    
O8    Zn2   1.948784 S    
O4    C1    1.289436 A    
C10   C12   1.397163 A    
