data_mof_unit_36826.cif
_audit_creation_date              2012-12-11T15:50:41-0500
_audit_creation_method            fapswitch 2.2
_symmetry_space_group_name_H-M    P1
_symmetry_Int_Tables_number       1
_space_group_crystal_system       triclinic
_cell_length_a                    18.921711
_cell_length_b                    10.913123
_cell_length_c                    18.717429
_cell_angle_alpha                 90.008355
_cell_angle_beta                  91.432719
_cell_angle_gamma                 89.926797
_cell_volume                      3863.84325093

loop_
_atom_site_label
_atom_site_type_symbol
_atom_type_description
_atom_site_fract_x
_atom_site_fract_y
_atom_site_fract_z
_atom_type_partial_charge
C1    C     C_R   0.273854 0.039668 0.854847 0.543918
C2    C     C_R   0.759885 0.573798 0.928101 0.018079
C3    C     C_R   0.229597 0.548491 0.352565 0.548771
C4    C     C_R   0.468783 0.823004 0.645995 0.547695
C5    C     C_R   0.529207 0.824297 0.352393 0.551612
C6    C     C_R   0.968764 0.323002 0.645983 0.547740
C7    C     C_R   0.029202 0.324294 0.352389 0.551535
C8    C     C_R   0.273616 0.688348 0.636695 0.571199
C9    C     C_R   0.725284 0.693086 0.362850 0.573880
C10   C     C_R   0.773610 0.188334 0.636693 0.571228
C11   C     C_R   0.225277 0.193132 0.362843 0.573822
C12   C     C_3   0.477952 0.926746 0.034148 -0.115407
C13   C     C_R   0.740090 0.073752 0.071892 0.018117
C14   C     C_3   0.522156 0.926158 0.965692 -0.115094
C15   C     C_3   0.978040 0.426877 0.034102 -0.115424
C16   C     C_3   0.022244 0.426028 0.965647 -0.115060
C17   C     C_3   0.428897 0.826371 0.002036 -0.136574
C18   C     C_3   0.570839 0.825254 0.998004 -0.136144
C19   C     C_3   0.928872 0.326618 0.002040 -0.136623
C20   C     C_3   0.070813 0.325010 0.998010 -0.136092
C21   C     C_3   0.473697 0.825429 0.935105 0.057060
C22   C     C_3   0.526046 0.825482 0.064938 0.057077
C23   C     C_3   0.973674 0.325417 0.935110 0.057058
C24   C     C_R   0.259894 0.073781 0.928104 0.018091
C25   C     C_3   0.026021 0.325497 0.064944 0.057077
C26   C     C_R   0.304704 0.551318 0.039680 0.002311
C27   C     C_R   0.695338 0.551272 0.960350 0.002502
C28   C     C_R   0.804713 0.051355 0.039695 0.002277
C29   C     C_R   0.195343 0.051276 0.960349 0.002531
C30   C     C_R   0.310795 0.561484 0.966051 0.018639
C31   C     C_R   0.689282 0.561446 0.033984 0.018601
C32   C     C_R   0.810806 0.061534 0.966066 0.018641
C33   C     C_R   0.726148 0.039691 0.145147 0.544553
C34   C     C_R   0.189286 0.061449 0.033984 0.018567
C35   C     C_R   0.186694 0.610997 0.954862 -0.176332
C36   C     C_R   0.813290 0.611164 0.045080 -0.176431
C37   C     C_R   0.686698 0.111007 0.954872 -0.176348
C38   C     C_R   0.313301 0.111120 0.045085 -0.176427
C39   C     C_R   0.181701 0.608334 0.028315 -0.172352
C40   C     C_R   0.818226 0.608545 0.971626 -0.172527
C41   C     C_R   0.681703 0.108345 0.028324 -0.172374
C42   C     C_R   0.318243 0.108492 0.971633 -0.172490
C43   C     C_3   0.350164 0.439803 0.043459 -0.269309
C44   C     C_R   0.773853 0.539669 0.854847 0.543897
C45   C     C_3   0.650117 0.439663 0.956610 -0.269111
C46   C     C_3   0.850168 0.939834 0.043468 -0.269331
C47   C     C_3   0.150116 0.939674 0.956608 -0.269089
C48   C     C_3   0.357473 0.451075 0.963355 -0.277785
C49   C     C_3   0.642838 0.450955 0.036719 -0.277894
C50   C     C_3   0.857482 0.951124 0.963367 -0.277781
C51   C     C_3   0.142835 0.950969 0.036716 -0.277904
C52   C     C_R   0.251269 0.587334 0.922565 0.016688
C53   C     C_R   0.748786 0.587411 0.077421 0.016589
C54   C     C_R   0.751279 0.087371 0.922582 0.016679
C55   C     C_R   0.226147 0.539685 0.145143 0.544561
C56   C     C_R   0.248791 0.087390 0.077421 0.016576
C57   C     C_R   0.496774 0.837696 0.421384 0.015513
C58   C     C_R   0.486131 0.828131 0.570896 0.016893
C59   C     C_R   0.996743 0.337668 0.421366 0.015474
C60   C     C_R   0.986084 0.328135 0.570876 0.016903
C61   C     C_R   0.443035 0.817759 0.863054 0.559688
C62   C     C_R   0.556820 0.817723 0.136937 0.560172
C63   C     C_R   0.943026 0.317756 0.863052 0.559693
C64   C     C_R   0.056809 0.317727 0.136936 0.560167
C65   C     C_R   0.463342 0.738955 0.453677 0.020335
C66   C     C_3   0.522018 0.724864 0.966377 -0.108338
C67   C     C_R   0.460651 0.733497 0.526817 0.038177
C68   C     C_R   0.963389 0.238853 0.453672 0.020424
C69   C     C_R   0.960676 0.233425 0.526810 0.038224
C70   C     C_R   0.508414 0.936521 0.538327 -0.177314
C71   C     C_R   0.513590 0.941470 0.463809 -0.164793
C72   C     C_R   0.008271 0.436577 0.538289 -0.177293
C73   C     C_R   0.013459 0.441512 0.463772 -0.164832
C74   C     C_3   0.471423 0.602656 0.447197 -0.274180
C75   C     C_3   0.474443 0.598645 0.528188 -0.264808
C76   C     C_3   0.971558 0.102556 0.447213 -0.274180
C77   C     C_3   0.477355 0.725456 0.033884 -0.108632
C78   C     C_3   0.974527 0.098583 0.528205 -0.264878
C79   C     C_R   0.254909 0.601844 0.418212 0.024474
C80   C     C_R   0.748801 0.618145 0.583788 0.024803
C81   C     C_R   0.754917 0.101952 0.418186 0.024459
C82   C     C_R   0.248873 0.118055 0.583739 0.024703
C83   C     C_R   0.227585 0.712307 0.443721 0.027384
C84   C     C_R   0.800272 0.684719 0.547740 0.029529
C85   C     C_R   0.727464 0.212299 0.443738 0.027497
C86   C     C_R   0.300456 0.184192 0.547616 0.029505
C87   C     C_R   0.234423 0.740364 0.515453 0.007971
C88   C     C_3   0.021880 0.224737 0.966436 -0.108316
C89   C     C_R   0.790871 0.713276 0.477121 0.009333
C90   C     C_R   0.734270 0.240283 0.515485 0.008221
C91   C     C_R   0.291034 0.212835 0.477027 0.009280
C92   C     C_R   0.298679 0.551948 0.536400 -0.154508
C93   C     C_R   0.671075 0.642835 0.480440 -0.164745
C94   C     C_R   0.798771 0.052091 0.536351 -0.154500
C95   C     C_R   0.171038 0.143560 0.480534 -0.164957
C96   C     C_R   0.294723 0.526565 0.464323 -0.174789
C97   C     C_R   0.681010 0.611561 0.552960 -0.169670
C98   C     C_R   0.794832 0.026779 0.464265 -0.174696
C99   C     C_3   0.977218 0.225590 0.033942 -0.108666
C100  C     C_R   0.181012 0.112087 0.553031 -0.169863
C101  C     C_3   0.153752 0.761786 0.438883 -0.268176
C102  C     C_3   0.877311 0.658837 0.538763 -0.264343
C103  C     C_3   0.653559 0.261485 0.438935 -0.268177
C104  C     C_3   0.377397 0.157677 0.538535 -0.264202
C105  C     C_3   0.160408 0.787622 0.517884 -0.273680
C106  C     C_3   0.866725 0.689508 0.460734 -0.268750
C107  C     C_3   0.660163 0.287125 0.517956 -0.273591
C108  C     C_3   0.366801 0.188556 0.460534 -0.268637
C109  C     C_R   0.260701 0.634606 0.851070 0.547401
C110  C     C_R   0.240085 0.573729 0.071882 0.018108
C111  C     C_R   0.739311 0.634692 0.148915 0.547681
C112  C     C_R   0.760709 0.134638 0.851088 0.547386
C113  C     C_R   0.239314 0.134681 0.148915 0.547642
C114  C     C_R   0.267904 0.658796 0.562431 0.028675
C115  C     C_R   0.728855 0.680979 0.440236 0.015166
C116  C     C_R   0.767886 0.158805 0.562424 0.028602
C117  C     C_R   0.228884 0.181064 0.440229 0.015076
C118  C     C_R   0.270835 0.049854 0.647172 0.541030
C119  C     C_R   0.729601 0.048516 0.352556 0.548780
C120  C     C_R   0.770831 0.549865 0.647176 0.541111
Cr1   Cr    Cr6+3 0.229640 0.835880 0.747370 0.999946
Cr2   Cr    Cr6+3 0.614230 0.677220 0.250660 1.001507
Cr3   Cr    Cr6+3 0.885770 0.177220 0.749340 1.006650
Cr4   Cr    Cr6+3 0.114230 0.177220 0.250660 1.001505
Cr5   Cr    Cr6+3 0.770360 0.835880 0.252630 0.996168
Cr6   Cr    Cr6+3 0.729640 0.335880 0.747370 0.999956
Cr7   Cr    Cr6+3 0.270360 0.335880 0.252630 0.996132
Cr8   Cr    Cr6+3 0.387390 0.989720 0.750850 1.003363
Cr9   Cr    Cr6+3 0.612610 0.989720 0.249150 1.000636
Cr10  Cr    Cr6+3 0.887390 0.489720 0.750850 1.003363
Cr11  Cr    Cr6+3 0.112610 0.489720 0.249150 1.000659
Cr12  Cr    Cr6+3 0.385770 0.677220 0.749340 1.006649
H1    H     H_    0.370198 0.826947 0.002037 0.115249
H2    H     H_    0.932556 0.043947 0.552139 0.144968
H3    H     H_    0.519791 0.568446 0.422343 0.149407
H4    H     H_    0.432460 0.544071 0.552149 0.145080
H5    H     H_    0.423407 0.560127 0.423279 0.140321
H6    H     H_    0.527492 0.576200 0.550219 0.125130
H7    H     H_    0.923583 0.059924 0.423270 0.140236
H8    H     H_    0.027564 0.076186 0.550272 0.125073
H9    H     H_    0.322806 0.484809 0.571978 0.136856
H10   H     H_    0.620783 0.628733 0.454669 0.132023
H11   H     H_    0.822950 0.984972 0.571907 0.136791
H12   H     H_    0.629537 0.825001 0.997994 0.115310
H13   H     H_    0.120618 0.130261 0.454871 0.132149
H14   H     H_    0.112618 0.692134 0.426537 0.152222
H15   H     H_    0.890060 0.560832 0.547802 0.167034
H16   H     H_    0.612509 0.191724 0.426524 0.152218
H17   H     H_    0.389838 0.059547 0.547517 0.166892
H18   H     H_    0.150159 0.846372 0.405855 0.147532
H19   H     H_    0.911709 0.725335 0.568162 0.133402
H20   H     H_    0.649857 0.346153 0.405985 0.147352
H21   H     H_    0.412023 0.223820 0.567931 0.133574
H22   H     H_    0.158066 0.885754 0.530419 0.144158
H23   H     H_    0.870174 0.327382 0.002039 0.115263
H24   H     H_    0.895464 0.773492 0.444773 0.126183
H25   H     H_    0.657616 0.385200 0.530582 0.143899
H26   H     H_    0.395685 0.272404 0.444594 0.126376
H27   H     H_    0.125344 0.729077 0.550311 0.149014
H28   H     H_    0.874184 0.608723 0.425437 0.167112
H29   H     H_    0.625208 0.228272 0.550323 0.148907
H30   H     H_    0.374034 0.107792 0.425171 0.167147
H31   H     H_    0.461564 0.009475 0.063862 0.115698
H32   H     H_    0.538868 0.008405 0.935805 0.116063
H33   H     H_    0.961740 0.509717 0.063765 0.115660
H34   H     H_    0.129511 0.324568 0.997999 0.115290
H35   H     H_    0.039047 0.508162 0.935710 0.116111
H36   H     H_    0.539554 0.641975 0.937601 0.129607
H37   H     H_    0.459503 0.643102 0.062879 0.129875
H38   H     H_    0.039320 0.141731 0.937711 0.129529
H39   H     H_    0.959270 0.143357 0.062988 0.129954
H40   H     H_    0.130196 0.625970 0.050192 0.143486
H41   H     H_    0.869681 0.626269 0.949722 0.143623
H42   H     H_    0.630193 0.125961 0.050198 0.143506
H43   H     H_    0.369705 0.126189 0.949732 0.143607
H44   H     H_    0.820130 0.857598 0.059375 0.173746
H45   H     H_    0.523319 0.015607 0.570251 0.126049
H46   H     H_    0.180318 0.857487 0.940683 0.173685
H47   H     H_    0.320130 0.357566 0.059375 0.173747
H48   H     H_    0.680323 0.357482 0.940683 0.173687
H49   H     H_    0.400408 0.454995 0.074042 0.125348
H50   H     H_    0.599825 0.454741 0.926054 0.125531
H51   H     H_    0.900412 0.955009 0.074055 0.125345
H52   H     H_    0.099827 0.954759 0.926048 0.125537
H53   H     H_    0.411995 0.474891 0.947466 0.137436
H54   H     H_    0.588279 0.474680 0.052647 0.137594
H55   H     H_    0.912004 0.974939 0.947482 0.137412
H56   H     H_    0.536645 0.022228 0.440471 0.134375
H57   H     H_    0.088278 0.974705 0.052641 0.137620
H58   H     H_    0.332842 0.374043 0.932884 0.145179
H59   H     H_    0.667651 0.373981 0.067176 0.145055
H60   H     H_    0.832852 0.874101 0.932889 0.145179
H61   H     H_    0.167641 0.873993 0.067174 0.145048
H62   H     H_    0.317087 0.441791 0.445954 0.135857
H63   H     H_    0.638823 0.571254 0.582650 0.112600
H64   H     H_    0.817269 0.942093 0.445867 0.135764
H65   H     H_    0.138769 0.072166 0.582801 0.112731
H66   H     H_    0.140302 0.637279 0.923408 0.131203
H67   H     H_    0.023118 0.515708 0.570202 0.126060
H68   H     H_    0.859664 0.637459 0.076501 0.131180
H69   H     H_    0.640304 0.137262 0.923415 0.131233
H70   H     H_    0.359674 0.137416 0.076508 0.131141
H71   H     H_    0.036461 0.522322 0.440426 0.134406
H72   H     H_    0.019971 0.068393 0.422407 0.149445
O1    O     O_R   0.214300 0.709080 0.827500 -0.528655
O2    O     O_R   0.543340 0.717710 0.330180 -0.532271
O3    O     O_R   0.956660 0.217710 0.669820 -0.520521
O4    O     O_R   0.043340 0.217710 0.330180 -0.532301
O5    O     O_R   0.320590 0.625770 0.672930 -0.511656
O6    O     O_R   0.679410 0.625770 0.327070 -0.507796
O7    O     O_R   0.820590 0.125770 0.672930 -0.511634
O8    O     O_R   0.179410 0.125770 0.327070 -0.507744
O9    O     O_3   0.334270 0.834280 0.749190 -0.283353
O10   O     O_3   0.665730 0.834280 0.250810 -0.283844
O11   O     O_3   0.834270 0.334280 0.749190 -0.283354
O12   O     O_R   0.785700 0.709080 0.172500 -0.528631
O13   O     O_3   0.165730 0.334280 0.250810 -0.283865
O14   O     O_R   0.236190 0.958390 0.823150 -0.502641
O15   O     O_R   0.763810 0.958390 0.176850 -0.502216
O16   O     O_R   0.736190 0.458390 0.823150 -0.502656
O17   O     O_R   0.263810 0.458390 0.176850 -0.502197
O18   O     O_R   0.332090 0.075280 0.831290 -0.533039
O19   O     O_R   0.667910 0.075280 0.168710 -0.533228
O20   O     O_R   0.832090 0.575280 0.831290 -0.533035
O21   O     O_R   0.167910 0.575280 0.168710 -0.533225
O22   O     O_R   0.446280 0.918040 0.826620 -0.501429
O23   O     O_R   0.714300 0.209080 0.827500 -0.528648
O24   O     O_R   0.553720 0.918040 0.173380 -0.502213
O25   O     O_R   0.946280 0.418040 0.826620 -0.501428
O26   O     O_R   0.053720 0.418040 0.173380 -0.502200
O27   O     O_R   0.457080 0.716270 0.831760 -0.521317
O28   O     O_R   0.542920 0.716270 0.168240 -0.521227
O29   O     O_R   0.957080 0.216270 0.831760 -0.521314
O30   O     O_R   0.042920 0.216270 0.168240 -0.521224
O31   O     O_R   0.320980 0.624440 0.823040 -0.505187
O32   O     O_R   0.679020 0.624440 0.176960 -0.504823
O33   O     O_R   0.820980 0.124440 0.823040 -0.505187
O34   O     O_R   0.285700 0.209080 0.172500 -0.528626
O35   O     O_R   0.179020 0.124440 0.176960 -0.504803
O36   O     O_R   0.213880 0.710510 0.665560 -0.515522
O37   O     O_R   0.786120 0.710510 0.334440 -0.520312
O38   O     O_R   0.713880 0.210510 0.665560 -0.515532
O39   O     O_R   0.286120 0.210510 0.334440 -0.520374
O40   O     O_R   0.235800 0.959720 0.673040 -0.517679
O41   O     O_R   0.764200 0.959720 0.326960 -0.525404
O42   O     O_R   0.735800 0.459720 0.673040 -0.517652
O43   O     O_R   0.264200 0.459720 0.326960 -0.525441
O44   O     O_R   0.331670 0.076720 0.669350 -0.520845
O45   O     O_R   0.445900 0.919370 0.676500 -0.503852
O46   O     O_R   0.668330 0.076720 0.330650 -0.524677
O47   O     O_R   0.831670 0.576720 0.669350 -0.520929
O48   O     O_R   0.168330 0.576720 0.330650 -0.524641
O49   O     O_R   0.554100 0.919370 0.323500 -0.504796
O50   O     O_R   0.945900 0.419370 0.676500 -0.503843
O51   O     O_R   0.054100 0.419370 0.323500 -0.504756
O52   O     O_R   0.456660 0.717710 0.669820 -0.520509

loop_
_geom_bond_atom_site_label_1
_geom_bond_atom_site_label_2
_ccdc_geom_bond_type
C38   C56   A    
C104  H17   S    
Cr1   O40   S    
Cr2   O32   S    
C41   H42   S    
C80   C120  S    
C34   C56   A    
Cr11  O48   S    
Cr3   O11   S    
C21   C66   S    
C36   C40   A    
C19   H23   S    
Cr1   O14   S    
C14   C18   S    
Cr5   O41   S    
Cr6   O23   S    
C95   H13   S    
C120  O47   A    
Cr1   O1    S    
C71   H56   S    
Cr9   O19   S    
C3    C79   S    
C13   C41   A    
C105  H27   S    
Cr10  O47   S    
C95   C117  A    
C15   C19   S    
C89   C115  A    
C73   H71   S    
C43   H47   S    
C34   C51   S    
C3    O43   A    
C29   C47   S    
C94   H11   S    
C60   C69   A    
C14   C21   S    
C30   C48   S    
C76   C78   S    
C90   C107  S    
C38   C42   A    
C47   H46   S    
C86   C91   A    
C40   H41   S    
C80   C97   A    
Cr5   O12   S    
C118  O44   A    
C15   C25   S    
C99   H39   S    
C20   C25   S    
C60   C72   A    
C16   H35   S    
C15   C16   S    
C12   C22   S    
C101  H18   S    
C92   C96   A    
C84   C102  S    
C6    O50   A    
C93   C115  A    
C5    O49   A    
Cr9   O10   S    
Cr2   O2    S    
C24   C29   A    
C87   C114  A    
C36   C53   A    
C45   H48   S    
C5    O2    A    
Cr3   O29   S    
C63   O25   A    
C25   C99   S    
C39   C110  A    
C49   H54   S    
C107  H29   S    
C118  O40   A    
C68   C69   A    
C65   C67   A    
Cr3   O7    S    
C12   C17   S    
C45   H50   S    
C56   C113  S    
C91   C117  A    
C13   C28   A    
Cr5   O37   S    
C2    C27   A    
C44   O20   A    
C90   C116  A    
C104  H21   S    
C50   H60   S    
C43   C48   S    
C59   C73   A    
C48   H58   S    
C85   C103  S    
C8    C114  S    
Cr8   O9    S    
C55   O17   A    
Cr4   O30   S    
C100  H65   S    
C53   C111  S    
C46   C50   S    
C23   C63   S    
C105  H22   S    
C9    O37   A    
C98   H64   S    
C112  O23   A    
C18   C22   S    
Cr4   O4    S    
C14   H32   S    
C54   C112  S    
C69   C78   S    
C120  O42   A    
C31   C49   S    
C50   H55   S    
C32   C54   A    
C107  H25   S    
Cr6   O16   S    
C26   C43   S    
C8    O36   A    
C11   O8    A    
C101  C105  S    
C74   H5    S    
C101  H14   S    
C88   H38   S    
C74   C75   S    
C27   C31   A    
C103  H16   S    
C9    C115  S    
C6    C60   S    
C28   C32   A    
C26   C110  A    
Cr7   O39   S    
C111  O12   A    
C4    O52   A    
C51   H61   S    
C119  O46   A    
Cr8   O18   S    
C80   C84   A    
Cr4   O35   S    
C94   C116  A    
C95   C100  A    
C58   C70   A    
C47   C51   S    
Cr4   O8    S    
Cr10  O25   S    
C82   C86   A    
C113  O35   A    
C108  H30   S    
C29   C34   A    
C43   H49   S    
C17   C21   S    
C65   C74   S    
Cr2   O10   S    
C13   C33   S    
C78   H8    S    
C1    O18   A    
Cr9   O49   S    
C25   C64   S    
Cr1   O9    S    
C46   H51   S    
C89   C106  S    
C19   C23   S    
Cr6   O38   S    
C39   H40   S    
C92   H9    S    
C35   C39   A    
C102  H15   S    
C22   C62   S    
C57   C71   A    
Cr5   O10   S    
Cr11  O21   S    
C37   H69   S    
C87   C105  S    
C45   C49   S    
C9    O6    A    
C16   C20   S    
C83   C87   A    
C28   C46   S    
C74   H3    S    
Cr2   O6    S    
C111  O32   A    
Cr3   O3    S    
Cr10  O11   S    
C63   O29   A    
C3    O48   A    
C109  O1    A    
C24   C42   A    
C78   H2    S    
C32   C50   S    
C6    O3    A    
C1    O14   A    
Cr8   O44   S    
C38   H70   S    
C103  H20   S    
C1    C24   S    
C37   C54   A    
C109  O31   A    
Cr11  O26   S    
Cr8   O22   S    
C113  O34   A    
C12   C14   S    
C26   C30   A    
C16   C23   S    
C106  H24   S    
C23   C88   S    
C55   C110  S    
C17   H1    S    
C7    O4    A    
C46   H44   S    
C83   C101  S    
C31   C53   A    
C67   C75   S    
C84   C89   A    
C82   C118  S    
Cr11  O51   S    
C8    O5    A    
C11   C117  S    
Cr12  O27   S    
C93   C97   A    
C104  C108  S    
C70   C71   A    
C10   C116  S    
C2    C44   S    
Cr7   O13   S    
C76   H7    S    
C66   C77   S    
C30   C52   A    
Cr9   O46   S    
C19   C99   S    
C10   O38   A    
Cr5   O15   S    
C7    O51   A    
C64   O30   A    
C75   H4    S    
C33   O15   A    
C21   C61   S    
C91   C108  S    
C10   O7    A    
Cr12  O5    S    
C36   H68   S    
C22   C77   S    
C57   C65   A    
C47   H52   S    
Cr10  O50   S    
C75   H6    S    
C51   H57   S    
C86   C104  S    
C4    O45   A    
C85   C90   A    
C76   H72   S    
C70   H45   S    
C55   O21   A    
C49   H59   S    
C66   H36   S    
C68   C76   S    
Cr1   O36   S    
Cr2   O28   S    
C102  H19   S    
C62   O28   A    
Cr8   O45   S    
C5    C57   S    
C11   O39   A    
C42   H43   S    
C20   H34   S    
C33   O19   A    
Cr12  O52   S    
C18   H12   S    
C119  O41   A    
C79   C96   A    
C64   O26   A    
C81   C119  S    
C12   H31   S    
C79   C83   A    
C17   C77   S    
C27   C45   S    
Cr6   O42   S    
Cr4   O13   S    
C52   C109  S    
C72   C73   A    
C106  H28   S    
C61   O22   A    
C20   C88   S    
Cr9   O24   S    
C96   H62   S    
C61   O27   A    
C102  C106  S    
C62   O24   A    
Cr10  O20   S    
C37   C41   A    
C18   C66   S    
Cr12  O31   S    
C44   O16   A    
C88   C99   S    
Cr6   O11   S    
Cr7   O17   S    
C82   C100  A    
C2    C40   A    
C58   C67   A    
C48   H53   S    
Cr7   O43   S    
C108  H26   S    
Cr7   O34   S    
C77   H37   S    
C112  O33   A    
C81   C98   A    
C4    C58   S    
C35   C52   A    
C94   C98   A    
C15   H33   S    
C59   C68   A    
C103  C107  S    
Cr12  O9    S    
Cr3   O33   S    
Cr11  O13   S    
C92   C114  A    
C81   C85   A    
C93   H10   S    
C7    C59   S    
C35   H66   S    
C72   H67   S    
C97   H63   S    
