data_mof_unit_50935.cif
_audit_creation_date              2013-03-05T16:00:13-0500
_audit_creation_method            fapswitch 2.2
_symmetry_space_group_name_H-M    P1
_symmetry_Int_Tables_number       1
_space_group_crystal_system       triclinic
_cell_length_a                    12.65812
_cell_length_b                    12.949939
_cell_length_c                    23.437418
_cell_angle_alpha                 91.514112
_cell_angle_beta                  102.859451
_cell_angle_gamma                 83.545424
_cell_volume                      3721.80078596

loop_
_atom_site_label
_atom_site_type_symbol
_atom_site_description
_atom_site_fract_x
_atom_site_fract_y
_atom_site_fract_z
_atom_type_partial_charge
O1    O     O_R   0.366740 0.627150 0.485570 -0.574485
O2    O     O_R   0.544830 0.662520 0.504870 -0.596076
C1    C     C_R   0.439388 0.691787 0.494146 0.884579
O3    O     O_R   0.410930 0.482340 0.574190 -0.589642
O4    O     O_R   0.589010 0.517710 0.593490 -0.582108
C2    C     C_R   0.503584 0.493551 0.611074 0.919107
Zn1   Zn    Zn3+2 0.381090 0.476380 0.487110 1.007078
Zn2   Zn    Zn3+2 0.618910 0.523620 0.512890 0.983953
O5    O     O_R   0.455170 0.337480 0.495130 -0.590690
O6    O     O_R   0.633260 0.372850 0.514430 -0.626058
O7    O     O_R   0.410990 0.482290 0.406510 -0.578027
O8    O     O_R   0.589070 0.517660 0.425810 -0.650117
C3    C     C_R   0.559569 0.308027 0.508617 0.875158
C4    C     C_R   0.498085 0.502492 0.389632 0.866558
C5    C     C_R   0.588303 0.475317 0.132889 0.524323
N1    N     N_R   0.505086 0.535908 0.149774 -0.345510
C6    C     C_R   0.429604 0.598532 0.111612 0.508819
C7    C     C_R   0.436569 0.602971 0.053277 -0.014154
C8    C     C_R   0.517696 0.536374 0.033599 -0.011301
C9    C     C_R   0.594133 0.469499 0.073298 -0.080935
C10   C     C_R   0.363473 0.671846 0.014359 -0.140692
C11   C     C_R   0.368867 0.674190 0.955983 -0.142017
C12   C     C_R   0.445306 0.605517 0.935084 -0.023138
C13   C     C_R   0.520380 0.536125 0.973879 -0.025719
C14   C     C_R   0.595858 0.465514 0.952582 -0.074351
C15   C     C_R   0.677575 0.403057 0.992496 -0.081838
C16   C     C_R   0.674684 0.402484 0.052497 -0.081262
C17   C     C_R   0.447125 0.603177 0.875762 0.553531
N2    N     N_R   0.513498 0.528212 0.855106 -0.331176
C18   C     C_R   0.582645 0.456889 0.891365 0.573723
O9    O     O_2   0.664951 0.422451 0.174306 -0.569521
O10   O     O_2   0.348375 0.656379 0.130392 -0.539607
H1    H     H_    0.301750 0.724245 0.028874 0.200301
H2    H     H_    0.310950 0.728018 0.926988 0.200186
O11   O     O_2   0.381652 0.673472 0.838687 -0.537869
O12   O     O_2   0.634544 0.375862 0.867569 -0.518476
C19   C     C_R   0.602679 0.534354 0.773474 0.021068
C20   C     C_R   0.607449 0.508334 0.715585 -0.117531
C21   C     C_R   0.510686 0.485888 0.675113 -0.124118
C22   C     C_R   0.418475 0.465730 0.696907 -0.092090
C23   C     C_R   0.418378 0.484582 0.756295 0.036827
C24   C     C_R   0.509152 0.520925 0.793610 0.335831
C25   C     C_R   0.527407 0.615153 0.247693 -0.050025
C26   C     C_R   0.525902 0.606681 0.307449 -0.139009
C27   C     C_R   0.492428 0.515772 0.327357 -0.151074
C28   C     C_R   0.460686 0.434656 0.288635 0.032711
C29   C     C_R   0.462434 0.443524 0.229408 0.130207
C30   C     C_R   0.497210 0.532300 0.209598 0.200937
C31   C     C_R   0.670231 0.079773 0.606995 -0.110569
H3    H     H_    0.728030 0.226906 0.597049 0.197897
H4    H     H_    0.735087 0.060247 0.644887 0.193319
C32   C     C_R   0.589540 0.200309 0.527668 -0.060168
C33   C     C_R   0.308879 0.835518 0.442932 0.045174
C34   C     C_R   0.268225 0.940665 0.439436 -0.123065
C35   C     C_R   0.324333 0.013317 0.475865 -0.029112
C36   C     C_R   0.425620 0.979130 0.513412 -0.049170
C37   C     C_R   0.446852 0.874681 0.529236 0.062487
C38   C     C_R   0.507116 0.043409 0.535752 0.061333
C39   C     C_R   0.586967 0.014490 0.587140 0.128318
C40   C     C_R   0.579207 0.921585 0.616373 -0.095428
C41   C     C_R   0.509299 0.849753 0.585976 0.023995
C42   C     C_R   0.514989 0.131202 0.504623 -0.236795
C43   C     C_R   0.669724 0.173431 0.578201 -0.165438
C44   C     C_R   0.397459 0.801656 0.489487 -0.098201
H5    H     H_    0.458431 0.149981 0.463264 0.137614
H6    H     H_    0.193114 0.965700 0.408384 0.181608
C45   C     C_R   0.081606 0.354654 0.411647 0.027886
H7    H     H_    0.870900 0.322263 0.398334 0.155150
N3    N     N_R   0.222200 0.444670 0.469780 -0.109096
C46   C     C_R   0.805653 0.624312 0.573780 0.205221
C47   C     C_R   0.916135 0.633246 0.598608 -0.095181
C48   C     C_R   0.994537 0.575573 0.574042 -0.213697
C49   C     C_R   0.965166 0.519172 0.521998 -0.004060
C50   C     C_R   0.853837 0.501963 0.503873 0.210676
C51   C     C_R   0.042566 0.473815 0.489729 -0.053699
C52   C     C_R   0.007933 0.401255 0.444446 0.098556
C53   C     C_R   0.899674 0.378183 0.431659 -0.227443
C54   C     C_R   0.824432 0.428004 0.460597 -0.158264
C55   C     C_R   0.151668 0.500143 0.497877 0.165794
C56   C     C_R   0.190116 0.375810 0.426565 0.241013
N4    N     N_R   0.776960 0.554790 0.529910 -0.114396
H8    H     H_    0.077732 0.573101 0.597420 0.180045
H9    H     H_    0.743910 0.405301 0.448832 0.205628
C57   C     C_2   0.561423 0.690245 0.349938 0.560636
H10   H     H_    0.517753 0.711545 0.384138 0.011432
O13   O     O_2   0.642669 0.732189 0.348902 -0.528686
N5    N     N_3   0.433257 0.341102 0.310585 -0.451298
H11   H     H_    0.490340 0.279697 0.303999 0.189383
H12   H     H_    0.356545 0.325846 0.286697 0.187631
N6    N     N_3   0.430404 0.362383 0.188438 -0.437666
H13   H     H_    0.349537 0.351534 0.187683 0.198191
H14   H     H_    0.480031 0.293606 0.202294 0.200495
C58   C     C_2   0.639231 0.899219 0.677723 0.384397
H15   H     H_    0.661319 0.819805 0.692961 0.043809
O14   O     O_2   0.660172 0.969249 0.712904 -0.527592
N7    N     N_3   0.257727 0.762633 0.401272 -0.409207
H16   H     H_    0.190020 0.799754 0.372254 0.195795
H17   H     H_    0.313542 0.734943 0.376113 0.170497
C59   C     C_2   0.267514 0.117762 0.483114 0.373092
H18   H     H_    0.308049 0.174982 0.512037 0.126305
O15   O     O_2   0.171778 0.139159 0.459385 -0.591734
N8    N     N_3   0.482875 0.763728 0.615714 -0.460357
H19   H     H_    0.449279 0.792988 0.650545 0.206961
H20   H     H_    0.552759 0.714630 0.633000 0.179454
N9    N     N_3   0.266554 0.331648 0.393653 -0.381758
H21   H     H_    0.270626 0.250764 0.395088 0.192789
H22   H     H_    0.236431 0.354583 0.350114 0.190725
N10   N     N_3   0.048109 0.288221 0.362378 -0.451032
H23   H     H_    0.986768 0.329924 0.331555 0.201525
H24   H     H_    0.017068 0.224162 0.376195 0.241051
N11   N     N_3   0.186419 0.593996 0.525939 -0.391304
H25   H     H_    0.223174 0.580953 0.569976 0.188768
H26   H     H_    0.123505 0.654969 0.519096 0.196188
N12   N     N_3   0.722191 0.685505 0.595113 -0.394342
H27   H     H_    0.733914 0.671054 0.639773 0.116036
H28   H     H_    0.731032 0.763545 0.589358 0.151802
C60   C     C_2   0.950355 0.701084 0.650155 0.409801
H29   H     H_    0.890562 0.747636 0.669391 0.051680
O16   O     O_2   0.046708 0.706400 0.671874 -0.548823
C61   C     C_2   0.769440 0.340717 0.973128 0.622670
H30   H     H_    0.792226 0.260259 0.986596 0.049331
O17   O     O_2   0.823547 0.380616 0.944424 -0.510461
C62   C     C_2   0.754676 0.329131 0.092398 0.456381
H31   H     H_    0.726247 0.273235 0.117583 0.107178
O18   O     O_2   0.852557 0.331708 0.097852 -0.540441
N13   N     N_3   0.694413 0.569750 0.813953 -0.423745
H32   H     H_    0.714503 0.637087 0.797140 0.175348
H33   H     H_    0.760715 0.512327 0.818418 0.240026
C63   C     C_2   0.716735 0.494654 0.701058 0.478819
H34   H     H_    0.776502 0.547815 0.718315 0.018650
O19   O     O_2   0.743481 0.419600 0.672738 -0.540431
C64   C     C_2   0.325405 0.416757 0.660597 0.443527
H35   H     H_    0.242363 0.445252 0.662562 0.044802
O20   O     O_2   0.341209 0.340387 0.630656 -0.534189
N14   N     N_3   0.328646 0.462554 0.780541 -0.431059
H36   H     H_    0.316860 0.384248 0.773305 0.204245
H37   H     H_    0.258457 0.508541 0.759241 0.215960
C65   C     C_2   0.558789 0.709271 0.223345 0.560548
H38   H     H_    0.601561 0.701706 0.187880 0.040657
O21   O     O_2   0.532475 0.796238 0.240411 -0.526671

loop_
_geom_bond_atom_site_label_1
_geom_bond_atom_site_label_2
_geom_bond_distance
_ccdc_geom_bond_type
C38   C42   1.391571 A    
N5    H11   1.045108 S    
C58   H15   1.083346 S    
C31   C43   1.402172 A    
N2    C24   1.431077 S    
C7    C10   1.401933 A    
C49   C50   1.419557 A    
N11   H25   1.043079 S    
C35   C36   1.415964 A    
N1    C30   1.429959 S    
N12   H27   1.042881 S    
N14   H36   1.045472 S    
C53   C54   1.381876 A    
C46   N12   1.421284 S    
Zn1   O7    2.012470 S    
N9    H22   1.045122 S    
C15   C16   1.415089 A    
N2    C18   1.367479 A    
C37   C41   1.412420 A    
C17   N2    1.362174 A    
C15   C61   1.488131 S    
C63   H34   1.084463 S    
O2    C1    1.315380 A    
C60   O16   1.221509 D    
C20   C21   1.425755 A    
C33   C44   1.417825 A    
C45   N10   1.436961 S    
C62   O18   1.221109 D    
C10   H1    1.083294 S    
C5    N1    1.365732 A    
C14   C18   1.409925 A    
N10   H23   1.045507 S    
C5    O9    1.348654 S    
C25   C65   1.488454 S    
N14   H37   1.045253 S    
C7    C8    1.414825 A    
C23   C24   1.399702 A    
C19   C24   1.397804 A    
C46   N4    1.363109 A    
O5    C3    1.303404 A    
C28   C29   1.401151 A    
C54   H9    1.067401 S    
C29   C30   1.401426 A    
C17   O11   1.349905 S    
C36   C38   1.400303 A    
N1    C6    1.361732 A    
C31   H4    1.080395 S    
N7    H17   1.045336 S    
C12   C13   1.415590 A    
C46   C47   1.406536 A    
C25   C30   1.408595 A    
C40   C58   1.488259 S    
C22   C64   1.485761 S    
C39   C40   1.423601 A    
C58   O14   1.220595 D    
C10   C11   1.386279 A    
C33   N7    1.439018 S    
H3    C43   1.083062 S    
C49   C51   1.433125 A    
O3    Zn1   1.992263 S    
C61   O17   1.221341 D    
C4    C27   1.459136 S    
C5    C9    1.414501 A    
C11   H2    1.083296 S    
C47   C60   1.488442 S    
Zn2   N4    2.035276 S    
C20   C63   1.487389 S    
C62   H31   1.085156 S    
C57   H10   1.084148 S    
C13   C14   1.410605 A    
O3    C2    1.313104 A    
C21   C22   1.425631 A    
C16   C62   1.487061 S    
C64   H35   1.084743 S    
C14   C15   1.421431 A    
C1    C44   1.459660 S    
C56   N9    1.429255 S    
O6    C3    1.306432 A    
C40   C41   1.423140 A    
O1    C1    1.291730 A    
C51   C52   1.426298 A    
C19   C20   1.402059 A    
C3    C32   1.458662 S    
N6    H14   1.045007 S    
C59   H18   1.084429 S    
Zn2   O8    1.992263 S    
C2    C21   1.488795 S    
N7    H16   1.045627 S    
C6    C7    1.392593 A    
C61   H30   1.085240 S    
N11   H26   1.044914 S    
C12   C17   1.395133 A    
C52   C53   1.400536 A    
N8    H20   1.038533 S    
C65   O21   1.220850 D    
Zn2   O6    1.940999 S    
C22   C23   1.407022 A    
C59   O15   1.219541 D    
O8    C4    1.300512 A    
N5    H12   1.044356 S    
C25   C26   1.412207 A    
C29   N6    1.435167 S    
N3    C55   1.356213 A    
C36   C37   1.392747 A    
C50   N4    1.371112 A    
C23   N14   1.436352 S    
C26   C27   1.418568 A    
C37   C44   1.407201 A    
C28   N5    1.435277 S    
H7    C53   1.081620 S    
Zn1   O5    1.926217 S    
C34   C35   1.398726 A    
N13   H33   1.045464 S    
C42   H5    1.084315 S    
O1    Zn1   1.941000 S    
O2    Zn2   1.926217 S    
C45   C56   1.396313 A    
C57   O13   1.220941 D    
C48   C49   1.404162 A    
C26   C57   1.489318 S    
C32   C43   1.400465 A    
Zn1   N3    2.047430 S    
O4    Zn2   2.012469 S    
N12   H28   1.044714 S    
C33   C34   1.398279 A    
C34   H6    1.083471 S    
C9    C16   1.424932 A    
C55   N11   1.432638 S    
N9    H21   1.043971 S    
C31   C39   1.415400 A    
C18   O12   1.349381 S    
C8    C9    1.416109 A    
C8    C13   1.407552 A    
C38   C39   1.417503 A    
C47   C48   1.392551 A    
C32   C42   1.385862 A    
C60   H29   1.083738 S    
N6    H13   1.044974 S    
O4    C2    1.310814 A    
N13   H32   1.045463 S    
O7    C4    1.305659 A    
N10   H24   1.044768 S    
C41   N8    1.437791 S    
N8    H19   1.045382 S    
C65   H38   1.085227 S    
C27   C28   1.403819 A    
C19   N13   1.436950 S    
C64   O20   1.221432 D    
C50   C54   1.394763 A    
C35   C59   1.482931 S    
C6    O10   1.350165 S    
C11   C12   1.400520 A    
N3    C56   1.355202 A    
C45   C52   1.411685 A    
C51   C55   1.430025 A    
C48   H8    1.070862 S    
C63   O19   1.221396 D    
