data_mof_unit_52144.cif
_audit_creation_date              2012-10-26T19:35:13-0400
_audit_creation_method            fapswitch 2.2
_symmetry_space_group_name_H-M    P1
_symmetry_Int_Tables_number       1
_space_group_crystal_system       triclinic
_cell_length_a                    10.809741
_cell_length_b                    10.826977
_cell_length_c                    9.545272
_cell_angle_alpha                 90.028139
_cell_angle_beta                  89.927685
_cell_angle_gamma                 89.98508
_cell_volume                      1117.14719144

loop_
_atom_site_label
_atom_site_type_symbol
_atom_type_description
_atom_site_fract_x
_atom_site_fract_y
_atom_site_fract_z
_atom_type_partial_charge
C1    C     C_R   0.497369 0.262317 0.499821 0.675321
C2    C     C_R   0.483453 0.935615 0.371111 -0.143121
C3    C     C_R   0.486021 0.870765 0.498728 0.011466
C4    C     C_R   0.262621 0.494796 0.500206 0.603412
C5    C     C_R   0.469509 0.936401 0.623230 0.075254
C6    C     C_3   0.537833 0.931630 0.759038 0.694460
C7    C     C_3   0.535015 0.071783 0.760373 -0.153462
C8    C     C_R   0.568784 0.584520 0.073621 0.178767
C9    C     C_R   0.424166 0.423878 0.074493 -0.012599
C10   C     C_R   0.424140 0.423885 0.925615 -0.011079
C11   C     C_R   0.569064 0.584241 0.926177 0.236817
C12   C     C_R   0.065337 0.384790 0.563993 -0.031877
C13   C     C_3   0.706283 0.598280 0.920740 -0.269459
C14   C     C_3   0.705806 0.599563 0.079484 -0.257510
C15   C     C_R   0.498047 0.737681 0.499894 0.579573
C16   C     C_R   0.737493 0.496174 0.499859 0.672168
C17   C     C_R   0.127764 0.282447 0.624931 0.363550
C18   C     C_R   0.062039 0.184815 0.683532 -0.125870
C19   C     C_R   0.934082 0.183991 0.679674 -0.117139
C20   C     C_R   0.870105 0.281252 0.618071 0.354037
C21   C     C_R   0.933893 0.384718 0.561899 -0.076192
C22   C     C_R   0.129006 0.485123 0.500550 -0.039228
C23   C     C_R   0.064577 0.579988 0.434156 -0.119385
C24   C     C_R   0.937021 0.581074 0.434006 0.332656
C25   C     C_R   0.871237 0.486092 0.499275 0.017053
C26   C     C_R   0.468661 0.063587 0.623351 -0.032898
C27   C     C_R   0.484821 0.129263 0.498760 0.055561
C28   C     C_R   0.482834 0.064321 0.371134 -0.140002
Cu1   Cu    Cu3+1 0.499990 0.499980 0.640670 1.089192
Cu2   Cu    Cu3+1 0.500010 0.500020 0.359330 1.005779
F1    F     F_    0.655999 0.883560 0.746312 -0.627606
F2    F     F_    0.252151 0.272197 0.625174 -0.661357
F3    F     F_    0.746256 0.269117 0.608589 -0.664492
F4    F     F_    0.877138 0.677446 0.373146 -0.630364
F5    F     F_    0.469304 0.878452 0.865679 -0.620958
H1    H     H_    0.113818 0.655681 0.384876 0.155364
H2    H     H_    0.735074 0.687751 0.874289 0.216194
H3    H     H_    0.733015 0.690257 0.124497 0.201876
H4    H     H_    0.487478 0.112194 0.271653 0.145337
H5    H     H_    0.488423 0.887721 0.271602 0.173929
H6    H     H_    0.475298 0.110981 0.844259 0.129491
H7    H     H_    0.628110 0.114279 0.751572 0.184811
H8    H     H_    0.364663 0.360440 0.130414 0.126341
H9    H     H_    0.364608 0.360458 0.869867 0.162376
H10   H     H_    0.753749 0.515801 0.876718 0.151844
H11   H     H_    0.753792 0.518276 0.125267 0.170257
H12   H     H_    0.111045 0.107564 0.729432 0.159190
H13   H     H_    0.883916 0.105920 0.722130 0.174557
N1    N     N_R   0.500790 0.500930 0.147930 -0.248077
N2    N     N_R   0.500790 0.500890 0.852020 -0.243134
O1    O     O_R   0.500000 0.319640 0.618810 -0.433299
O2    O     O_R   0.500010 0.319680 0.381230 -0.527443
O3    O     O_R   0.319640 0.499980 0.618820 -0.461268
O4    O     O_R   0.319650 0.500020 0.381230 -0.519292
O5    O     O_R   0.499990 0.680320 0.618770 -0.455703
O6    O     O_R   0.500000 0.680360 0.381190 -0.512090
O7    O     O_R   0.680350 0.499980 0.618770 -0.477040
O8    O     O_R   0.680360 0.500020 0.381180 -0.484688

loop_
_geom_bond_atom_site_label_1
_geom_bond_atom_site_label_2
_ccdc_geom_bond_type
C12   C17   A    
C2    C28   A    
C23   C24   A    
C24   C25   A    
Cu1   Cu2   S    
C12   C22   A    
C4    O3    A    
C14   H3    S    
Cu2   O4    S    
C9    C10   A    
C13   H2    S    
C19   C20   A    
C16   O7    A    
C15   O6    A    
C20   C21   A    
C2    C3    A    
C3    C5    A    
C3    C15   S    
C14   H11   S    
C11   N2    A    
C16   O8    A    
C13   C14   S    
C18   H12   S    
C13   H10   S    
C1    O1    A    
C26   C27   A    
C6    C7    S    
C7    C26   S    
Cu1   O3    S    
C8    C11   A    
C20   F3    S    
Cu2   O8    S    
C8    N1    A    
Cu2   N1    S    
Cu1   O7    S    
C6    F1    S    
C4    C22   S    
Cu1   N2    S    
C7    H6    S    
C5    C6    S    
C1    O2    A    
C9    H8    S    
C10   H9    S    
C5    C26   A    
C10   N2    A    
C2    H5    S    
C11   C13   S    
C9    N1    A    
C6    F5    S    
C17   C18   A    
C23   H1    S    
Cu1   O1    S    
C7    H7    S    
C16   C25   S    
C1    C27   S    
C17   F2    S    
C21   C25   A    
C19   H13   S    
C18   C19   A    
C8    C14   S    
Cu1   O5    S    
C28   H4    S    
C4    O4    A    
C22   C23   A    
Cu2   O6    S    
C12   C21   A    
C24   F4    S    
Cu2   O2    S    
C27   C28   A    
C15   O5    A    
