data_mof_unit_53407.cif
_audit_creation_date              2012-12-10T19:00:16-0500
_audit_creation_method            fapswitch 2.2
_symmetry_space_group_name_H-M    P1
_symmetry_Int_Tables_number       1
_space_group_crystal_system       triclinic
_cell_length_a                    9.539876
_cell_length_b                    10.831503
_cell_length_c                    13.579149
_cell_angle_alpha                 90.648075
_cell_angle_beta                  73.349315
_cell_angle_gamma                 90.377055
_cell_volume                      1344.22073149

loop_
_atom_site_label
_atom_site_type_symbol
_atom_type_description
_atom_site_fract_x
_atom_site_fract_y
_atom_site_fract_z
_atom_type_partial_charge
C1    C     C_R   0.499386 0.737649 0.502616 0.790974
C2    C     C_R   0.382406 0.541255 0.810664 -0.103078
C3    C     C_R   0.368230 0.935249 0.517590 0.120308
C4    C     C_R   0.423820 0.513648 0.698805 0.800778
C5    C     C_R   0.495646 0.870669 0.513954 -0.094247
C6    C     C_R   0.618008 0.936570 0.524591 -0.219315
C7    C     C_R   0.617865 0.065360 0.523846 -0.214966
C8    C     C_R   0.495417 0.129056 0.512365 -0.100460
C9    C     C_R   0.368280 0.062394 0.516369 0.135181
C10   C     C_3   0.273077 0.065102 0.446278 -0.485433
C11   C     C_3   0.271438 0.925239 0.448832 -0.456979
C12   C     C_R   0.436644 0.539401 0.978118 0.073766
C13   C     C_R   0.941163 0.401223 0.461363 0.266832
C14   C     C_R   0.907442 0.592291 0.546377 -0.093376
C15   C     C_R   0.056048 0.592000 0.546844 -0.085142
C16   C     C_R   0.499092 0.262204 0.501832 0.810924
C17   C     C_R   0.088643 0.400955 0.461647 0.256804
C18   C     C_3   0.137396 0.353438 0.353977 -0.506748
C19   C     C_3   0.978664 0.354028 0.353699 -0.516915
C20   C     C_R   0.577304 0.499786 0.300793 0.802646
C21   C     C_R   0.795897 0.464034 0.024517 -0.205104
C22   C     C_R   0.619241 0.498545 0.188593 -0.064323
C23   C     C_R   0.486118 0.545893 0.868625 0.044018
C24   C     C_R   0.234337 0.558973 0.861383 -0.231243
C25   C     C_R   0.186407 0.565561 0.967326 -0.201629
C26   C     C_R   0.282207 0.545316 0.026186 0.169094
C27   C     C_R   0.544870 0.522933 0.031930 0.084594
C28   C     C_R   0.692643 0.500038 0.975268 0.163659
C29   C     C_R   0.738676 0.522305 0.870828 -0.252360
C30   C     C_R   0.638181 0.555602 0.820680 -0.187913
C31   C     C_R   0.515025 0.531923 0.139106 -0.223267
C32   C     C_R   0.758758 0.461418 0.130959 -0.200185
Cu1   Cu    Cu3+1 0.359330 0.500020 0.500010 0.941372
Cu2   Cu    Cu3+1 0.640670 0.499980 0.499990 0.938321
H1    H     H_    0.839612 0.432865 0.167822 0.141819
H2    H     H_    0.183389 0.259372 0.347870 0.191808
H3    H     H_    0.955840 0.422616 0.300286 0.211469
H4    H     H_    0.853927 0.520041 0.828608 0.141605
H5    H     H_    0.933318 0.260122 0.348729 0.195236
H6    H     H_    0.905393 0.438176 0.980218 0.135984
H7    H     H_    0.415237 0.571927 0.185943 0.189559
H8    H     H_    0.153775 0.564117 0.819276 0.159839
H9    H     H_    0.071135 0.577950 0.005005 0.147409
H10   H     H_    0.683885 0.591413 0.744792 0.176399
H11   H     H_    0.716128 0.889285 0.528102 0.157905
H12   H     H_    0.715923 0.114201 0.527082 0.162905
H13   H     H_    0.148340 0.444345 0.138132 0.223303
H14   H     H_    0.153318 0.596727 0.166104 0.215350
H15   H     H_    0.164382 0.106604 0.483942 0.196542
H16   H     H_    0.331671 0.101855 0.369274 0.194485
H17   H     H_    0.162263 0.886149 0.489064 0.190485
H18   H     H_    0.326697 0.881584 0.373237 0.201803
H19   H     H_    0.838048 0.668546 0.581897 0.125085
H20   H     H_    0.097274 0.667476 0.583464 0.135620
H21   H     H_    0.207307 0.420968 0.301364 0.245266
N1    N     N_R   0.852320 0.499070 0.499340 -0.183072
N2    N     N_R   0.148230 0.499110 0.499340 -0.183762
N3    N     N_3   0.217437 0.520896 0.132620 -0.647035
O1    O     O_R   0.381190 0.680360 0.500000 -0.587457
O2    O     O_R   0.618780 0.680320 0.499990 -0.593580
O3    O     O_R   0.323230 0.500000 0.650990 -0.582975
O4    O     O_R   0.560820 0.499960 0.650980 -0.590582
O5    O     O_R   0.381220 0.319680 0.500010 -0.574951
O6    O     O_R   0.618810 0.319640 0.500000 -0.583935
O7    O     O_R   0.439180 0.500040 0.349020 -0.586916
O8    O     O_R   0.676770 0.500000 0.349010 -0.582198

loop_
_geom_bond_atom_site_label_1
_geom_bond_atom_site_label_2
_ccdc_geom_bond_type
C29   H4    S    
C2    C4    S    
H14   N3    S    
C23   C30   A    
Cu2   N1    S    
C6    C7    A    
C3    C9    A    
C6    H11   S    
C24   H8    S    
C9    C10   S    
C14   N1    A    
C13   C17   A    
Cu1   O5    S    
C13   N1    A    
C30   H10   S    
C22   C31   A    
C25   H9    S    
Cu2   O6    S    
Cu1   Cu2   S    
Cu1   O7    S    
C7    C8    A    
Cu1   O1    S    
C31   H7    S    
H13   N3    S    
Cu2   O2    S    
C15   N2    A    
C12   C23   A    
Cu2   O8    S    
C29   C30   A    
C21   H6    S    
C22   C32   A    
C18   H21   S    
C1    C5    S    
C19   H5    S    
C20   O8    A    
C28   C29   A    
C16   O5    A    
C21   C28   A    
C20   C22   S    
C17   C18   S    
C2    C23   A    
C1    O1    A    
C2    C24   A    
C5    C6    A    
C21   C32   A    
C11   H17   S    
C10   C11   S    
C13   C19   S    
C12   C27   A    
C27   C31   A    
C10   H16   S    
C7    H12   S    
C4    O4    A    
C20   O7    A    
Cu2   O4    S    
C14   H19   S    
C3    C11   S    
C24   C25   A    
Cu1   O3    S    
C15   H20   S    
C8    C16   S    
C1    O2    A    
C17   N2    A    
C27   C28   A    
C19   H3    S    
C14   C15   A    
C18   C19   S    
Cu1   N2    S    
C11   H18   S    
C16   O6    A    
C25   C26   A    
C10   H15   S    
C18   H2    S    
C4    O3    A    
C26   N3    S    
C32   H1    S    
C12   C26   A    
C8    C9    A    
C3    C5    A    
