data_mof_unit_49494.cif
_audit_creation_date              2013-03-05T15:53:46-0500
_audit_creation_method            fapswitch 2.2
_symmetry_space_group_name_H-M    P1
_symmetry_Int_Tables_number       1
_space_group_crystal_system       triclinic
_cell_length_a                    10.678931
_cell_length_b                    10.716229
_cell_length_c                    9.910383
_cell_angle_alpha                 90.139723
_cell_angle_beta                  90.191481
_cell_angle_gamma                 92.821413
_cell_volume                      1132.73817768

loop_
_atom_site_label
_atom_site_type_symbol
_atom_site_description
_atom_site_fract_x
_atom_site_fract_y
_atom_site_fract_z
_atom_type_partial_charge
O1    O     O_R   0.500000 0.316780 0.614690 -0.687052
O2    O     O_R   0.499990 0.316750 0.385360 -0.481974
C1    C     C_R   0.511859 0.260802 0.500722 0.942103
O3    O     O_R   0.314800 0.499990 0.614670 -0.610629
O4    O     O_R   0.314790 0.499970 0.385330 -0.549846
C2    C     C_R   0.257768 0.500838 0.500579 0.898779
Zn1   Zn    Zn3+2 0.500010 0.500020 0.653130 0.974112
Zn2   Zn    Zn3+2 0.499990 0.499980 0.346870 1.029918
O5    O     O_R   0.500010 0.683250 0.614640 -0.576592
O6    O     O_R   0.500000 0.683220 0.385310 -0.628158
O7    O     O_R   0.685210 0.500030 0.614670 -0.663264
O8    O     O_R   0.685200 0.500010 0.385330 -0.632420
C3    C     C_R   0.488897 0.739131 0.500600 0.957855
C4    C     C_R   0.741816 0.497249 0.500737 0.818092
C5    C     C_3   0.070608 0.492250 0.653859 -0.220291
H1    H     H_    0.107894 0.405752 0.697764 0.197140
C6    C     C_3   0.926509 0.479732 0.652459 -0.181533
H2    H     H_    0.888884 0.556662 0.714113 0.086771
H3    H     H_    0.910432 0.699454 0.522632 0.158047
C7    C     C_3   0.073428 0.618394 0.427137 -0.184938
C8    C     C_3   0.066849 0.384207 0.427036 -0.386310
C9    C     C_3   0.121006 0.502252 0.503891 -0.034243
H4    H     H_    0.106558 0.378788 0.323861 0.221289
H5    H     H_    0.090982 0.297641 0.481094 0.217745
C10   C     C_3   0.877918 0.496146 0.504151 0.124759
C11   C     C_3   0.931344 0.624143 0.449593 -0.523678
C12   C     C_3   0.923751 0.389532 0.413550 -0.373755
H6    H     H_    0.877321 0.297851 0.440209 0.208326
H7    H     H_    0.899256 0.407760 0.306302 0.183185
H8    H     H_    0.087209 0.601435 0.317104 0.207232
H9    H     H_    0.886006 0.647834 0.352183 0.195029
C13   C     C_R   0.553351 0.115103 0.754877 -0.110626
H10   H     H_    0.610882 0.200676 0.762646 0.178632
C14   C     C_R   0.517011 0.056561 0.874928 -0.240832
H11   H     H_    0.541173 0.099920 0.970916 0.218056
C15   C     C_R   0.444292 0.945473 0.870679 -0.209411
H12   H     H_    0.408193 0.904300 0.963235 0.191051
C16   C     C_R   0.419802 0.886298 0.747165 0.658344
C17   C     C_R   0.469907 0.938323 0.625975 -0.056862
C18   C     C_R   0.517602 0.061974 0.628420 -0.042407
C19   C     C_R   0.524592 0.127429 0.503953 -0.240365
C20   C     C_R   0.519880 0.062353 0.381082 0.628415
H13   H     H_    0.505093 0.886524 0.285699 0.194773
C21   C     C_R   0.500541 0.935350 0.381333 -0.242140
C22   C     C_R   0.477624 0.872278 0.502594 -0.155595
H14   H     H_    0.639515 0.644191 0.126242 0.137161
C23   C     C_R   0.331722 0.326937 0.131553 0.676369
C24   C     C_R   0.253773 0.246008 0.055448 -0.216891
H15   H     H_    0.189437 0.179817 0.105166 0.189997
C25   C     C_R   0.256473 0.249541 0.917087 -0.300631
H16   H     H_    0.194853 0.186743 0.858660 0.202105
C26   C     C_R   0.337762 0.333987 0.853181 -0.113377
H17   H     H_    0.332297 0.331343 0.746575 0.217004
C27   C     C_R   0.419668 0.417160 0.925425 0.142555
C28   C     C_R   0.418480 0.415914 0.070262 0.042416
N1    N     N_R   0.498810 0.498800 0.142780 -0.102268
C29   C     C_R   0.576756 0.579321 0.072088 -0.109116
H18   H     H_    0.639462 0.644111 0.875690 0.132093
C30   C     C_R   0.576712 0.579237 0.929062 -0.081599
N2    N     N_R   0.498760 0.498720 0.857170 -0.096441
C31   C     C_2   0.113064 0.598434 0.747482 0.484243
H19   H     H_    0.076686 0.690233 0.735962 0.057490
O9    O     O_2   0.181739 0.579605 0.843257 -0.517017
F1    F     F_    0.536320 0.120395 0.260224 -0.672336
F2    F     F_    0.339232 0.784548 0.745903 -0.658972
F3    F     F_    0.315018 0.312086 0.263579 -0.662600
C32   C     C_2   0.878177 0.359546 0.720312 0.388347
H20   H     H_    0.809003 0.363941 0.799988 0.076527
O10   O     O_2   0.914685 0.257824 0.686820 -0.600760
C33   C     C_2   0.142608 0.741918 0.457717 0.392254
H21   H     H_    0.134052 0.787982 0.554037 0.096221
O11   O     O_2   0.207381 0.793678 0.371108 -0.559508

loop_
_geom_bond_atom_site_label_1
_geom_bond_atom_site_label_2
_geom_bond_distance
_ccdc_geom_bond_type
C6    H2    1.116336 S    
O4    Zn2   2.015377 S    
C25   C26   1.379385 A    
H13   C21   1.083874 S    
C20   C21   1.366494 A    
C5    C6    1.538078 S    
C33   H21   1.079793 S    
C12   H7    1.113756 S    
C19   C20   1.401298 A    
C23   F3    1.330004 S    
C23   C24   1.391204 A    
C16   F2    1.355316 S    
Zn2   O8    2.012971 S    
C17   C22   1.415987 A    
C6    C10   1.570221 S    
C13   H10   1.080825 S    
Zn2   N1    2.022612 S    
C28   N1    1.399670 A    
C24   C25   1.372186 A    
O2    C1    1.300959 A    
C8    C12   1.537394 S    
C30   N2    1.366529 A    
H14   C29   1.081823 S    
C27   N2    1.367062 A    
C8    C9    1.560502 S    
N1    C29   1.365422 A    
Zn1   O7    2.015378 S    
C7    C33   1.513304 S    
C31   H19   1.081462 S    
C7    C11   1.538482 S    
C15   H12   1.082711 S    
O3    Zn1   2.012968 S    
C15   C16   1.395207 A    
C24   H15   1.083483 S    
C10   C11   1.558173 S    
C26   C27   1.409984 A    
O6    C3    1.297333 A    
C25   H16   1.083115 S    
C14   C15   1.389428 A    
C13   C18   1.418608 A    
C4    C10   1.454343 S    
C5    C31   1.517398 S    
O4    C2    1.296370 A    
O7    C4    1.283504 A    
O2    Zn2   2.001155 S    
C6    C32   1.522657 S    
O3    C2    1.282751 A    
C29   C30   1.417447 A    
C7    C9    1.565268 S    
C17   C18   1.396109 A    
C32   H20   1.085607 S    
C2    C9    1.461773 S    
C20   F1    1.358896 S    
Zn1   N2    2.022282 S    
C11   H9    1.113990 S    
C16   C17   1.420499 A    
C26   H17   1.058155 S    
C3    C22   1.437891 S    
C23   C28   1.433909 A    
C14   H11   1.082500 S    
C5    C9    1.584461 S    
C8    H5    1.113122 S    
C32   O10   1.221221 D    
C12   H6    1.111335 S    
Zn1   O5    2.001155 S    
H3    C11   1.114055 S    
O5    C3    1.288174 A    
C27   C28   1.435580 A    
C18   C19   1.420846 A    
C7    H8    1.116492 S    
O1    C1    1.287130 A    
H18   C30   1.081860 S    
O1    Zn1   1.999337 S    
C8    H4    1.110732 S    
C33   O11   1.221217 D    
Zn2   O6    1.999336 S    
C1    C19   1.442779 S    
C21   C22   1.396624 A    
C5    H1    1.115441 S    
O8    C4    1.292990 A    
C31   O9    1.220797 D    
C10   C12   1.550505 S    
C13   C14   1.393709 A    
