data_mof_unit_65061.cif
_audit_creation_date              2012-12-10T19:59:37-0500
_audit_creation_method            fapswitch 2.2
_symmetry_space_group_name_H-M    P1
_symmetry_Int_Tables_number       1
_space_group_crystal_system       triclinic
_cell_length_a                    32.072901
_cell_length_b                    32.069659
_cell_length_c                    21.838642
_cell_angle_alpha                 90.542453
_cell_angle_beta                  89.563128
_cell_angle_gamma                 90.225181
_cell_volume                      22460.6796265

loop_
_atom_site_label
_atom_site_type_symbol
_atom_type_description
_atom_site_fract_x
_atom_site_fract_y
_atom_site_fract_z
_atom_type_partial_charge
C1    C     C_R   0.419323 0.999928 0.500237 0.869357
C2    C     C_R   0.999772 0.293252 0.498912 0.132068
C3    C     C_R   0.968056 0.483302 0.219275 0.015435
C4    C     C_R   0.477548 0.969269 0.780636 0.016353
C5    C     C_R   0.968418 0.521518 0.781332 0.018630
C6    C     C_R   0.523122 0.031047 0.780983 0.015572
C7    C     C_R   0.031422 0.478152 0.780325 0.014996
C8    C     C_R   0.023104 0.469404 0.718598 0.016954
C9    C     C_R   0.531453 0.022527 0.719080 0.016202
C10   C     C_R   0.976874 0.530329 0.719762 0.014518
C11   C     C_R   0.468911 0.977995 0.719279 0.015801
C12   C     C_R   0.976310 0.472739 0.279993 0.016325
C13   C     C_R   0.706799 0.000222 0.499630 0.116030
C14   C     C_R   0.468951 0.022285 0.281395 0.017015
C15   C     C_R   0.031623 0.526143 0.282797 0.020003
C16   C     C_R   0.530592 0.977031 0.280218 0.015485
C17   C     C_R   0.499723 0.999616 0.186514 -0.192009
C18   C     C_R   0.999920 0.504697 0.186508 -0.191378
C19   C     C_R   0.500377 0.000122 0.813470 -0.192552
C20   C     C_R   0.999781 0.499686 0.813488 -0.192293
C21   C     C_R   0.999844 0.499762 0.686525 -0.194347
C22   C     C_R   0.500063 0.000397 0.686520 -0.191909
C23   C     C_R   0.002729 0.499671 0.313488 -0.199509
C24   C     C_R   0.000347 0.706777 0.498330 0.116951
C25   C     C_R   0.499716 0.999596 0.313474 -0.192724
C26   C     C_R   0.227476 0.965951 0.523940 -0.187423
C27   C     C_R   0.030313 0.228277 0.532052 -0.200200
C28   C     C_R   0.772127 0.034036 0.525278 -0.187364
C29   C     C_R   0.962621 0.771972 0.494277 -0.188314
C30   C     C_R   0.772219 0.966163 0.475311 -0.187326
C31   C     C_R   0.969092 0.227236 0.467787 -0.199105
C32   C     C_R   0.228175 0.033660 0.475367 -0.187151
C33   C     C_R   0.037981 0.772363 0.502778 -0.184680
C34   C     C_R   0.727319 0.469562 0.032769 -0.201246
C35   C     C_R   0.793201 0.500418 0.001999 0.125497
C36   C     C_R   0.533543 0.728243 0.024928 -0.187510
C37   C     C_R   0.272302 0.532381 0.032881 -0.187964
C38   C     C_R   0.467709 0.272208 0.027791 -0.186701
C39   C     C_R   0.271929 0.467804 0.974164 -0.187256
C40   C     C_R   0.465893 0.727410 0.976014 -0.187155
C41   C     C_R   0.728221 0.531552 0.970116 -0.186838
C42   C     C_R   0.532020 0.272193 0.968763 -0.200547
C43   C     C_R   0.206335 0.999798 0.499454 0.069714
C44   C     C_R   0.999674 0.206281 0.500270 0.073193
C45   C     C_R   0.793664 0.000060 0.500507 0.069738
C46   C     C_R   0.499723 0.793201 0.999716 0.116032
C47   C     C_R   0.000286 0.793660 0.498519 0.071092
C48   C     C_R   0.706292 0.500397 0.000840 0.071159
C49   C     C_R   0.499719 0.706336 0.000712 0.069577
C50   C     C_R   0.293617 0.500188 0.002918 0.068954
C51   C     C_R   0.499860 0.293686 0.998362 0.071323
C52   C     C_R   0.271768 0.034054 0.475477 0.169212
C53   C     C_R   0.968668 0.270778 0.466701 0.173369
C54   C     C_R   0.728632 0.965851 0.474617 0.168851
C55   C     C_R   0.038434 0.728765 0.502785 0.161421
C56   C     C_R   0.728537 0.034502 0.525115 0.169474
C57   C     C_R   0.206719 0.500010 0.004743 0.118386
C58   C     C_R   0.030833 0.271827 0.531794 0.175195
C59   C     C_R   0.271063 0.965568 0.524566 0.169051
C60   C     C_R   0.962225 0.728378 0.494182 0.167883
C61   C     C_R   0.771799 0.531985 0.970457 0.167957
C62   C     C_R   0.465506 0.770997 0.975261 0.168463
C63   C     C_R   0.228341 0.467324 0.974789 0.169461
C64   C     C_R   0.532621 0.228631 0.968461 0.176092
C65   C     C_R   0.228691 0.532646 0.034149 0.171410
C66   C     C_R   0.533932 0.771837 0.024694 0.169587
C67   C     C_R   0.770868 0.469199 0.033928 0.175832
C68   C     C_R   0.500204 0.206766 0.998724 0.123923
C69   C     C_R   0.467466 0.228627 0.028219 0.167565
C70   C     C_3   0.592899 0.982875 0.354346 -0.406811
C71   C     C_3   0.634119 0.000397 0.329701 -0.878428
C72   C     C_3   0.051864 0.580988 0.364493 -0.358665
C73   C     C_3   0.056153 0.626143 0.343263 -0.909744
C74   C     C_3   0.406428 0.016247 0.356085 -0.407769
C75   C     C_3   0.365736 0.998115 0.330943 -0.877224
C76   C     C_3   0.977243 0.409205 0.352458 -0.403074
C77   C     C_3   0.990011 0.366504 0.326843 -0.879977
C78   C     C_3   0.406707 0.984157 0.645237 -0.407525
C79   C     C_1   0.161902 0.999866 0.499308 -0.040117
C80   C     C_3   0.365734 0.002089 0.670123 -0.877652
C81   C     C_3   0.981259 0.592327 0.644923 -0.403334
C82   C     C_3   0.996906 0.634720 0.668140 -0.874483
C83   C     C_3   0.593717 0.015674 0.643888 -0.408637
C84   C     C_3   0.634197 0.997076 0.668061 -0.875151
C85   C     C_3   0.018226 0.406938 0.643385 -0.404827
C86   C     C_3   0.001515 0.365460 0.667714 -0.872176
C87   C     C_3   0.093257 0.485420 0.855360 -0.406044
C88   C     C_3   0.133905 0.504661 0.831492 -0.881403
C89   C     C_3   0.517736 0.093348 0.856435 -0.406516
C90   C     C_1   0.999763 0.161868 0.500675 -0.039866
C91   C     C_3   0.501059 0.134832 0.832874 -0.868912
C92   C     C_3   0.905779 0.513096 0.855206 -0.411228
C93   C     C_3   0.866777 0.492324 0.828702 -0.875535
C94   C     C_3   0.483137 0.906976 0.854472 -0.406673
C95   C     C_3   0.500591 0.865838 0.829355 -0.878867
C96   C     C_3   0.906679 0.493660 0.144817 -0.408510
C97   C     C_3   0.866873 0.514579 0.168672 -0.866682
C98   C     C_3   0.484579 0.093176 0.146107 -0.407837
C99   C     C_3   0.503547 0.133566 0.171526 -0.878320
C100  C     C_3   0.062091 0.579877 0.141207 -0.354654
C101  C     C_1   0.838097 0.000041 0.500691 -0.040153
C102  C     C_3   0.086999 0.620328 0.151325 -0.918063
C103  C     C_3   0.515081 0.906092 0.143600 -0.408599
C104  C     C_3   0.496287 0.865641 0.168413 -0.875947
C105  C     C_3   0.293467 0.928736 0.551121 -0.915082
C106  C     C_3   0.064992 0.293700 0.567006 -0.927695
C107  C     C_3   0.705708 0.071491 0.551954 -0.915617
C108  C     C_3   0.921242 0.705387 0.489844 -0.903016
C109  C     C_3   0.705905 0.928925 0.447386 -0.915275
C110  C     C_3   0.934600 0.291527 0.430791 -0.929694
C111  C     C_3   0.294918 0.070960 0.449480 -0.915749
C112  C     C_R   0.999924 0.419332 0.499035 0.876910
C113  C     C_1   0.000219 0.838095 0.498804 -0.040556
C114  C     C_3   0.079406 0.706201 0.507788 -0.908161
C115  C     C_3   0.791812 0.435217 0.069716 -0.925688
C116  C     C_3   0.570780 0.795063 0.050883 -0.915821
C117  C     C_3   0.206071 0.567622 0.066750 -0.921329
C118  C     C_3   0.432238 0.205947 0.059888 -0.916597
C119  C     C_3   0.205401 0.431980 0.943684 -0.916551
C120  C     C_3   0.428683 0.793328 0.948523 -0.914675
C121  C     C_3   0.794943 0.566209 0.937479 -0.920601
C122  C     C_3   0.568194 0.207181 0.935443 -0.926818
C123  C     C_1   0.661877 0.500230 0.999979 -0.039998
C124  C     C_1   0.499820 0.661904 0.000884 -0.040153
C125  C     C_1   0.338066 0.500259 0.001781 -0.039848
C126  C     C_1   0.499901 0.338113 0.998684 -0.039974
C127  C     C_1   0.337825 0.999760 0.500375 -0.033273
C128  C     C_1   0.999733 0.337844 0.498476 -0.045603
C129  C     C_1   0.662176 0.000242 0.499343 -0.033389
C130  C     C_1   0.000336 0.662138 0.498316 -0.042054
C131  C     C_1   0.837807 0.500151 0.000956 -0.033102
C132  C     C_R   0.580677 0.000066 0.499558 0.869362
C133  C     C_1   0.499705 0.837824 0.999332 -0.033208
C134  C     C_1   0.162074 0.500235 0.004699 -0.030902
C135  C     C_1   0.500220 0.162166 0.999716 -0.038339
C136  C     C_1   0.375095 0.999781 0.500390 -0.189175
C137  C     C_1   0.999756 0.375126 0.498500 -0.198134
C138  C     C_1   0.624906 0.000195 0.499305 -0.188847
C139  C     C_1   0.000265 0.624863 0.498554 -0.181269
C140  C     C_1   0.875079 0.499951 0.000093 -0.201052
C141  C     C_1   0.499754 0.875094 0.999258 -0.189198
C142  C     C_1   0.124802 0.500296 0.003959 -0.190425
C143  C     C_R   0.000081 0.580669 0.499249 0.876272
C144  C     C_1   0.500164 0.124897 0.000285 -0.194278
C145  C     C_1   0.124589 0.999932 0.499391 -0.177387
C146  C     C_1   0.999870 0.124564 0.500709 -0.177874
C147  C     C_1   0.875410 0.000019 0.500614 -0.177443
C148  C     C_1   0.000123 0.875410 0.499163 -0.177247
C149  C     C_1   0.624573 0.500111 0.999580 -0.177834
C150  C     C_1   0.499911 0.624590 0.000766 -0.177397
C151  C     C_1   0.375387 0.500186 0.000901 -0.177646
C152  C     C_1   0.499943 0.375423 0.999117 -0.177721
C153  C     C_R   0.000015 0.919663 0.499740 0.894848
C154  C     C_R   0.919327 0.499951 0.999590 0.873406
C155  C     C_R   0.080337 0.999998 0.499796 0.894994
C156  C     C_R   0.999986 0.080328 0.500249 0.895489
C157  C     C_R   0.919663 0.999996 0.500205 0.894960
C158  C     C_R   0.499985 0.419668 0.999734 0.895607
C159  C     C_R   0.580332 0.500012 0.999815 0.895482
C160  C     C_R   0.499997 0.580337 0.000254 0.895219
C161  C     C_R   0.419655 0.500047 0.000232 0.895117
C162  C     C_R   0.499815 0.999846 0.379650 0.858375
C163  C     C_R   0.000500 0.499943 0.379677 0.858184
C164  C     C_R   0.500079 0.000157 0.620351 0.858529
C165  C     C_R   0.499925 0.919324 0.999521 0.869209
C166  C     C_R   0.999904 0.499786 0.620345 0.861654
C167  C     C_R   0.999750 0.499859 0.879652 0.860822
C168  C     C_R   0.500136 0.000175 0.879651 0.858411
C169  C     C_R   0.001593 0.500835 0.120357 0.875419
C170  C     C_R   0.499884 0.999725 0.120345 0.858274
C171  C     C_R   0.568385 0.961075 0.304574 0.193129
C172  C     C_R   0.062425 0.550481 0.313617 0.204453
C173  C     C_R   0.431140 0.038255 0.306855 0.193744
C174  C     C_R   0.957336 0.435880 0.303892 0.197334
C175  C     C_R   0.430835 0.962329 0.694600 0.192875
C176  C     C_R   0.080619 0.500107 0.002359 0.879641
C177  C     C_R   0.960203 0.567780 0.695293 0.190899
C178  C     C_R   0.569621 0.037907 0.693964 0.191536
C179  C     C_R   0.039742 0.431908 0.692987 0.193428
C180  C     C_R   0.069657 0.463308 0.804833 0.192260
C181  C     C_R   0.539408 0.068818 0.806280 0.190758
C182  C     C_R   0.930013 0.536143 0.806558 0.193922
C183  C     C_R   0.461471 0.931381 0.805236 0.193706
C184  C     C_R   0.928886 0.470500 0.194621 0.187225
C185  C     C_R   0.462322 0.068906 0.195584 0.193467
C186  C     C_R   0.067812 0.546517 0.189642 0.131032
C187  C     C_R   0.500058 0.080674 0.000427 0.871098
C188  C     C_R   0.537353 0.930433 0.193064 0.192642
C189  C     C_R   0.587501 0.927123 0.275007 -0.188871
C190  C     C_R   0.101754 0.553857 0.286178 -0.188934
C191  C     C_R   0.412067 0.072218 0.278610 -0.189890
C192  C     C_R   0.921674 0.419891 0.275431 -0.190503
C193  C     C_R   0.411167 0.928581 0.723341 -0.189306
C194  C     C_R   0.925846 0.586231 0.724720 -0.187010
C195  C     C_R   0.589616 0.071440 0.723252 -0.189582
C196  C     C_R   0.074037 0.413420 0.721242 -0.190689
C197  C     C_R   0.089972 0.430162 0.774982 -0.189791
C198  C     C_R   0.293202 0.999801 0.500172 0.115943
C199  C     C_R   0.573508 0.087932 0.777286 -0.188708
C200  C     C_R   0.909735 0.569323 0.778123 -0.192691
C201  C     C_R   0.427473 0.912106 0.776448 -0.189683
C202  C     C_R   0.906660 0.438142 0.222882 -0.190089
C203  C     C_R   0.428733 0.088596 0.225207 -0.190037
C204  C     C_R   0.104930 0.549051 0.223224 -0.163227
C205  C     C_R   0.570939 0.910776 0.221445 -0.189857
C206  C     C_R   0.521956 0.968496 0.218561 0.016807
C207  C     C_R   0.032820 0.525918 0.218254 -0.003532
C208  C     C_R   0.477639 0.030824 0.219808 0.016054
H1    H     H_    0.384265 0.086200 0.298241 0.149047
H2    H     H_    0.413365 0.884291 0.795449 0.149291
H3    H     H_    0.521005 0.149821 0.134641 0.259696
H4    H     H_    0.510890 0.075759 0.125748 0.214102
H5    H     H_    0.461845 0.100763 0.109895 0.213270
H6    H     H_    0.082033 0.632517 0.198595 0.275667
H7    H     H_    0.120770 0.615266 0.142750 0.259065
H8    H     H_    0.076332 0.644286 0.118615 0.253397
H9    H     H_    0.071228 0.567055 0.096202 0.242405
H10   H     H_    0.029127 0.590233 0.141656 0.238765
H11   H     H_    0.520993 0.844112 0.183893 0.254844
H12   H     H_    0.474836 0.872588 0.207346 0.269368
H13   H     H_    0.118106 0.416957 0.793756 0.149534
H14   H     H_    0.478284 0.849621 0.131831 0.258982
H15   H     H_    0.488713 0.923510 0.124430 0.212987
H16   H     H_    0.537852 0.898531 0.106733 0.214190
H17   H     H_    0.313606 0.914067 0.515456 0.248622
H18   H     H_    0.313146 0.939203 0.589973 0.246830
H19   H     H_    0.271325 0.904733 0.568246 0.237055
H20   H     H_    0.062845 0.285041 0.616040 0.240205
H21   H     H_    0.095817 0.283748 0.548706 0.244587
H22   H     H_    0.063564 0.328133 0.564304 0.253419
H23   H     H_    0.686246 0.086035 0.516216 0.248654
H24   H     H_    0.587819 0.115621 0.796805 0.149986
H25   H     H_    0.685309 0.061239 0.590277 0.246648
H26   H     H_    0.727569 0.095535 0.569886 0.237351
H27   H     H_    0.916712 0.685703 0.530949 0.245553
H28   H     H_    0.894480 0.727148 0.487023 0.235835
H29   H     H_    0.921182 0.685193 0.448259 0.247922
H30   H     H_    0.686339 0.939233 0.408703 0.247166
H31   H     H_    0.727833 0.904810 0.429859 0.237093
H32   H     H_    0.685616 0.914449 0.482774 0.248632
H33   H     H_    0.936067 0.326037 0.432602 0.254756
H34   H     H_    0.936850 0.281673 0.382001 0.242100
H35   H     H_    0.133914 0.558172 0.201378 0.150493
H36   H     H_    0.903728 0.281823 0.449212 0.244905
H37   H     H_    0.315201 0.060611 0.410895 0.247198
H38   H     H_    0.273267 0.095002 0.432139 0.237430
H39   H     H_    0.314533 0.085547 0.485537 0.248632
H40   H     H_    0.079144 0.686494 0.549330 0.246048
H41   H     H_    0.084351 0.686084 0.466749 0.246260
H42   H     H_    0.106105 0.728249 0.511166 0.237834
H43   H     H_    0.826303 0.437299 0.068746 0.249847
H44   H     H_    0.781566 0.437054 0.118351 0.239361
H45   H     H_    0.782713 0.404313 0.050629 0.244727
H46   H     H_    0.584478 0.882742 0.201806 0.148932
H47   H     H_    0.560354 0.815436 0.089354 0.246765
H48   H     H_    0.594791 0.773459 0.068440 0.237361
H49   H     H_    0.585428 0.814598 0.014875 0.248779
H50   H     H_    0.186087 0.584404 0.033873 0.249751
H51   H     H_    0.186192 0.554749 0.103944 0.239228
H52   H     H_    0.228079 0.590477 0.087420 0.237965
H53   H     H_    0.444763 0.186384 0.097051 0.248207
H54   H     H_    0.409236 0.227898 0.080413 0.237477
H55   H     H_    0.415698 0.185670 0.026413 0.248976
H56   H     H_    0.185310 0.444391 0.907024 0.247420
H57   H     H_    0.877704 0.426671 0.203688 0.150629
H58   H     H_    0.227187 0.409042 0.922615 0.237373
H59   H     H_    0.185618 0.415405 0.977645 0.249515
H60   H     H_    0.414008 0.813560 0.984085 0.248550
H61   H     H_    0.439151 0.812908 0.909649 0.247066
H62   H     H_    0.404686 0.771137 0.931389 0.237390
H63   H     H_    0.815131 0.552546 0.901137 0.248771
H64   H     H_    0.773304 0.588483 0.915685 0.237864
H65   H     H_    0.814628 0.583872 0.970406 0.248658
H66   H     H_    0.566401 0.172709 0.937304 0.252117
H67   H     H_    0.568272 0.216257 0.886498 0.239817
H68   H     H_    0.415211 0.116619 0.206591 0.149508
H69   H     H_    0.598196 0.217042 0.956199 0.244694
H70   H     H_    0.209929 0.939943 0.542499 0.149631
H71   H     H_    0.053930 0.211471 0.557035 0.157039
H72   H     H_    0.789370 0.060101 0.544603 0.150055
H73   H     H_    0.905385 0.393156 0.294052 0.150076
H74   H     H_    0.933644 0.789102 0.491135 0.149195
H75   H     H_    0.789532 0.940055 0.456266 0.149609
H76   H     H_    0.945484 0.209623 0.443234 0.157175
H77   H     H_    0.211166 0.059699 0.456626 0.150080
H78   H     H_    0.066922 0.789798 0.506178 0.149126
H79   H     H_    0.709766 0.445729 0.056825 0.157199
H80   H     H_    0.559558 0.711283 0.043852 0.150043
H81   H     H_    0.289725 0.557216 0.055120 0.150264
H82   H     H_    0.442903 0.289499 0.050373 0.150276
H83   H     H_    0.289062 0.442998 0.951296 0.150345
H84   H     H_    0.615215 0.913064 0.293774 0.149177
H85   H     H_    0.439908 0.709808 0.957379 0.150123
H86   H     H_    0.711284 0.555441 0.945943 0.150303
H87   H     H_    0.556728 0.289394 0.945922 0.156975
H88   H     H_    0.655174 0.975001 0.314059 0.254446
H89   H     H_    0.628209 0.021713 0.290932 0.270001
H90   H     H_    0.650177 0.018274 0.366429 0.258751
H91   H     H_    0.576083 0.009866 0.373940 0.212462
H92   H     H_    0.599423 0.960138 0.390967 0.214540
H93   H     H_    0.089132 0.633769 0.332141 0.258243
H94   H     H_    0.036619 0.631326 0.302246 0.269536
H95   H     H_    0.127772 0.567231 0.310987 0.142423
H96   H     H_    0.045522 0.647622 0.380267 0.259717
H97   H     H_    0.019018 0.577233 0.379309 0.199003
H98   H     H_    0.073116 0.575928 0.403546 0.231091
H99   H     H_    0.344626 0.023183 0.315473 0.254979
H100  H     H_    0.372404 0.976611 0.291928 0.269606
H101  H     H_    0.349386 0.980307 0.367331 0.259041
H102  H     H_    0.423443 0.989567 0.375116 0.212087
H103  H     H_    0.399177 0.039015 0.393144 0.214698
H104  H     H_    0.962287 0.347809 0.313501 0.256831
H105  H     H_    0.010823 0.370318 0.286363 0.270044
H106  H     H_    0.617722 0.084997 0.703964 0.148941
H107  H     H_    0.007118 0.348995 0.362285 0.263765
H108  H     H_    0.006179 0.423298 0.370483 0.208519
H109  H     H_    0.954672 0.404865 0.390633 0.215390
H110  H     H_    0.344255 0.976913 0.685167 0.254439
H111  H     H_    0.371925 0.023486 0.709350 0.269824
H112  H     H_    0.350015 0.019968 0.633700 0.258692
H113  H     H_    0.423961 0.010928 0.626164 0.212750
H114  H     H_    0.399848 0.961309 0.608208 0.214548
H115  H     H_    0.970484 0.655358 0.680958 0.256713
H116  H     H_    0.017373 0.630607 0.708440 0.268327
H117  H     H_    0.088577 0.385949 0.701441 0.150075
H118  H     H_    0.015235 0.650309 0.631537 0.256321
H119  H     H_    0.009053 0.576266 0.626390 0.211689
H120  H     H_    0.958517 0.597217 0.607711 0.216934
H121  H     H_    0.655940 0.021898 0.683759 0.254610
H122  H     H_    0.627339 0.975757 0.706694 0.269448
H123  H     H_    0.649937 0.978963 0.631058 0.258879
H124  H     H_    0.576161 0.989187 0.624254 0.214193
H125  H     H_    0.601211 0.038430 0.607481 0.213690
H126  H     H_    0.027350 0.344845 0.681872 0.257189
H127  H     H_    0.980349 0.371053 0.707435 0.267808
H128  H     H_    0.383193 0.914775 0.704271 0.149227
H129  H     H_    0.983677 0.349074 0.631312 0.263275
H130  H     H_    0.990891 0.423287 0.625026 0.211315
H131  H     H_    0.040953 0.400764 0.605922 0.213690
H132  H     H_    0.155643 0.480281 0.814414 0.254910
H133  H     H_    0.127278 0.526714 0.793893 0.270266
H134  H     H_    0.149524 0.522081 0.869104 0.258910
H135  H     H_    0.075550 0.511588 0.875571 0.217961
H136  H     H_    0.100459 0.462563 0.891541 0.214092
H137  H     H_    0.526960 0.156044 0.819658 0.257112
H138  H     H_    0.480603 0.129363 0.792735 0.267458
H139  H     H_    0.911145 0.613546 0.705817 0.149653
H140  H     H_    0.482458 0.150516 0.869375 0.261151
H141  H     H_    0.490377 0.076621 0.875016 0.211916
H142  H     H_    0.540426 0.099536 0.893487 0.212923
H143  H     H_    0.845061 0.515813 0.810107 0.255231
H144  H     H_    0.875636 0.470053 0.791599 0.269460
H145  H     H_    0.850176 0.474872 0.865241 0.259676
H146  H     H_    0.923887 0.487681 0.875584 0.213507
H147  H     H_    0.896506 0.535722 0.891465 0.212143
H148  H     H_    0.475168 0.844656 0.814185 0.254489
H149  H     H_    0.522001 0.871854 0.790160 0.269977
H150  H     H_    0.881292 0.582158 0.797477 0.149402
H151  H     H_    0.518341 0.849870 0.865680 0.258734
H152  H     H_    0.510129 0.923936 0.873558 0.212167
H153  H     H_    0.460323 0.900323 0.891555 0.214835
H154  H     H_    0.843425 0.491033 0.183146 0.257818
H155  H     H_    0.874136 0.535547 0.207983 0.266589
H156  H     H_    0.852957 0.533462 0.131744 0.258937
H157  H     H_    0.925917 0.518847 0.125206 0.223017
H158  H     H_    0.898397 0.470745 0.108665 0.208621
H159  H     H_    0.479003 0.154923 0.189147 0.254638
H160  H     H_    0.525517 0.126490 0.209088 0.269971
O1    O     O_R   0.439000 0.034460 0.500000 -0.620218
O2    O     O_R   0.465540 0.939000 0.000000 -0.620660
O3    O     O_R   0.061000 0.465540 0.000000 -0.616842
O4    O     O_R   0.534460 0.061000 0.000000 -0.621362
O5    O     O_R   0.061000 0.534460 0.000000 -0.635884
O6    O     O_R   0.534460 0.939000 0.000000 -0.619604
O7    O     O_R   0.939000 0.465540 0.000000 -0.617894
O8    O     O_R   0.465540 0.061000 0.000000 -0.618938
O9    O     O_R   0.499990 0.034460 0.408410 -0.617023
O10   O     O_R   0.965540 0.499990 0.408410 -0.611829
O11   O     O_R   0.500010 0.965540 0.408410 -0.617335
O12   O     O_R   0.965540 0.439000 0.500000 -0.622093
O13   O     O_R   0.034460 0.500010 0.408410 -0.632096
O14   O     O_R   0.500010 0.034460 0.591590 -0.617237
O15   O     O_R   0.034460 0.499990 0.591590 -0.616108
O16   O     O_R   0.499990 0.965540 0.591590 -0.617136
O17   O     O_R   0.965540 0.500010 0.591590 -0.616404
O18   O     O_R   0.999990 0.534460 0.908410 -0.614542
O19   O     O_R   0.465540 0.999990 0.908410 -0.617094
O20   O     O_R   0.000010 0.465540 0.908410 -0.616987
O21   O     O_R   0.534460 0.000010 0.908410 -0.617434
O22   O     O_R   0.000010 0.534460 0.091590 -0.659244
O23   O     O_R   0.561000 0.965540 0.500000 -0.620430
O24   O     O_R   0.534460 0.999990 0.091590 -0.616838
O25   O     O_R   0.999990 0.465540 0.091590 -0.605506
O26   O     O_R   0.465540 0.000010 0.091590 -0.617163
O27   O     O_R   0.999970 0.939080 0.448210 -0.614038
O28   O     O_R   0.060920 0.999970 0.448210 -0.613895
O29   O     O_R   0.000030 0.060920 0.448210 -0.613968
O30   O     O_R   0.939080 0.000030 0.448210 -0.614115
O31   O     O_R   0.000030 0.939080 0.551790 -0.613642
O32   O     O_R   0.939080 0.999970 0.551790 -0.613947
O33   O     O_R   0.999970 0.060920 0.551790 -0.614529
O34   O     O_R   0.034460 0.561000 0.500000 -0.631664
O35   O     O_R   0.060920 0.000030 0.551790 -0.614131
O36   O     O_R   0.499970 0.439080 0.948210 -0.614425
O37   O     O_R   0.560920 0.499970 0.948210 -0.614433
O38   O     O_R   0.500030 0.560920 0.948210 -0.613814
O39   O     O_R   0.439080 0.500030 0.948210 -0.613917
O40   O     O_R   0.500030 0.439080 0.051790 -0.613943
O41   O     O_R   0.439080 0.499970 0.051790 -0.614304
O42   O     O_R   0.499970 0.560920 0.051790 -0.614409
O43   O     O_R   0.560920 0.500030 0.051790 -0.614090
O44   O     O_R   0.561000 0.034460 0.500000 -0.619637
O45   O     O_R   0.034460 0.439000 0.500000 -0.619821
O46   O     O_R   0.439000 0.965540 0.500000 -0.620202
O47   O     O_R   0.965540 0.561000 0.500000 -0.619741
O48   O     O_R   0.939000 0.534460 0.000000 -0.617443
Zn1   Zn    Zn3+2 0.500000 0.046010 0.500000 0.953254
Zn2   Zn    Zn3+2 0.000000 0.000000 0.569050 0.969249
Zn3   Zn    Zn3+2 0.500000 0.500000 0.930950 0.968698
Zn4   Zn    Zn3+2 0.500000 0.500000 0.069050 0.968570
Zn5   Zn    Zn3+2 0.953990 0.500000 0.500000 0.951624
Zn6   Zn    Zn3+2 0.500000 0.953990 0.500000 0.952745
Zn7   Zn    Zn3+2 0.046010 0.500000 0.500000 0.937022
Zn8   Zn    Zn3+2 1.000000 0.546010 0.000000 0.931286
Zn9   Zn    Zn3+2 0.453990 0.000000 0.000000 0.953251
Zn10  Zn    Zn3+2 1.000000 0.453990 0.000000 0.958373
Zn11  Zn    Zn3+2 0.546010 0.000000 0.000000 0.953342
Zn12  Zn    Zn3+2 0.000000 0.000000 0.430950 0.969423

loop_
_geom_bond_atom_site_label_1
_geom_bond_atom_site_label_2
_ccdc_geom_bond_type
C33   C55   A    
C194  H139  S    
C14   C208  A    
C30   C45   A    
C82   H116  S    
C41   C61   A    
O34   Zn7   S    
C99   H159  S    
O45   Zn7   S    
C12   C23   A    
C46   C62   A    
C72   C172  S    
C12   C174  A    
C17   C206  A    
O13   Zn7   S    
C96   C184  S    
C107  H23   S    
C122  H66   S    
C117  H51   S    
C36   C66   A    
C109  H32   S    
O33   Zn2   S    
C193  C201  A    
C88   H132  S    
C32   C52   A    
C131  C140  T    
C103  H15   S    
C151  C161  S    
C84   H121  S    
O14   Zn1   S    
C3    C184  A    
O31   Zn2   S    
C195  H106  S    
C72   H98   S    
C81   H120  S    
C107  H25   S    
C38   C69   A    
C191  C203  A    
C168  O19   A    
C28   H72   S    
C109  H31   S    
C10   C21   A    
C89   H141  S    
C77   H107  S    
C188  C205  A    
O41   Zn4   S    
C39   H83   S    
C183  C201  A    
C127  C136  T    
C31   C44   A    
C163  O13   A    
C196  C197  A    
C172  C190  A    
C49   C124  S    
C173  C191  A    
C21   C166  S    
C106  H22   S    
C89   C181  S    
C143  O34   A    
C87   H136  S    
C189  H84   S    
C110  H34   S    
C115  H45   S    
C73   H96   S    
C92   H146  S    
O27   Zn12  S    
C121  H64   S    
C164  O16   A    
C66   C116  S    
C157  O30   A    
O39   Zn3   S    
C33   C47   A    
C34   C48   A    
C88   H133  S    
C36   H80   S    
C127  C198  S    
C42   C64   A    
C5    C182  A    
C26   H70   S    
C204  H35   S    
O46   Zn6   S    
O30   Zn12  S    
C13   C54   A    
C116  H48   S    
C16   C25   A    
C83   C178  S    
O32   Zn2   S    
C133  C141  T    
C17   C208  A    
C72   C73   S    
C51   C126  S    
C2    C53   A    
C38   C51   A    
O21   Zn11  S    
C92   C182  S    
C37   C50   A    
C190  C204  A    
C27   C58   A    
C111  H38   S    
C190  H95   S    
C84   H123  S    
C15   C172  A    
C111  H39   S    
C159  O37   A    
C112  O45   A    
C108  H29   S    
C92   H147  S    
C98   C99   S    
C94   C183  S    
C96   H158  S    
C192  H73   S    
C175  C193  A    
C116  H49   S    
C75   H100  S    
C169  O25   A    
C8    C179  A    
C6    C9    A    
C28   C56   A    
C120  H62   S    
C7    C8    A    
C56   C107  S    
C5    C20   A    
C99   H3    S    
C85   C86   S    
C6    C19   A    
C30   C54   A    
C153  O31   A    
C200  H150  S    
C29   C47   A    
C97   H154  S    
C64   C68   A    
C113  C148  T    
C14   C173  A    
C197  H13   S    
C78   C80   S    
C115  H43   S    
C40   C49   A    
C166  O17   A    
C22   C164  S    
C61   C121  S    
C74   H103  S    
C125  C151  T    
C157  O32   A    
C126  C152  T    
C27   C44   A    
C194  C200  A    
C118  H55   S    
C119  H56   S    
C29   H74   S    
C78   H113  S    
C37   C65   A    
C70   H91   S    
O24   Zn11  S    
C143  O47   A    
C187  O8    A    
O37   Zn3   S    
C105  H17   S    
C89   C91   S    
C52   C198  A    
C85   C179  S    
C13   C56   A    
C100  H10   S    
O28   Zn12  S    
C34   H79   S    
O16   Zn6   S    
C132  O23   A    
C104  H14   S    
C57   C63   A    
C195  C199  A    
C17   C170  S    
C76   H109  S    
C114  H41   S    
O29   Zn12  S    
O4    Zn11  S    
C18   C207  A    
C86   H127  S    
C159  O43   A    
C71   H89   S    
C104  H11   S    
C63   C119  S    
C83   C84   S    
C29   C60   A    
C35   C67   A    
O9    Zn1   S    
C35   C61   A    
C50   C125  S    
C42   H87   S    
C191  H1    S    
C102  H8    S    
C73   H93   S    
C78   C175  S    
C1    C136  S    
C155  O35   A    
C26   C59   A    
C20   C167  S    
C101  C147  T    
C10   C177  A    
C158  O40   A    
C68   C135  S    
C100  H9    S    
C55   C114  S    
C203  H68   S    
C141  C165  S    
C86   H129  S    
C76   C174  S    
C81   C177  S    
O20   Zn10  S    
C122  H67   S    
C117  H50   S    
C16   C171  A    
C156  O33   A    
C118  H53   S    
C1    O1    A    
C30   H75   S    
C32   C43   A    
C7    C180  A    
C82   H118  S    
O48   Zn8   S    
C4    C183  A    
C80   H111  S    
C108  H27   S    
C167  O20   A    
C36   C49   A    
O7    Zn10  S    
O1    Zn1   S    
C75   H101  S    
C24   C130  S    
C37   H81   S    
C84   H122  S    
C13   C129  S    
C15   C207  A    
C174  C192  A    
C144  C187  S    
C181  C199  A    
C81   H119  S    
C87   C88   S    
C108  H28   S    
C154  O48   A    
C176  O5    A    
C120  H60   S    
C48   C123  S    
C44   C90   S    
C109  H30   S    
C188  C206  A    
C59   C105  S    
C150  C160  S    
C85   H131  S    
O42   Zn4   S    
C169  O22   A    
C46   C66   A    
C130  C139  T    
C59   C198  A    
C132  C138  S    
C69   C118  S    
C87   H135  S    
C87   C180  S    
C102  H6    S    
C114  H40   S    
C189  C205  A    
C68   C69   A    
C91   H137  S    
C70   C71   S    
C165  O2    A    
C121  H63   S    
C62   C120  S    
C60   C108  S    
C166  O15   A    
O10   Zn5   S    
O36   Zn3   S    
C185  C208  A    
C82   H115  S    
C88   H134  S    
O3    Zn10  S    
C99   H160  S    
C179  C196  A    
C152  C158  S    
C177  C194  A    
C182  C200  A    
C117  H52   S    
C142  C176  S    
C119  H58   S    
C98   H4    S    
C165  O6    A    
O47   Zn5   S    
C187  O4    A    
C199  H24   S    
C149  C159  S    
O38   Zn3   S    
C167  O18   A    
C103  H16   S    
C134  C142  T    
C75   H99   S    
C168  O21   A    
C76   H108  S    
C111  H37   S    
C4    C11   A    
O25   Zn10  S    
C45   C101  S    
C72   H97   S    
C155  O28   A    
C98   H5    S    
C112  O12   A    
O43   Zn4   S    
O22   Zn8   S    
C57   C134  S    
C19   C168  S    
C35   C131  S    
C77   H105  S    
C18   C169  S    
C89   H142  S    
C47   C113  S    
C124  C150  T    
O19   Zn9   S    
C112  C137  S    
C103  C188  S    
C57   C65   A    
O35   Zn2   S    
C34   C67   A    
C2    C58   A    
C93   H144  S    
C11   C175  A    
C98   C185  S    
C106  H21   S    
C185  C203  A    
C31   H76   S    
C93   H143  S    
C46   C133  S    
C110  H33   S    
O6    Zn11  S    
C92   C93   S    
C95   H151  S    
C71   H88   S    
C14   C25   A    
C94   C95   S    
O8    Zn9   S    
C161  O41   A    
C120  H61   S    
C94   H152  S    
O12   Zn5   S    
C33   H78   S    
C7    C20   A    
C78   H114  S    
C103  C104  S    
C70   H92   S    
C83   H124  S    
C80   H110  S    
C9    C178  A    
C116  H47   S    
C2    C128  S    
C53   C110  S    
O2    Zn9   S    
C123  C149  T    
C70   C171  S    
C81   C82   S    
C79   C145  T    
C24   C55   A    
C186  C207  A    
C16   C206  A    
C135  C144  T    
C9    C22   A    
O5    Zn8   S    
C43   C79   S    
C114  H42   S    
C93   H145  S    
C38   H82   S    
C40   C62   A    
C171  C189  A    
C3    C18   A    
C161  O39   A    
C67   C115  S    
C104  H12   S    
C180  C197  A    
C4    C19   A    
O23   Zn6   S    
C129  C138  T    
C162  O11   A    
C3    C12   A    
C96   H157  S    
C42   C51   A    
C41   H86   S    
C105  H19   S    
O26   Zn9   S    
O11   Zn6   S    
C40   H85   S    
C139  C143  S    
C91   H138  S    
C160  O42   A    
C132  O44   A    
C121  H65   S    
C26   C43   A    
C23   C163  S    
O15   Zn7   S    
C28   C45   A    
C184  C202  A    
C74   C75   S    
C6    C181  A    
C97   H155  S    
C76   C77   S    
C74   C173  S    
C32   H77   S    
C27   H71   S    
C115  H44   S    
C52   C111  S    
C95   H149  S    
C54   C109  S    
C58   C106  S    
C100  C186  S    
C128  C137  T    
C94   H153  S    
C158  O36   A    
C74   H102  S    
C110  H36   S    
C118  H54   S    
C25   C162  S    
C24   C60   A    
C119  H59   S    
C96   C97   S    
C77   H104  S    
C100  C102  S    
C8    C21   A    
C186  C204  A    
C83   H125  S    
C193  H128  S    
O40   Zn4   S    
C105  H18   S    
C31   C53   A    
C80   H112  S    
C170  O24   A    
C1    O46   A    
O44   Zn1   S    
C147  C157  S    
C122  H69   S    
C201  H2    S    
C91   H140  S    
C160  O38   A    
C154  O7    A    
C65   C117  S    
C156  O29   A    
C107  H26   S    
C170  O26   A    
C39   C63   A    
C178  C195  A    
C11   C22   A    
O17   Zn5   S    
C85   H130  S    
C86   H126  S    
C71   H90   S    
C5    C10   A    
C90   C146  T    
C176  O3    A    
C64   C122  S    
C15   C23   A    
C153  O27   A    
C41   C48   A    
C162  O9    A    
C106  H20   S    
C202  H57   S    
C196  H117  S    
C145  C155  S    
O18   Zn8   S    
C102  H7    S    
C39   C50   A    
C146  C156  S    
C148  C153  S    
C73   H94   S    
C192  C202  A    
C95   H148  S    
C163  O10   A    
C164  O14   A    
C205  H46   S    
C140  C154  S    
C97   H156  S    
