data_mof_unit_46179.cif
_audit_creation_date              2012-12-10T17:31:14-0500
_audit_creation_method            fapswitch 2.2
_symmetry_space_group_name_H-M    P1
_symmetry_Int_Tables_number       1
_space_group_crystal_system       triclinic
_cell_length_a                    12.010863
_cell_length_b                    12.78271
_cell_length_c                    15.519286
_cell_angle_alpha                 86.528734
_cell_angle_beta                  115.729832
_cell_angle_gamma                 94.831716
_cell_volume                      2138.0644719

loop_
_atom_site_label
_atom_site_type_symbol
_atom_type_description
_atom_site_fract_x
_atom_site_fract_y
_atom_site_fract_z
_atom_type_partial_charge
C1    C     C_R   0.474608 0.299671 0.495945 0.894040
C2    C     C_R   0.575687 0.967480 0.423298 -0.216432
C3    C     C_R   0.413955 0.138653 0.557626 -0.257463
C4    C     C_R   0.585236 0.861313 0.441679 -0.256583
C5    C     C_R   0.491881 0.130748 0.436804 0.106684
C6    C     C_R   0.507139 0.869378 0.562391 0.107039
C7    C     C_R   0.515883 0.024692 0.463519 0.105401
C8    C     C_R   0.482610 0.975240 0.535303 0.107675
C9    C     C_R   0.010630 0.608599 0.416991 0.089012
C10   C     C_R   0.993485 0.396160 0.589061 0.075518
C11   C     C_R   0.129820 0.595242 0.424352 -0.036108
C12   C     C_R   0.525428 0.700341 0.504140 0.894304
C13   C     C_R   0.871839 0.407484 0.578673 0.000952
C14   C     C_R   0.158625 0.454765 0.536759 -0.077065
C15   C     C_R   0.842031 0.546147 0.464305 -0.076646
C16   C     C_R   0.576317 0.495017 0.680274 0.870453
C17   C     C_R   0.423782 0.506645 0.319706 0.872747
C18   C     C_R   0.038819 0.462652 0.532620 -0.028456
C19   C     C_R   0.962938 0.540039 0.470567 0.035093
C20   C     C_R   0.624167 0.505515 0.783296 -0.058964
C21   C     C_R   0.377283 0.519082 0.216087 -0.059757
C22   C     C_R   0.784264 0.562648 0.935419 -0.208938
C23   C     C_R   0.641801 0.593155 0.099990 -0.229789
C24   C     C_R   0.211488 0.521092 0.055970 -0.206151
C25   C     C_R   0.748615 0.534731 0.841095 -0.212256
C26   C     C_R   0.250467 0.513199 0.154747 -0.204043
C27   C     C_R   0.537545 0.500923 0.820752 -0.257061
C28   C     C_R   0.463800 0.537988 0.178764 -0.268927
C29   C     C_R   0.568462 0.537860 0.911297 0.089271
C30   C     C_R   0.427187 0.548439 0.080457 0.093120
C31   C     C_R   0.694783 0.565298 0.970676 0.175662
C32   C     C_R   0.299184 0.535526 0.018381 0.177404
C33   C     C_R   0.477029 0.545250 0.944769 0.068017
C34   C     C_R   0.348395 0.536895 0.883499 -0.234430
C35   C     C_R   0.515794 0.562815 0.042792 0.070965
C36   C     C_3   0.939869 0.697825 0.353593 -0.447806
C37   C     C_3   0.944538 0.790673 0.412811 -0.847454
C38   C     C_3   0.075787 0.315624 0.659530 -0.429481
C39   C     C_3   0.020983 0.251244 0.719948 -0.883370
C40   C     C_3   0.503383 0.817175 0.652992 -0.440303
C41   C     C_3   0.631533 0.784854 0.724487 -0.842096
C42   C     C_3   0.496896 0.183523 0.346817 -0.436790
C43   C     C_3   0.370180 0.219590 0.275874 -0.848117
C44   C     C_R   0.729568 0.595471 0.063978 -0.240009
C45   C     C_R   0.261001 0.534182 0.919956 -0.238232
C46   C     C_R   0.543959 0.812211 0.505746 -0.055551
C47   C     C_R   0.455679 0.187854 0.493875 -0.053379
C48   C     C_R   0.422849 0.032420 0.575551 -0.217578
H1    H     H_    0.825216 0.619078 0.109897 0.140983
H2    H     H_    0.113296 0.512978 0.009038 0.132001
H3    H     H_    0.674068 0.618904 0.172099 0.133992
H4    H     H_    0.312534 0.535052 0.806637 0.148370
H5    H     H_    0.620518 0.816508 0.402794 0.159475
H6    H     H_    0.378949 0.183432 0.596710 0.155229
H7    H     H_    0.383502 0.998090 0.622028 0.142844
H8    H     H_    0.614788 0.001787 0.376646 0.143172
H9    H     H_    0.780552 0.603159 0.417487 0.144543
H10   H     H_    0.219646 0.396947 0.582828 0.127808
H11   H     H_    0.902616 0.767686 0.462907 0.256644
H12   H     H_    0.163408 0.526624 0.871186 0.147967
H13   H     H_    0.042059 0.820724 0.454511 0.261865
H14   H     H_    0.892252 0.854785 0.364405 0.247169
H15   H     H_    0.979873 0.725887 0.303120 0.202832
H16   H     H_    0.842691 0.670802 0.308502 0.192455
H17   H     H_    0.998578 0.303615 0.764036 0.254631
H18   H     H_    0.936855 0.203228 0.673502 0.259151
H19   H     H_    0.090016 0.197015 0.769077 0.257107
H20   H     H_    0.099876 0.259704 0.619088 0.210362
H21   H     H_    0.162829 0.357426 0.709891 0.206510
H22   H     H_    0.626666 0.750878 0.790448 0.258677
H23   H     H_    0.833286 0.358736 0.619571 0.153283
H24   H     H_    0.665668 0.724981 0.694648 0.252433
H25   H     H_    0.698647 0.854504 0.744037 0.261270
H26   H     H_    0.474014 0.868196 0.692959 0.204051
H27   H     H_    0.436474 0.747648 0.634999 0.234431
H28   H     H_    0.300839 0.151503 0.254670 0.262800
H29   H     H_    0.337830 0.279733 0.306745 0.251136
H30   H     H_    0.376435 0.254735 0.210753 0.252020
H31   H     H_    0.566279 0.251343 0.365968 0.233592
H32   H     H_    0.523921 0.131798 0.305860 0.203814
H33   H     H_    0.167350 0.646597 0.384005 0.134975
H34   H     H_    0.560582 0.538917 0.227664 0.157270
H35   H     H_    0.444957 0.469166 0.777112 0.148570
H36   H     H_    0.182079 0.499785 0.182866 0.155638
H37   H     H_    0.816958 0.538990 0.812768 0.155737
H38   H     H_    0.880809 0.584823 0.979870 0.133483
N1    N     N_R   0.799120 0.480200 0.517090 -0.121494
N2    N     N_R   0.200880 0.519800 0.482910 -0.105311
O1    O     O_R   0.580150 0.341050 0.504560 -0.625009
O2    O     O_R   0.419850 0.658950 0.495440 -0.623217
O3    O     O_R   0.388090 0.353760 0.493600 -0.621004
O4    O     O_R   0.611910 0.646240 0.506400 -0.621800
O5    O     O_R   0.650890 0.490020 0.640860 -0.620487
O6    O     O_R   0.349110 0.509980 0.359140 -0.618730
O7    O     O_R   0.458830 0.502730 0.629890 -0.618970
O8    O     O_R   0.541170 0.497270 0.370110 -0.619435
Zn1   Zn    Zn3+2 0.628240 0.491510 0.507320 0.924812
Zn2   Zn    Zn3+2 0.371760 0.508490 0.492680 0.928231

loop_
_geom_bond_atom_site_label_1
_geom_bond_atom_site_label_2
_ccdc_geom_bond_type
C44   H1    S    
C48   H7    S    
C5    C42   S    
C45   H12   S    
C42   H32   S    
C4    H5    S    
C27   C29   A    
C39   H17   S    
C32   C45   A    
C14   C18   A    
C2    C7    A    
C21   C26   A    
C8    C48   A    
C37   H14   S    
O7    Zn2   S    
C7    C8    A    
C4    C46   A    
C11   H33   S    
C43   H30   S    
C15   C19   A    
C5    C47   A    
C16   O5    A    
C30   C35   A    
C12   O2    A    
C36   C37   S    
C24   C26   A    
C38   C39   S    
C3    H6    S    
C20   C25   A    
O6    Zn2   S    
C29   C33   A    
C3    C48   A    
C18   C19   A    
C9    C19   A    
C22   C25   A    
C9    C36   S    
C26   H36   S    
C36   H15   S    
C38   H21   S    
C42   H31   S    
C1    O3    A    
C15   H9    S    
O4    Zn1   S    
C5    C7    A    
C24   H2    S    
C14   H10   S    
C31   C44   A    
C28   H34   S    
C12   C46   S    
C22   C31   A    
C34   C45   A    
C1    C47   S    
C6    C8    A    
C13   H23   S    
C17   C21   S    
C23   C44   A    
O1    Zn1   S    
C2    C4    A    
C24   C32   A    
C23   H3    S    
C11   N2    A    
C16   C20   S    
O8    Zn1   S    
C13   N1    A    
C25   H37   S    
C33   C34   A    
C17   O8    A    
C9    C11   A    
C37   H11   S    
C41   H24   S    
C40   C41   S    
C21   C28   A    
C38   H20   S    
C23   C35   A    
C39   H18   S    
C6    C40   S    
C42   C43   S    
O5    Zn1   S    
C15   N1    A    
C43   H28   S    
C16   O7    A    
C1    O1    A    
C6    C46   A    
C39   H19   S    
C12   O4    A    
C10   C13   A    
C37   H13   S    
C20   C27   A    
C43   H29   S    
C34   H4    S    
C40   H27   S    
C10   C38   S    
C28   C30   A    
C14   N2    A    
C29   C31   A    
C2    H8    S    
C30   C32   A    
C10   C18   A    
C3    C47   A    
C33   C35   A    
C40   H26   S    
C22   H38   S    
O3    Zn2   S    
C41   H25   S    
C27   H35   S    
C17   O6    A    
C36   H16   S    
O2    Zn2   S    
N2    Zn2   S    
C41   H22   S    
N1    Zn1   S    
