data_mof_unit_54857.cif
_audit_creation_date              2013-03-05T16:33:15-0500
_audit_creation_method            fapswitch 2.2
_symmetry_space_group_name_H-M    P1
_symmetry_Int_Tables_number       1
_space_group_crystal_system       triclinic
_cell_length_a                    27.76012
_cell_length_b                    10.813573
_cell_length_c                    9.536068
_cell_angle_alpha                 90.366108
_cell_angle_beta                  89.8946
_cell_angle_gamma                 90.044026
_cell_volume                      2862.53080895

loop_
_atom_site_label
_atom_site_type_symbol
_atom_site_description
_atom_site_fract_x
_atom_site_fract_y
_atom_site_fract_z
_atom_type_partial_charge
O1    O     O_R   0.500000 0.319640 0.618810 -0.584350
O2    O     O_R   0.500010 0.319680 0.381230 -0.577545
C1    C     C_R   0.501763 0.262570 0.499118 0.796614
O3    O     O_R   0.430260 0.500000 0.618780 -0.590752
O4    O     O_R   0.430270 0.500040 0.381190 -0.580203
C2    C     C_R   0.407680 0.495817 0.500088 0.800259
Cu1   Cu    Cu3+1 0.500000 0.499980 0.640670 0.936802
Cu2   Cu    Cu3+1 0.500000 0.500020 0.359330 0.938409
O5    O     O_R   0.499990 0.680320 0.618770 -0.575224
O6    O     O_R   0.500000 0.680360 0.381190 -0.580173
O7    O     O_R   0.569730 0.499960 0.618810 -0.582428
O8    O     O_R   0.569740 0.500000 0.381220 -0.589262
C3    C     C_R   0.499932 0.737477 0.500240 0.820982
C4    C     C_R   0.592601 0.499550 0.499762 0.787595
C5    C     C_R   0.178159 0.397131 0.429995 0.536811
O9    O     O_2   0.203094 0.301810 0.373770 -0.546177
N1    N     N_R   0.202206 0.494444 0.490290 -0.461170
C6    C     C_R   0.177833 0.592696 0.547392 0.537326
C7    C     C_R   0.280147 0.582371 0.420282 -0.102172
C8    C     C_R   0.330253 0.581227 0.423267 -0.259166
C9    C     C_R   0.328806 0.398199 0.571958 0.121305
C10   C     C_R   0.278272 0.402041 0.569448 -0.112868
C11   C     C_R   0.253934 0.493334 0.493927 0.309984
C12   C     C_R   0.101962 0.498090 0.480042 -0.047154
C13   C     C_R   0.127615 0.396373 0.425436 -0.020695
C14   C     C_R   0.102335 0.296604 0.367315 -0.145052
C15   C     C_R   0.127321 0.596664 0.542648 -0.017469
C16   C     C_R   0.354971 0.491105 0.499924 -0.061929
H1    H     H_    0.257597 0.332941 0.625274 0.150329
H2    H     H_    0.121187 0.217972 0.322633 0.186060
C17   C     C_R   0.645675 0.498642 0.498238 -0.036663
C18   C     C_R   0.974678 0.392760 0.436358 0.058204
C19   C     C_R   0.974988 0.615273 0.498381 -0.016070
C20   C     C_R   0.949530 0.503455 0.470643 0.040443
C21   C     C_R   0.948034 0.282499 0.417381 -0.214244
C22   C     C_R   0.898139 0.281592 0.428111 -0.148301
C23   C     C_R   0.872929 0.390789 0.456177 -0.008061
C24   C     C_R   0.898498 0.502180 0.476182 -0.048304
C25   C     C_R   0.872894 0.612208 0.501054 -0.068067
C26   C     C_R   0.822341 0.608727 0.508174 0.546167
N2    N     N_R   0.798326 0.499353 0.490154 -0.468464
C27   C     C_R   0.822441 0.391412 0.464236 0.531957
C28   C     C_R   0.722165 0.505825 0.621482 -0.104133
C29   C     C_R   0.671891 0.505354 0.624083 -0.217612
C30   C     C_R   0.670681 0.491072 0.370064 -0.226280
C31   C     C_R   0.720867 0.490873 0.367846 -0.106984
C32   C     C_R   0.746728 0.498585 0.493361 0.363687
O10   O     O_2   0.797600 0.285151 0.446334 -0.536559
C33   C     C_R   0.025575 0.395339 0.424516 0.041668
C34   C     C_R   0.050916 0.500649 0.473579 0.076771
C35   C     C_R   0.025677 0.607599 0.519144 0.037474
C36   C     C_R   0.052222 0.295338 0.367982 -0.216305
H3    H     H_    0.653647 0.510383 0.724319 0.148140
H4    H     H_    0.742067 0.511455 0.718865 0.136077
H5    H     H_    0.879374 0.194538 0.413787 0.185605
H6    H     H_    0.964960 0.194239 0.398563 0.141135
H7    H     H_    0.035214 0.215952 0.320140 0.141178
O11   O     O_2   0.202398 0.685853 0.609335 -0.542867
C37   C     C_R   0.101650 0.694860 0.602717 -0.152627
H8    H     H_    0.349889 0.651696 0.366473 0.157515
H9    H     H_    0.261600 0.652535 0.360529 0.154766
H10   H     H_    0.120022 0.768881 0.657981 0.187914
C38   C     C_R   0.948250 0.728628 0.502451 0.144897
C39   C     C_R   0.897844 0.724166 0.510018 -0.160374
O12   O     O_2   0.797329 0.713860 0.531569 -0.536602
C40   C     C_R   0.051680 0.698852 0.593331 -0.225896
H11   H     H_    0.651541 0.485057 0.271417 0.151330
H12   H     H_    0.877831 0.810067 0.515442 0.195924
H13   H     H_    0.739748 0.485224 0.268542 0.135383
H14   H     H_    0.033705 0.772498 0.648680 0.174354
C41   C     C_R   0.474087 0.065870 0.593015 0.085976
C42   C     C_R   0.502003 0.129151 0.494984 -0.126877
C43   C     C_R   0.525580 0.061288 0.386486 0.134977
C44   C     C_R   0.523228 0.932055 0.388698 -0.231705
H15   H     H_    0.542583 0.879408 0.309730 0.153839
C45   C     C_R   0.499554 0.870553 0.497863 -0.128612
C46   C     C_R   0.473019 0.938817 0.595009 0.111638
C47   C     C_3   0.472113 0.935184 0.751483 -0.455167
C48   C     C_3   0.473013 0.075518 0.749330 -0.461272
H16   H     H_    0.437812 0.896648 0.792763 0.202406
H17   H     H_    0.505395 0.895361 0.796537 0.197075
H18   H     H_    0.439119 0.118100 0.788679 0.195704
H19   H     H_    0.506656 0.115572 0.793696 0.211180
C49   C     C_R   0.540432 0.532611 0.073733 0.259811
N3    N     N_R   0.500300 0.500930 0.147930 -0.183110
C50   C     C_R   0.461962 0.454584 0.074244 -0.084442
H20   H     H_    0.430895 0.419191 0.129465 0.148731
C51   C     C_R   0.461944 0.454679 0.925429 -0.077745
H21   H     H_    0.430838 0.419538 0.870072 0.137725
N4    N     N_R   0.500310 0.500890 0.852020 -0.183871
C52   C     C_R   0.540567 0.531846 0.926348 0.255349
C53   C     C_3   0.566787 0.651976 0.920821 -0.495866
C54   C     C_3   0.566091 0.653578 0.079992 -0.503934
H22   H     H_    0.603600 0.641909 0.876450 0.192266
H23   H     H_    0.544957 0.726482 0.873653 0.210098
H24   H     H_    0.602519 0.645357 0.127118 0.194139
H25   H     H_    0.543322 0.728700 0.124272 0.211583
C55   C     C_3   0.352746 0.291052 0.646480 -0.452150
C56   C     C_3   0.345846 0.170313 0.564996 -0.790891
H26   H     H_    0.306975 0.147762 0.554357 0.269055
H27   H     H_    0.362269 0.177882 0.458998 0.252286
H28   H     H_    0.363678 0.093536 0.621593 0.239966
H29   H     H_    0.391909 0.304673 0.660680 0.215941
H30   H     H_    0.336991 0.281622 0.753151 0.205075
C57   C     C_3   0.969856 0.854929 0.471214 -0.422213
C58   C     C_3   0.963562 0.946382 0.593251 -0.837941
H31   H     H_    0.925742 0.979432 0.598609 0.254575
H32   H     H_    0.972748 0.903527 0.695129 0.254169
H33   H     H_    0.987275 0.027775 0.576932 0.244374
H34   H     H_    0.008125 0.849828 0.438939 0.212379
H35   H     H_    0.951273 0.893752 0.378128 0.203187
C59   C     C_3   0.557254 0.120008 0.275419 -0.368443
C60   C     C_3   0.530363 0.132017 0.136538 -0.793073
H36   H     H_    0.497053 0.187525 0.150302 0.265058
H37   H     H_    0.553792 0.178637 0.058528 0.229050
H38   H     H_    0.520534 0.039099 0.095160 0.241253
H39   H     H_    0.571373 0.211342 0.309396 0.209688
H40   H     H_    0.589786 0.061918 0.257948 0.193904

loop_
_geom_bond_atom_site_label_1
_geom_bond_atom_site_label_2
_geom_bond_distance
_ccdc_geom_bond_type
C48   H19   1.112328 S    
C57   H34   1.106806 S    
C10   H1    1.083719 S    
C43   C44   1.399239 A    
C7    C8    1.391347 A    
C12   C15   1.407284 A    
C4    C17   1.473436 S    
C41   C48   1.493854 S    
Cu1   Cu2   2.682879 S    
C40   H14   1.075196 S    
C46   C47   1.493077 S    
Cu1   O7    1.946524 S    
C25   C39   1.396553 A    
N1    C11   1.436531 S    
C44   C45   1.401263 A    
C39   H12   1.083623 S    
C22   C23   1.397234 A    
C37   C40   1.390932 A    
N3    C50   1.369320 A    
O4    C2    1.295714 A    
O7    C4    1.299692 A    
C50   C51   1.419116 A    
C5    C13   1.403860 A    
C58   H31   1.110291 S    
C5    O9    1.349713 S    
C55   C56   1.527191 S    
C5    N1    1.369733 A    
Cu2   N3    2.016014 S    
N2    C27   1.366967 A    
C23   C27   1.403525 A    
O5    C3    1.291725 A    
C31   H13   1.082908 S    
C49   N3    1.363358 A    
C6    O11   1.349636 S    
C2    C16   1.464062 S    
C21   C22   1.388701 A    
C30   H11   1.082803 S    
C49   C52   1.405451 A    
C8    H8    1.083825 S    
C19   C38   1.433746 A    
C60   H38   1.111132 S    
C57   H35   1.112250 S    
O1    Cu1   1.959905 S    
C9    C10   1.403735 A    
O3    Cu1   1.947597 S    
C29   H3    1.081999 S    
C59   C60   1.527768 S    
C19   C20   1.423625 A    
C12   C34   1.418803 A    
C24   C25   1.405045 A    
C17   C29   1.406085 A    
C18   C21   1.413447 A    
C12   C13   1.407346 A    
O3    C2    1.295359 A    
C44   H15   1.083216 S    
C52   C53   1.489742 S    
C47   C48   1.517968 S    
C8    C16   1.402472 A    
C34   C35   1.418062 A    
C13   C14   1.398666 A    
C30   C31   1.393277 A    
Cu1   N4    2.015444 S    
C53   H23   1.106820 S    
O1    C1    1.294935 A    
C35   C40   1.409667 A    
C18   C20   1.422160 A    
C7    C11   1.398365 A    
C28   C29   1.395785 A    
C23   C24   1.409739 A    
C14   C36   1.391186 A    
C48   H18   1.111451 S    
C28   H4    1.082808 S    
C56   H26   1.110766 S    
C3    C45   1.439397 S    
Cu2   O8    1.947591 S    
C33   C36   1.414043 A    
C53   H22   1.110529 S    
N1    C6    1.369465 A    
N2    C32   1.432653 S    
C27   O10   1.349713 S    
C45   C46   1.391160 A    
C26   N2    1.367275 A    
C56   H27   1.111562 S    
C9    C16   1.419367 A    
C51   N4    1.369290 A    
C14   H2    1.083358 S    
C54   H24   1.111207 S    
C26   O12   1.349713 S    
C38   C57   1.522202 S    
C54   H25   1.110469 S    
C41   C46   1.374448 A    
C50   H20   1.080712 S    
C43   C59   1.517355 S    
C60   H36   1.109943 S    
Cu1   O5    1.962596 S    
C31   C32   1.398841 A    
C37   H10   1.083276 S    
C21   H6    1.077993 S    
C20   C24   1.417601 A    
O2    Cu2   1.962598 S    
C6    C15   1.403752 A    
O8    C4    1.297434 A    
C42   C43   1.423359 A    
O6    C3    1.288930 A    
O4    Cu2   1.946527 S    
C19   C35   1.423922 A    
C57   C58   1.532203 S    
O2    C1    1.287119 A    
C41   C42   1.395490 A    
C22   H5    1.083537 S    
C15   C37   1.398351 A    
C59   H40   1.112180 S    
C9    C55   1.517427 S    
C47   H17   1.108179 S    
N4    C52   1.364793 A    
C59   H39   1.108991 S    
C58   H32   1.109271 S    
C7    H9    1.082881 S    
C55   H30   1.111772 S    
C53   C54   1.517944 S    
C1    C42   1.443040 S    
C47   H16   1.111494 S    
C49   C54   1.489884 S    
C18   C33   1.417456 A    
C36   H7    1.078502 S    
C38   C39   1.401793 A    
C25   C26   1.405350 A    
C56   H28   1.110386 S    
C51   H21   1.080423 S    
Cu2   O6    1.959904 S    
C33   C34   1.415552 A    
C17   C30   1.406488 A    
C10   C11   1.400567 A    
C28   C32   1.399848 A    
C55   H29   1.105448 S    
C60   H37   1.110430 S    
C58   H33   1.110262 S    
