data_mof_unit_44567.cif
_audit_creation_date              2012-12-10T20:30:16-0500
_audit_creation_method            fapswitch 2.2
_symmetry_space_group_name_H-M    P1
_symmetry_Int_Tables_number       1
_space_group_crystal_system       triclinic
_cell_length_a                    9.865765
_cell_length_b                    10.686214
_cell_length_c                    13.116067
_cell_angle_alpha                 89.877309
_cell_angle_beta                  70.064425
_cell_angle_gamma                 90.129303
_cell_volume                      1299.92506071

loop_
_atom_site_label
_atom_site_type_symbol
_atom_type_description
_atom_site_fract_x
_atom_site_fract_y
_atom_site_fract_z
_atom_type_partial_charge
C1    C     C_R   0.498952 0.740048 0.502288 0.893190
C2    C     C_R   0.430690 0.461580 0.984446 0.082549
C3    C     C_R   0.462470 0.432653 0.874460 0.052856
C4    C     C_R   0.542051 0.450402 0.028767 0.005615
C5    C     C_R   0.674157 0.390681 0.969955 0.141121
C6    C     C_R   0.694599 0.342791 0.866435 0.438825
C7    C     C_R   0.588034 0.363236 0.819917 -0.282245
C8    C     C_R   0.526541 0.501560 0.129278 -0.224675
C9    C     C_R   0.758089 0.421258 0.122287 -0.238388
C10   C     C_R   0.368368 0.475980 0.821607 -0.096259
C11   C     C_R   0.371966 0.936415 0.510638 0.038151
C12   C     C_R   0.420192 0.491763 0.703997 0.847097
C13   C     C_R   0.491270 0.871603 0.516963 -0.077640
C14   C     C_R   0.598776 0.935492 0.543818 -0.191669
C15   C     C_R   0.597956 0.064951 0.545301 -0.213639
C16   C     C_R   0.489180 0.128814 0.520353 -0.073777
C17   C     C_R   0.369894 0.063917 0.514109 0.133320
C18   C     C_3   0.291567 0.075144 0.434887 -0.523693
C19   C     C_3   0.294315 0.932796 0.429926 -0.228086
C20   C     C_R   0.887625 0.531692 0.591481 0.214798
C21   C     C_R   0.967210 0.457619 0.413094 -0.145860
C22   C     C_R   0.111038 0.457356 0.413161 -0.098488
C23   C     C_R   0.498200 0.260077 0.503590 0.872578
C24   C     C_R   0.030241 0.531396 0.591431 0.152374
C25   C     C_3   0.011589 0.652848 0.649914 -0.466865
C26   C     C_3   0.857996 0.654470 0.649079 0.214112
C27   C     C_R   0.579966 0.499047 0.295628 0.896048
C28   C     C_R   0.782416 0.378765 0.017041 -0.123253
C29   C     C_R   0.627812 0.480098 0.179084 -0.047439
C30   C     C_R   0.229969 0.518163 0.882585 -0.180367
C31   C     C_R   0.188973 0.526128 0.994596 -0.140955
C32   C     C_R   0.289021 0.501483 0.045373 -0.171128
H1    H     H_    0.837797 0.403662 0.160462 0.153744
H2    H     H_    0.686458 0.114107 0.558854 0.163500
H3    H     H_    0.181213 0.113436 0.473498 0.201024
H4    H     H_    0.356678 0.123490 0.358574 0.216975
H5    H     H_    0.185006 0.890524 0.464230 0.147639
H6    H     H_    0.944954 0.425441 0.342251 0.149584
H7    H     H_    0.196659 0.424438 0.342299 0.148894
H8    H     H_    0.019239 0.642040 0.732073 0.222054
H9    H     H_    0.080436 0.728277 0.599852 0.166064
H10   H     H_    0.836045 0.732249 0.600284 0.090686
H11   H     H_    0.883785 0.333127 0.974330 0.192789
H12   H     H_    0.432978 0.556044 0.172545 0.160989
H13   H     H_    0.154851 0.547990 0.843558 0.160489
H14   H     H_    0.251598 0.511281 0.132432 0.132389
H15   H     H_    0.081386 0.556912 0.041797 0.154752
H16   H     H_    0.603529 0.323051 0.741133 0.157146
H17   H     H_    0.687432 0.886698 0.556887 0.155935
N1    N     N_R   0.856940 0.500860 0.500710 -0.139210
N2    N     N_R   0.142580 0.500820 0.500710 -0.102506
O1    O     O_R   0.385310 0.683210 0.499990 -0.615360
O2    O     O_R   0.614650 0.683240 0.500000 -0.623242
O3    O     O_R   0.328390 0.499940 0.653610 -0.609502
O4    O     O_R   0.557730 0.499980 0.653620 -0.615697
O5    O     O_R   0.385350 0.316760 0.500000 -0.610373
O6    O     O_R   0.614690 0.316790 0.500010 -0.628516
O7    O     O_R   0.442270 0.500020 0.346380 -0.615221
O8    O     O_R   0.671610 0.500060 0.346390 -0.612795
Zn1   Zn    Zn3+2 0.346870 0.499980 0.499990 0.964147
Zn2   Zn    Zn3+2 0.653130 0.500020 0.500010 0.943824
C33   C     C_2   0.381338 0.882052 0.319749 0.974160
O9    O     O_2   0.506367 0.915330 0.274516 -0.627565
O10   O     O_R   0.316748 0.797640 0.269083 -0.811269
H18   H     H_    0.382974 0.773932 0.193850 0.334713
O11   O     O_3   0.757088 0.642253 0.753958 -0.730429
H19   H     H_    0.664268 0.673444 0.750270 0.345727
O12   O     O_3   0.819966 0.279102 0.811301 -0.782551
H20   H     H_    0.818233 0.254300 0.738931 0.328804

loop_
_geom_bond_atom_site_label_1
_geom_bond_atom_site_label_2
_ccdc_geom_bond_type
C2    C4    A    
C15   H2    S    
O6    Zn2   S    
C6    C7    A    
O3    Zn1   S    
C13   C14   A    
C27   C29   S    
C5    C28   A    
O1    Zn1   S    
C18   H3    S    
C10   C30   A    
C30   H13   S    
C33   O10   S    
C31   C32   A    
C9    C29   A    
C30   C31   A    
C4    C8    A    
C32   H14   S    
C7    H16   S    
C24   N2    A    
C6    O12   S    
C17   C18   S    
C23   O5    A    
C3    C10   A    
C27   O8    A    
C21   C22   A    
O10   H18   S    
C9    H1    S    
C11   C13   A    
C11   C19   S    
C33   O9    D    
C10   C12   S    
C27   O7    A    
C28   H11   S    
C22   H7    S    
O4    Zn2   S    
C21   N1    A    
C31   H15   S    
C2    C3    A    
C16   C23   S    
C3    C7    A    
C25   H8    S    
C5    C6    A    
C1    O1    A    
O8    Zn2   S    
C12   O4    A    
C1    C13   S    
C8    C29   A    
C19   C33   S    
O7    Zn1   S    
C15   C16   A    
C14   H17   S    
C16   C17   A    
O5    Zn1   S    
O11   H19   S    
C24   C25   S    
C26   H10   S    
O2    Zn2   S    
C2    C32   A    
C18   C19   S    
C25   H9    S    
C23   O6    A    
N1    Zn2   S    
C1    O2    A    
C14   C15   A    
C4    C5    A    
C20   N1    A    
N2    Zn1   S    
C19   H5    S    
C25   C26   S    
O12   H20   S    
C18   H4    S    
C11   C17   A    
C12   O3    A    
C21   H6    S    
C20   C24   A    
C9    C28   A    
C22   N2    A    
C20   C26   S    
C8    H12   S    
C26   O11   S    
