data_mof_unit_16264.cif
_audit_creation_date              2012-12-11T14:38:19-0500
_audit_creation_method            fapswitch 2.2
_symmetry_space_group_name_H-M    P1
_symmetry_Int_Tables_number       1
_space_group_crystal_system       triclinic
_cell_length_a                    19.589939
_cell_length_b                    11.105934
_cell_length_c                    19.636686
_cell_angle_alpha                 89.836119
_cell_angle_beta                  96.988545
_cell_angle_gamma                 89.657824
_cell_volume                      4240.40315454

loop_
_atom_site_label
_atom_site_type_symbol
_atom_type_description
_atom_site_fract_x
_atom_site_fract_y
_atom_site_fract_z
_atom_type_partial_charge
C1    C     C_R   0.724352 0.955101 0.360800 0.543479
C2    C     C_3   0.175885 0.484863 0.468701 -0.208436
C3    C     C_3   0.324028 0.983777 0.530762 -0.209739
C4    C     C_3   0.675886 0.984863 0.468701 -0.208361
C5    C     C_3   0.763581 0.293603 0.554161 -0.262676
C6    C     C_3   0.236840 0.293405 0.446417 -0.263627
C7    C     C_3   0.263581 0.793603 0.554161 -0.262651
C8    C     C_3   0.736841 0.793405 0.446416 -0.263684
C9    C     C_3   0.763065 0.428713 0.566303 0.063672
C10   C     C_3   0.237010 0.428454 0.433603 0.066292
C11   C     C_3   0.263065 0.928713 0.566303 0.063691
C12   C     C_R   0.275734 0.955322 0.639076 0.552508
C13   C     C_3   0.737011 0.928454 0.433603 0.066140
C14   C     C_3   0.747312 0.393098 0.434948 0.055887
C15   C     C_3   0.252558 0.393287 0.565052 0.055253
C16   C     C_3   0.247311 0.893097 0.434949 0.056112
C17   C     C_3   0.752559 0.893287 0.565052 0.055185
C18   C     C_3   0.807843 0.479063 0.452327 -0.258093
C19   C     C_3   0.191960 0.480399 0.547167 -0.259045
C20   C     C_3   0.307842 0.979063 0.452328 -0.257921
C21   C     C_3   0.691960 0.980399 0.547166 -0.259060
C22   C     C_3   0.765210 0.275642 0.477259 -0.221147
C23   C     C_R   0.224351 0.455101 0.360801 0.542975
C24   C     C_3   0.234787 0.275992 0.523302 -0.220554
C25   C     C_3   0.265210 0.775642 0.477260 -0.221174
C26   C     C_3   0.734787 0.775992 0.523301 -0.220487
C27   C     C_3   0.553092 0.273612 0.948459 -0.233176
C28   C     C_3   0.576398 0.275473 0.025955 -0.239908
C29   C     C_3   0.928125 0.737293 0.968538 -0.217237
C30   C     C_3   0.944704 0.735996 0.046647 -0.248748
C31   C     C_3   0.437169 0.194186 0.972155 -0.227944
C32   C     C_3   0.557919 0.052151 0.031059 -0.231211
C33   C     C_3   0.991417 0.539880 0.961142 -0.235718
C34   C     C_R   0.775733 0.455322 0.639076 0.552561
C35   C     C_3   0.071597 0.736861 0.031173 -0.219141
C36   C     C_3   0.533042 0.050305 0.953117 -0.239649
C37   C     C_3   0.460754 0.194174 0.049232 -0.222963
C38   C     C_3   0.055043 0.734915 0.953072 -0.248310
C39   C     C_3   0.009050 0.540147 0.039550 -0.233734
C40   C     C_R   0.536187 0.180355 0.338605 0.542560
C41   C     C_R   0.463802 0.180241 0.661389 0.535707
C42   C     C_R   0.036185 0.680354 0.338605 0.535261
C43   C     C_R   0.963800 0.680242 0.661388 0.538283
C44   C     C_3   0.499010 0.172959 0.930967 0.055055
C45   C     C_3   0.680918 0.449998 0.456827 -0.232226
C46   C     C_3   0.539610 0.175216 0.062541 0.045368
C47   C     C_3   0.985682 0.671628 0.933905 0.053411
C48   C     C_3   0.014296 0.672147 0.066128 0.053531
C49   C     C_1   0.781208 0.474660 0.914724 -0.022909
C50   C     C_1   0.237355 0.427494 0.095433 -0.011202
C51   C     C_1   0.280538 0.973131 0.914424 -0.017736
C52   C     C_1   0.738342 0.925519 0.096084 -0.018155
C53   C     C_1   0.758481 0.436652 0.041768 -0.050884
C54   C     C_1   0.252061 0.406354 0.965459 -0.051449
C55   C     C_1   0.257682 0.934902 0.041305 -0.046634
C56   C     C_3   0.318957 0.448794 0.543006 -0.232375
C57   C     C_1   0.752965 0.904247 0.966068 -0.054225
C58   C     C_1   0.770535 0.458633 0.973306 -0.052377
C59   C     C_1   0.245642 0.416039 0.036006 -0.049777
C60   C     C_1   0.269668 0.956744 0.972877 -0.049887
C61   C     C_1   0.746848 0.913596 0.036720 -0.054578
C62   C     C_1   0.748396 0.409425 0.099215 -0.020024
C63   C     C_1   0.256911 0.391960 0.905457 -0.012496
C64   C     C_1   0.247871 0.908184 0.098860 -0.014628
C65   C     C_1   0.757404 0.890571 0.905912 -0.017113
C66   C     C_R   0.738857 0.360361 0.362072 0.541545
C67   C     C_3   0.180917 0.949997 0.456827 -0.232264
C68   C     C_R   0.261019 0.360468 0.638000 0.541422
C69   C     C_R   0.238856 0.860361 0.362073 0.540431
C70   C     C_R   0.761019 0.860468 0.638000 0.541643
C71   C     C_R   0.722200 0.953885 0.163465 0.534123
C72   C     C_R   0.294542 0.996156 0.845505 0.554528
C73   C     C_R   0.221922 0.454495 0.163190 0.541806
C74   C     C_R   0.794768 0.496703 0.845494 0.550518
C75   C     C_R   0.561714 0.182149 0.137090 0.549948
C76   C     C_R   0.470734 0.178719 0.857885 0.530550
C77   C     C_R   0.034066 0.679218 0.140104 0.541237
C78   C     C_3   0.818958 0.948794 0.543006 -0.232308
C79   C     C_R   0.965976 0.678770 0.859894 0.536024
C80   C     C_R   0.736654 0.361208 0.164697 0.537952
C81   C     C_R   0.264167 0.357922 0.836414 0.540049
C82   C     C_R   0.236536 0.860887 0.164587 0.544164
C83   C     C_R   0.764287 0.857542 0.836593 0.537852
C84   C     C_1   0.485164 0.172735 0.594298 -0.029721
C85   C     C_1   0.514782 0.172756 0.405684 -0.031899
C86   C     C_1   0.985158 0.672736 0.594294 -0.030127
C87   C     C_1   0.014775 0.672755 0.405681 -0.030647
C88   C     C_1   0.504397 0.169550 0.464882 -0.069160
C89   C     C_3   0.824028 0.483777 0.530761 -0.209606
C90   C     C_1   0.495526 0.169550 0.535100 -0.068594
C91   C     C_1   0.004388 0.669550 0.464878 -0.068936
C92   C     C_1   0.995517 0.669550 0.535096 -0.068816
C93   C     C_3   0.690755 0.473370 0.534080 -0.238291
C94   C     C_3   0.309175 0.472177 0.465691 -0.238439
C95   C     C_3   0.190755 0.973370 0.534080 -0.238336
C96   C     C_3   0.809175 0.972177 0.465691 -0.238448
Cr1   Cr    Cr6+3 0.765780 0.160710 0.267420 1.010590
Cr2   Cr    Cr6+3 0.383970 0.323720 0.751490 1.011446
Cr3   Cr    Cr6+3 0.116030 0.823720 0.248510 1.012824
Cr4   Cr    Cr6+3 0.883970 0.823720 0.751490 1.010951
Cr5   Cr    Cr6+3 0.234220 0.160710 0.732580 1.015585
Cr6   Cr    Cr6+3 0.265780 0.660710 0.267420 1.017473
Cr7   Cr    Cr6+3 0.734220 0.660710 0.732580 1.013777
Cr8   Cr    Cr6+3 0.612200 0.009560 0.248850 1.011934
Cr9   Cr    Cr6+3 0.387800 0.009560 0.751150 1.010415
Cr10  Cr    Cr6+3 0.112200 0.509560 0.248850 1.011917
Cr11  Cr    Cr6+3 0.887800 0.509560 0.751150 1.009877
Cr12  Cr    Cr6+3 0.616030 0.323720 0.248510 1.010022
H1    H     H_    0.682142 0.567970 0.544532 0.130989
H2    H     H_    0.129057 0.429484 0.454540 0.140246
H3    H     H_    0.370940 0.927593 0.545162 0.139751
H4    H     H_    0.629058 0.929484 0.454540 0.140215
H5    H     H_    0.854263 0.447692 0.429738 0.129820
H6    H     H_    0.145543 0.450167 0.569897 0.130234
H7    H     H_    0.354262 0.947693 0.429738 0.130252
H8    H     H_    0.645544 0.950168 0.569897 0.130040
H9    H     H_    0.531390 0.363778 0.932903 0.151176
H10   H     H_    0.633081 0.261751 0.035337 0.112675
H11   H     H_    0.877663 0.692931 0.953851 0.107311
H12   H     H_    0.317479 0.566671 0.454853 0.132211
H13   H     H_    0.946362 0.830217 0.065983 0.141337
H14   H     H_    0.598221 0.258112 0.920132 0.123354
H15   H     H_    0.564927 0.365734 0.046475 0.147887
H16   H     H_    0.922498 0.832755 0.951171 0.151764
H17   H     H_    0.903449 0.688292 0.070077 0.118592
H18   H     H_    0.411518 0.281889 0.957520 0.138817
H19   H     H_    0.614414 0.037391 0.039512 0.124383
H20   H     H_    0.941904 0.491882 0.947723 0.142467
H21   H     H_    0.076799 0.832405 0.047958 0.149258
H22   H     H_    0.445469 0.281291 0.071039 0.147426
H23   H     H_    0.182142 0.067970 0.544532 0.130976
H24   H     H_    0.577309 0.032531 0.923957 0.123532
H25   H     H_    0.968808 0.490870 0.063651 0.128836
H26   H     H_    0.053051 0.828991 0.933136 0.143710
H27   H     H_    0.495626 0.975850 0.941892 0.142654
H28   H     H_    0.434086 0.121282 0.074481 0.133578
H29   H     H_    0.096502 0.686545 0.929984 0.120140
H30   H     H_    0.058777 0.491684 0.053226 0.150072
H31   H     H_    0.533427 0.976700 0.056278 0.148850
H32   H     H_    0.398072 0.122629 0.960254 0.110761
H33   H     H_    0.122247 0.692040 0.046202 0.119396
H34   H     H_    0.817479 0.066671 0.454853 0.132276
H35   H     H_    0.031854 0.490021 0.937324 0.129629
H36   H     H_    0.649845 0.425722 0.558141 0.117817
H37   H     H_    0.350268 0.423964 0.441873 0.117109
H38   H     H_    0.149845 0.925722 0.558141 0.117993
H39   H     H_    0.850268 0.923964 0.441873 0.116776
H40   H     H_    0.636797 0.387719 0.444606 0.146192
H41   H     H_    0.363116 0.385636 0.555499 0.146822
H42   H     H_    0.136796 0.887717 0.444607 0.146432
H43   H     H_    0.863116 0.885635 0.555499 0.146692
H44   H     H_    0.668191 0.535636 0.428538 0.117399
H45   H     H_    0.818851 0.250246 0.470384 0.131943
H46   H     H_    0.331597 0.534262 0.570939 0.118084
H47   H     H_    0.168190 0.035635 0.428539 0.117245
H48   H     H_    0.831598 0.034261 0.570939 0.118124
H49   H     H_    0.341459 0.073385 0.548937 0.107437
H50   H     H_    0.658498 0.074726 0.449905 0.107676
H51   H     H_    0.841459 0.573385 0.548936 0.107270
H52   H     H_    0.158498 0.574726 0.449905 0.107988
H53   H     H_    0.294329 0.067991 0.430351 0.110076
H54   H     H_    0.705367 0.069266 0.568540 0.110811
H55   H     H_    0.794330 0.567991 0.430350 0.109884
H56   H     H_    0.181046 0.252027 0.530025 0.132366
H57   H     H_    0.205367 0.569266 0.568540 0.110921
H58   H     H_    0.808809 0.248274 0.583471 0.128937
H59   H     H_    0.191924 0.248471 0.417093 0.128258
H60   H     H_    0.308810 0.748274 0.583471 0.128900
H61   H     H_    0.691925 0.748470 0.417093 0.128379
H62   H     H_    0.716380 0.255257 0.570971 0.109070
H63   H     H_    0.284371 0.254353 0.430272 0.108363
H64   H     H_    0.216381 0.755256 0.570971 0.109245
H65   H     H_    0.784371 0.754353 0.430272 0.108062
H66   H     H_    0.730603 0.204147 0.458260 0.124240
H67   H     H_    0.318851 0.750246 0.470384 0.131954
H68   H     H_    0.269156 0.203683 0.542983 0.124606
H69   H     H_    0.230603 0.704146 0.458261 0.124117
H70   H     H_    0.769156 0.703682 0.542983 0.124621
H71   H     H_    0.681046 0.752027 0.530024 0.132375
H72   H     H_    0.870940 0.427593 0.545162 0.139740
O1    O     O_R   0.783100 0.287550 0.345460 -0.530563
O2    O     O_R   0.454350 0.284910 0.836260 -0.521737
O3    O     O_R   0.045650 0.784910 0.163740 -0.524100
O4    O     O_R   0.954350 0.784910 0.836260 -0.521871
O5    O     O_R   0.677950 0.374280 0.185410 -0.510851
O6    O     O_R   0.322050 0.374280 0.814590 -0.495525
O7    O     O_R   0.177950 0.874280 0.185410 -0.500034
O8    O     O_R   0.822050 0.874280 0.814590 -0.498856
O9    O     O_3   0.664670 0.164660 0.254930 -0.274115
O10   O     O_3   0.335330 0.164660 0.745070 -0.275951
O11   O     O_3   0.164670 0.664660 0.254930 -0.258298
O12   O     O_R   0.216900 0.287550 0.654540 -0.530822
O13   O     O_3   0.835330 0.664660 0.745070 -0.277956
O14   O     O_R   0.760020 0.037400 0.337700 -0.513340
O15   O     O_R   0.239980 0.037400 0.662300 -0.509780
O16   O     O_R   0.260020 0.537400 0.337700 -0.514583
O17   O     O_R   0.739980 0.537400 0.662300 -0.509663
O18   O     O_R   0.666600 0.921990 0.332020 -0.524750
O19   O     O_R   0.333400 0.921990 0.667980 -0.521967
O20   O     O_R   0.166600 0.421990 0.332020 -0.525323
O21   O     O_R   0.833400 0.421990 0.667980 -0.521619
O22   O     O_R   0.557260 0.082670 0.312540 -0.494487
O23   O     O_R   0.283100 0.787550 0.345460 -0.531443
O24   O     O_R   0.442740 0.082670 0.687460 -0.500372
O25   O     O_R   0.057260 0.582670 0.312540 -0.498746
O26   O     O_R   0.942740 0.582670 0.687460 -0.498783
O27   O     O_R   0.548410 0.285740 0.316480 -0.509875
O28   O     O_R   0.451590 0.285740 0.683520 -0.511992
O29   O     O_R   0.048410 0.785740 0.316480 -0.513426
O30   O     O_R   0.951590 0.785740 0.683520 -0.510419
O31   O     O_R   0.680500 0.375040 0.327000 -0.506015
O32   O     O_R   0.319500 0.375040 0.673000 -0.503935
O33   O     O_R   0.180500 0.875040 0.327000 -0.506694
O34   O     O_R   0.716900 0.787550 0.654540 -0.530713
O35   O     O_R   0.819500 0.875040 0.673000 -0.503591
O36   O     O_R   0.780350 0.286720 0.192720 -0.505606
O37   O     O_R   0.219650 0.286720 0.807280 -0.513696
O38   O     O_R   0.280350 0.786720 0.192720 -0.505131
O39   O     O_R   0.719650 0.786720 0.807280 -0.513585
O40   O     O_R   0.757470 0.036630 0.196110 -0.495430
O41   O     O_R   0.242530 0.036630 0.803890 -0.489133
O42   O     O_R   0.257470 0.536630 0.196110 -0.493676
O43   O     O_R   0.742530 0.536630 0.803890 -0.488425
O44   O     O_R   0.663840 0.921160 0.179280 -0.517750
O45   O     O_R   0.554710 0.081900 0.170950 -0.503947
O46   O     O_R   0.336160 0.921160 0.820720 -0.503267
O47   O     O_R   0.163840 0.421160 0.179280 -0.514062
O48   O     O_R   0.836160 0.421160 0.820720 -0.505772
O49   O     O_R   0.445290 0.081900 0.829050 -0.520252
O50   O     O_R   0.054710 0.581900 0.170950 -0.508129
O51   O     O_R   0.945290 0.581900 0.829050 -0.522798
O52   O     O_R   0.545650 0.284910 0.163740 -0.520566

loop_
_geom_bond_atom_site_label_1
_geom_bond_atom_site_label_2
_ccdc_geom_bond_type
Cr1   O14   S    
C95   H23   S    
C7    H60   S    
Cr4   O35   S    
C8    C13   S    
C53   C58   S    
C87   C91   T    
C45   H40   S    
C8    C26   S    
C14   C18   S    
C1    O18   A    
C47   C79   S    
Cr2   O10   S    
Cr5   O12   S    
C45   C93   S    
Cr10  O25   S    
Cr3   O7    S    
C28   H15   S    
Cr8   O45   S    
C80   O36   A    
C26   H71   S    
C33   H35   S    
C56   C94   S    
C29   H11   S    
C28   C46   S    
C77   O50   A    
C33   C39   S    
C73   O42   A    
C63   C81   S    
C17   C26   S    
C32   C36   S    
C32   H19   S    
C30   C48   S    
Cr4   O8    S    
Cr11  O21   S    
Cr11  O51   S    
C52   C61   T    
C21   H8    S    
Cr3   O29   S    
C25   H69   S    
C65   C83   S    
C54   C63   T    
C10   C94   S    
C34   O21   A    
Cr5   O41   S    
C29   H16   S    
C79   O4    A    
C42   O25   A    
C67   H47   S    
Cr7   O17   S    
C89   H72   S    
C4    C13   S    
C44   C76   S    
C43   O30   A    
Cr11  O26   S    
C74   O48   A    
Cr7   O43   S    
C94   H12   S    
C27   C44   S    
C38   H29   S    
C2    C10   S    
C4    H50   S    
C5    C22   S    
C78   C96   S    
Cr1   O36   S    
C23   O16   A    
C64   C82   S    
Cr4   O4    S    
C5    H62   S    
C31   H32   S    
C71   O44   A    
C93   H1    S    
C35   H21   S    
Cr3   O3    S    
C50   C59   T    
C6    H63   S    
C45   H44   S    
C94   H37   S    
Cr1   O9    S    
C4    H4    S    
C30   H17   S    
C6    C24   S    
C17   C70   S    
C72   O46   A    
C7    H64   S    
Cr11  O48   S    
C43   O26   A    
C67   C95   S    
C18   C89   S    
Cr2   O28   S    
C24   H56   S    
C95   H38   S    
C84   C90   T    
Cr10  O11   S    
Cr12  O27   S    
C76   O2    A    
C35   C48   S    
C18   H5    S    
C46   C75   S    
C22   H66   S    
C27   H14   S    
C78   H43   S    
C89   H51   S    
C14   C45   S    
C54   C59   S    
C27   H9    S    
C37   H28   S    
C31   C44   S    
C13   C96   S    
C70   O34   A    
Cr12  O5    S    
C75   O45   A    
C35   C38   S    
C69   O33   A    
C32   H31   S    
C56   H46   S    
Cr5   O10   S    
C50   C73   S    
C9    C89   S    
C91   C92   S    
C73   O47   A    
Cr6   O38   S    
C8    H65   S    
Cr9   O24   S    
Cr3   O33   S    
C19   H6    S    
C5    H58   S    
C41   C84   S    
Cr2   O32   S    
C74   O43   A    
C33   H20   S    
C17   C21   S    
C49   C58   T    
C31   C37   S    
Cr10  O50   S    
Cr9   O49   S    
C40   C85   S    
Cr2   O2    S    
C15   C19   S    
Cr6   O23   S    
C5    C9    S    
C29   C30   S    
C29   C47   S    
C83   O39   A    
C18   H55   S    
C25   H67   S    
C7    C11   S    
C82   O38   A    
C30   H13   S    
C16   C20   S    
C81   O37   A    
C55   C64   T    
C48   C77   S    
Cr6   O11   S    
C14   C66   S    
Cr1   O40   S    
C3    C20   S    
C16   C67   S    
Cr9   O46   S    
C41   O24   A    
C57   C61   S    
C93   H36   S    
Cr7   O34   S    
C79   O51   A    
C38   C47   S    
C42   O29   A    
C35   H33   S    
C76   O49   A    
C15   C24   S    
C37   H22   S    
C88   C90   S    
C62   C80   S    
C20   H53   S    
C9    C34   S    
C33   C47   S    
C12   O15   A    
C3    H3    S    
Cr12  O9    S    
C36   C44   S    
C1    C13   S    
C51   C72   S    
C70   O35   A    
C24   H68   S    
C36   H27   S    
C9    C93   S    
C81   O6    A    
Cr11  O13   S    
Cr12  O31   S    
C8    H61   S    
Cr6   O42   S    
Cr10  O20   S    
Cr12  O52   S    
C85   C88   T    
C11   C95   S    
C16   C25   S    
C56   H41   S    
C96   H39   S    
C40   O27   A    
C6    H59   S    
C2    H2    S    
C21   H54   S    
C2    C19   S    
Cr10  O47   S    
C43   C86   S    
C32   C46   S    
Cr9   O10   S    
C66   O1    A    
C16   C69   S    
C40   O22   A    
Cr6   O16   S    
C6    C10   S    
C20   H7    S    
C11   C12   S    
Cr1   O1    S    
C51   C60   T    
C10   C23   S    
C39   H25   S    
C26   H70   S    
C15   C68   S    
C7    C25   S    
C82   O7    A    
C80   O5    A    
C15   C56   S    
Cr4   O13   S    
C41   O28   A    
C36   H24   S    
C1    O14   A    
C66   O31   A    
Cr2   O6    S    
C52   C71   S    
C86   C92   T    
Cr3   O11   S    
C4    C21   S    
C34   O17   A    
C14   C22   S    
C72   O41   A    
C23   O20   A    
Cr4   O30   S    
C17   C78   S    
C77   O3    A    
C12   O19   A    
Cr8   O44   S    
C38   H26   S    
C75   O52   A    
C83   O8    A    
Cr8   O18   S    
C39   H30   S    
C3    C11   S    
C71   O40   A    
C96   H34   S    
Cr5   O37   S    
Cr9   O19   S    
C19   H57   S    
C53   C62   T    
C2    H52   S    
Cr7   O39   S    
C27   C28   S    
C78   H48   S    
C68   O12   A    
C49   C74   S    
C67   H42   S    
C28   H10   S    
C42   C87   S    
Cr7   O13   S    
C31   H18   S    
C37   C46   S    
C55   C60   S    
Cr8   O9    S    
C69   O23   A    
C3    H49   S    
Cr5   O15   S    
Cr8   O22   S    
C39   C48   S    
C57   C65   T    
C22   H45   S    
C68   O32   A    
