data_mof_unit_11313.cif
_audit_creation_date              2012-10-26T20:48:49-0400
_audit_creation_method            fapswitch 2.2
_symmetry_space_group_name_H-M    P1
_symmetry_Int_Tables_number       1
_space_group_crystal_system       triclinic
_cell_length_a                    15.214795
_cell_length_b                    13.87202
_cell_length_c                    9.097981
_cell_angle_alpha                 89.420205
_cell_angle_beta                  90.941506
_cell_angle_gamma                 90.140819
_cell_volume                      1919.85673859

loop_
_atom_site_label
_atom_site_type_symbol
_atom_type_description
_atom_site_fract_x
_atom_site_fract_y
_atom_site_fract_z
_atom_type_partial_charge
Br1   Br    Br    0.250751 0.633818 0.246369 -0.485617
Br2   Br    Br    0.763475 0.282447 0.494714 -0.495550
Br3   Br    Br    0.767038 0.696315 0.360839 -0.536413
Br4   Br    Br    0.247436 0.364261 0.743404 -0.476070
C1    C     C_R   0.330375 0.499911 0.499239 0.616410
C2    C     C_R   0.578771 0.893007 0.501189 0.212223
C3    C     C_R   0.499796 0.500294 0.220505 0.573761
C4    C     C_R   0.500006 0.499699 0.779486 0.567746
C5    C     C_R   0.499049 0.055195 0.502131 0.028049
C6    C     C_R   0.499262 0.945882 0.501930 0.018567
C7    C     C_1   0.499778 0.500397 0.065466 -0.019082
C8    C     C_1   0.499849 0.499577 0.934527 -0.023347
C9    C     C_R   0.097837 0.556328 0.384820 0.260989
C10   C     C_R   0.907503 0.410811 0.472077 0.258100
C11   C     C_R   0.906013 0.585875 0.481734 0.257258
C12   C     C_R   0.670430 0.499605 0.491125 0.587242
C13   C     C_R   0.096343 0.443063 0.593305 0.260901
C14   C     C_R   0.189502 0.557104 0.390648 0.114736
C15   C     C_R   0.815784 0.409358 0.482170 0.122699
C16   C     C_R   0.815471 0.584120 0.456746 0.115140
C17   C     C_R   0.188073 0.442194 0.595615 0.121842
C18   C     C_R   0.234707 0.499816 0.495393 -0.059009
C19   C     C_R   0.767756 0.497519 0.476819 -0.068971
C20   C     C_R   0.050472 0.499858 0.487266 -0.019631
C21   C     C_R   0.953307 0.498884 0.482330 -0.030870
C22   C     C_3   0.025454 0.568101 0.163129 0.023389
C23   C     C_R   0.551899 0.209498 0.597909 0.078880
C24   C     C_3   0.987113 0.640109 0.052514 -0.334726
C25   C     C_3   0.970336 0.305668 0.314956 0.007056
C26   C     C_3   0.007748 0.204565 0.303221 -0.332604
C27   C     C_3   0.962486 0.697255 0.638338 0.008790
C28   C     C_3   0.004150 0.796775 0.647700 -0.338843
C29   C     C_3   0.020879 0.431676 0.807601 0.018367
C30   C     C_3   0.980279 0.360322 0.914848 -0.342279
C31   C     C_3   0.565799 0.032936 0.825384 -0.004293
C32   C     C_3   0.631513 0.987819 0.933277 -0.343231
C33   C     C_3   0.319125 0.954203 0.658526 -0.011177
C34   C     C_R   0.422364 0.790693 0.496895 0.041793
C35   C     C_3   0.227937 0.998314 0.666025 -0.330097
C36   C     C_3   0.432115 0.036506 0.178906 -0.003154
C37   C     C_3   0.367732 0.985938 0.075696 -0.337823
C38   C     C_3   0.679655 0.960808 0.350473 0.010327
C39   C     C_3   0.774098 0.996452 0.343299 -0.323999
C40   C     C_R   0.446695 0.210243 0.404428 0.050923
C41   C     C_R   0.576645 0.791754 0.511152 0.044724
C42   C     C_R   0.552418 0.108103 0.602651 0.227227
C43   C     C_R   0.419985 0.892085 0.504947 0.214091
C44   C     C_R   0.445639 0.108818 0.401345 0.217654
Cu1   Cu    Cu3+1 0.500000 0.596430 0.500000 1.004548
Cu2   Cu    Cu3+1 0.500000 0.403570 0.500000 1.013588
H1    H     H_    0.593468 0.249207 0.673679 0.174052
H2    H     H_    0.020001 0.357406 0.272528 0.103018
H3    H     H_    0.909523 0.309644 0.245064 0.139672
H4    H     H_    0.959326 0.150814 0.343565 0.172507
H5    H     H_    0.022550 0.188924 0.186775 0.095761
H6    H     H_    0.069299 0.198501 0.370024 0.183439
H7    H     H_    0.008186 0.644986 0.692706 0.099172
H8    H     H_    0.899212 0.698531 0.698421 0.135604
H9    H     H_    0.959878 0.851283 0.595712 0.176614
H10   H     H_    0.015758 0.815905 0.764664 0.091647
H11   H     H_    0.068013 0.797316 0.590234 0.176698
H12   H     H_    0.360696 0.752305 0.493211 0.187812
H13   H     H_    0.968791 0.483247 0.772453 0.101488
H14   H     H_    0.075031 0.471086 0.864962 0.138703
H15   H     H_    0.031797 0.311770 0.961353 0.165509
H16   H     H_    0.948879 0.399560 0.005477 0.056378
H17   H     H_    0.929238 0.316500 0.857668 0.199138
H18   H     H_    0.515592 0.977400 0.797847 0.113814
H19   H     H_    0.533850 0.095155 0.879405 0.109085
H20   H     H_    0.680096 0.042711 0.970234 0.158042
H21   H     H_    0.596790 0.958753 0.030310 0.064129
H22   H     H_    0.666626 0.927728 0.880010 0.188660
H23   H     H_    0.404525 0.250511 0.329280 0.156271
H24   H     H_    0.366692 0.006023 0.708183 0.116780
H25   H     H_    0.319360 0.885822 0.724026 0.119959
H26   H     H_    0.178358 0.948201 0.618312 0.156719
H27   H     H_    0.211407 0.012189 0.782343 0.104576
H28   H     H_    0.226030 0.067571 0.603659 0.195580
H29   H     H_    0.485957 0.985080 0.206532 0.114417
H30   H     H_    0.459512 0.100762 0.121118 0.114019
H31   H     H_    0.315307 0.036714 0.038935 0.160891
H32   H     H_    0.402631 0.959413 0.978140 0.061874
H33   H     H_    0.337326 0.923377 0.132829 0.203112
H34   H     H_    0.637189 0.754134 0.529151 0.203902
H35   H     H_    0.635944 0.019039 0.307189 0.115650
H36   H     H_    0.673194 0.896338 0.278798 0.150962
H37   H     H_    0.819728 0.939168 0.383221 0.189229
H38   H     H_    0.790285 0.015590 0.228038 0.093380
H39   H     H_    0.782810 0.061232 0.412761 0.210788
H40   H     H_    0.972414 0.516826 0.193027 0.107078
H41   H     H_    0.080039 0.528413 0.110840 0.138258
H42   H     H_    0.039794 0.688149 0.010676 0.164807
H43   H     H_    0.956148 0.601593 0.958930 0.053808
H44   H     H_    0.936066 0.684491 0.105384 0.210392
N1    N     N_R   0.500000 0.258690 0.500000 -0.284305
N2    N     N_R   0.500000 0.741310 0.500000 -0.292875
O1    O     O_R   0.371460 0.581430 0.500010 -0.490781
O2    O     O_3   0.952426 0.324412 0.463638 -0.466739
O3    O     O_3   0.948636 0.673933 0.489177 -0.464446
O4    O     O_3   0.052551 0.380561 0.686536 -0.466961
O5    O     O_3   0.610719 0.062926 0.698662 -0.500221
O6    O     O_3   0.339183 0.937052 0.510220 -0.506693
O7    O     O_3   0.387317 0.064008 0.306063 -0.511047
O8    O     O_3   0.659650 0.938426 0.497906 -0.501614
O9    O     O_R   0.628540 0.418570 0.499990 -0.462764
O10   O     O_R   0.628540 0.581430 0.499990 -0.488108
O11   O     O_R   0.371460 0.418570 0.500010 -0.468086
O12   O     O_R   0.500000 0.581420 0.288390 -0.463332
O13   O     O_R   0.500000 0.418580 0.711610 -0.492829
O14   O     O_R   0.500000 0.581420 0.711610 -0.499678
O15   O     O_R   0.500000 0.418580 0.288390 -0.510490
O16   O     O_3   0.055733 0.618831 0.287395 -0.462658

loop_
_geom_bond_atom_site_label_1
_geom_bond_atom_site_label_2
_ccdc_geom_bond_type
C33   H24   S    
C2    C41   A    
C23   N1    A    
C31   C32   S    
C30   H16   S    
C3    C7    S    
C26   H4    S    
Br1   C14   S    
C39   H39   S    
C25   O2    S    
C39   H38   S    
C35   H27   S    
C27   H8    S    
C28   H11   S    
C9    O16   S    
C33   O6    S    
Cu2   N1    S    
C11   C21   A    
C37   H33   S    
C24   H44   S    
C1    C18   S    
C32   H20   S    
Cu2   O9    S    
C36   H30   S    
C38   H36   S    
C2    O8    S    
C5    C6    S    
C32   H21   S    
C4    C8    S    
C33   H25   S    
C5    C42   A    
Cu1   N2    S    
C43   O6    S    
C17   C18   A    
C30   H15   S    
C23   H1    S    
C10   O2    S    
Cu1   O12   S    
C11   C16   A    
C42   O5    S    
C13   C20   A    
C35   H28   S    
C20   C21   S    
C22   H41   S    
C44   O7    S    
C26   H6    S    
Cu2   O13   S    
C13   C17   A    
C9    C20   A    
C24   H43   S    
C15   C19   A    
C25   C26   S    
C4    O14   A    
C27   C28   S    
C16   C19   A    
C29   H13   S    
C37   H31   S    
C29   C30   S    
C36   H29   S    
Br3   C16   S    
C24   H42   S    
C38   H35   S    
C35   H26   S    
C34   C43   A    
C12   O9    A    
C9    C14   A    
C23   C42   A    
C36   C37   S    
C1    O1    A    
C12   C19   S    
C27   O3    S    
Cu2   O11   S    
C41   H34   S    
C38   C39   S    
C28   H10   S    
C22   O16   S    
C1    O11   A    
Br2   C15   S    
C14   C18   A    
C10   C15   A    
C11   O3    S    
C31   O5    S    
C38   O8    S    
C30   H17   S    
C2    C6    A    
C7    C8    T    
Cu1   O10   S    
C12   O10   A    
C22   H40   S    
C26   H5    S    
C22   C24   S    
C29   O4    S    
C39   H37   S    
C27   H7    S    
C33   C35   S    
C40   N1    A    
C4    O13   A    
C36   O7    S    
Br4   C17   S    
C25   H3    S    
C31   H18   S    
C29   H14   S    
C37   H32   S    
Cu2   O15   S    
C3    O15   A    
C10   C21   A    
C40   H23   S    
C13   O4    S    
Cu1   O1    S    
C32   H22   S    
C31   H19   S    
C5    C44   A    
Cu1   Cu2   S    
C34   N2    A    
C6    C43   A    
C3    O12   A    
C28   H9    S    
C41   N2    A    
C40   C44   A    
Cu1   O14   S    
C34   H12   S    
C25   H2    S    
