data_mof_unit_14762.cif
_audit_creation_date              2013-03-05T16:35:54-0500
_audit_creation_method            fapswitch 2.2
_symmetry_space_group_name_H-M    P1
_symmetry_Int_Tables_number       1
_space_group_crystal_system       triclinic
_cell_length_a                    23.633525
_cell_length_b                    9.272787
_cell_length_c                    7.758641
_cell_angle_alpha                 90.00006
_cell_angle_beta                  89.999982
_cell_angle_gamma                 90.00003
_cell_volume                      1700.29564965

loop_
_atom_site_label
_atom_site_type_symbol
_atom_site_description
_atom_site_fract_x
_atom_site_fract_y
_atom_site_fract_z
_atom_type_partial_charge
O1    O     O_R   0.500000 0.288390 0.642760 -0.573053
O2    O     O_R   0.500000 0.711610 0.357240 -0.573053
O3    O     O_R   0.500000 0.711610 0.642760 -0.573053
O4    O     O_R   0.500000 0.288390 0.357240 -0.573053
C1    C     C_R   0.500000 0.219643 0.500000 0.839999
C2    C     C_R   0.500000 0.780357 0.500000 0.839999
O5    O     O_R   0.417880 0.500000 0.642820 -0.574487
O6    O     O_R   0.582120 0.500000 0.357180 -0.574487
O7    O     O_R   0.582120 0.500000 0.642820 -0.574487
O8    O     O_R   0.417880 0.500000 0.357180 -0.574486
C3    C     C_R   0.208286 0.500006 0.499996 0.288706
C4    C     C_R   0.791713 0.500005 0.500001 0.288702
C5    C     C_R   0.390527 0.500000 0.500000 0.789599
C6    C     C_R   0.609473 0.500000 0.500000 0.789599
Cu1   Cu    Cu3+1 0.500000 0.500000 0.669080 1.054558
Cu2   Cu    Cu3+1 0.500000 0.500000 0.330920 1.054558
H1    H     H_    0.214518 0.599394 0.749187 0.162762
H2    H     H_    0.785482 0.400604 0.749184 0.162765
H3    H     H_    0.214518 0.400614 0.250807 0.162762
H4    H     H_    0.785481 0.599405 0.250817 0.162765
C7    C     C_R   0.296958 0.557814 0.641661 -0.071854
C8    C     C_R   0.703041 0.442184 0.641658 -0.071854
C9    C     C_R   0.296959 0.442188 0.358337 -0.071852
C10   C     C_R   0.703041 0.557821 0.358342 -0.071855
C11   C     C_R   0.327645 0.500001 0.500000 -0.127414
C12   C     C_R   0.672355 0.500001 0.500000 -0.127413
C13   C     C_R   0.880868 0.628375 0.491952 0.619050
C14   C     C_R   0.119132 0.371636 0.491946 0.619050
C15   C     C_R   0.880868 0.371636 0.508048 0.619049
C16   C     C_R   0.119132 0.628375 0.508046 0.619050
N1    N     N_R   0.852498 0.500006 0.500000 -0.482589
N2    N     N_R   0.147501 0.500006 0.499996 -0.482590
C17   C     C_R   0.940406 0.369343 0.511765 -0.140313
C18   C     C_R   0.059594 0.630669 0.511764 -0.140314
C19   C     C_R   0.940406 0.630669 0.488233 -0.140313
C20   C     C_R   0.059594 0.369343 0.488230 -0.140313
C21   C     C_R   0.970095 0.500006 0.499999 -0.122275
C22   C     C_R   0.029905 0.500006 0.499998 -0.122275
C23   C     C_R   0.971190 0.240433 0.522016 0.407120
C24   C     C_R   0.028810 0.759579 0.522017 0.407118
C25   C     C_R   0.971190 0.759579 0.477981 0.407119
C26   C     C_R   0.028810 0.240433 0.477978 0.407119
C27   C     C_1   0.500000 0.064989 0.500000 -0.141945
C28   C     C_1   0.500000 0.935011 0.500000 -0.141946
C29   C     C_R   0.237896 0.556132 0.640568 -0.117419
C30   C     C_R   0.762104 0.443871 0.640568 -0.117417
C31   C     C_R   0.237896 0.443876 0.359427 -0.117418
C32   C     C_R   0.762103 0.556138 0.359433 -0.117418
N3    N     N_1   0.500000 0.500000 0.076820 -0.025928
N4    N     N_1   0.500000 0.500000 0.923180 -0.025928
O9    O     O_2   0.851478 0.753085 0.495327 -0.430826
O10   O     O_2   0.148522 0.246926 0.495318 -0.430825
O11   O     O_2   0.851478 0.246926 0.504674 -0.430826
O12   O     O_2   0.148522 0.753085 0.504674 -0.430825
Cl1   Cl    Cl    0.945166 0.102267 0.656241 -0.383367
Cl2   Cl    Cl    0.054835 0.897747 0.656237 -0.383366
Cl3   Cl    Cl    0.945165 0.897746 0.343760 -0.383367
Cl4   Cl    Cl    0.054834 0.102266 0.343755 -0.383366
C33   C     C_1   0.324384 0.623662 0.788454 0.309432
N5    N     N_1   0.346213 0.676465 0.906158 -0.243402
C34   C     C_1   0.675616 0.376323 0.788444 0.309430
N6    N     N_1   0.653786 0.323507 0.906140 -0.243399
C35   C     C_1   0.324384 0.376331 0.211550 0.309433
N7    N     N_1   0.346214 0.323518 0.093852 -0.243400
C36   C     C_1   0.675615 0.623676 0.211554 0.309429
N8    N     N_1   0.653786 0.676487 0.093856 -0.243400

loop_
_geom_bond_atom_site_label_1
_geom_bond_atom_site_label_2
_geom_bond_distance
_ccdc_geom_bond_type
O4    Cu2   1.972813 S    
O6    C6    1.282869 A    
O7    C6    1.282870 A    
O8    C5    1.282870 A    
C21   C22   1.413507 A    
O1    Cu1   1.972813 S    
O2    Cu2   1.972812 S    
C3    C31   1.396450 A    
C4    N1    1.436564 S    
C14   N2    1.367606 A    
C17   C21   1.403092 A    
C4    C32   1.396449 A    
O3    C2    1.277970 A    
C13   C19   1.407547 A    
C26   Cl4   1.761878 S    
O5    Cu1   1.951453 S    
C1    C27   1.434072 S    
C25   Cl3   1.761878 S    
C33   N5    1.157533 T    
O6    Cu2   1.951450 S    
C2    C28   1.434072 S    
C6    C12   1.486128 S    
C8    C34   1.445706 S    
C16   N2    1.367607 A    
C14   O10   1.349232 S    
C10   C12   1.421745 A    
C5    C11   1.486130 S    
H4    C32   1.084619 S    
C15   O11   1.349233 S    
C10   C36   1.445702 S    
C7    C29   1.395968 A    
O1    C1    1.277970 A    
H2    C30   1.084621 S    
C9    C35   1.445705 S    
C24   C25   1.403988 A    
C8    C30   1.395966 A    
C13   O9    1.349232 S    
C3    N2    1.436561 S    
C7    C33   1.445700 S    
C23   C26   1.403988 A    
H3    C31   1.084620 S    
C9    C11   1.421746 A    
C27   C28   1.205257 T    
O7    Cu1   1.951450 S    
C34   N6    1.157537 T    
C19   C25   1.401606 A    
C18   C24   1.401607 A    
C16   O12   1.349232 S    
C3    C29   1.396448 A    
C9    C31   1.395966 A    
C16   C18   1.407544 A    
C13   N1    1.367606 A    
Cu1   Cu2   2.623663 S    
C10   C32   1.395968 A    
C15   C17   1.407544 A    
O5    C5    1.282869 A    
C20   C22   1.403095 A    
Cu2   N3    1.971470 S    
C14   C20   1.407544 A    
C15   N1    1.367608 A    
C36   N8    1.157533 T    
C8    C12   1.421744 A    
Cu1   N4    1.971470 S    
N3    N4    1.192038 T    
C7    C11   1.421746 A    
O4    C1    1.277970 A    
O3    Cu1   1.972812 S    
O8    Cu2   1.951452 S    
C19   C21   1.403092 A    
C18   C22   1.403094 A    
C20   C26   1.401606 A    
C17   C23   1.401605 A    
C23   Cl1   1.761878 S    
O2    C2    1.277970 A    
H1    C29   1.084618 S    
C35   N7    1.157539 T    
C24   Cl2   1.761878 S    
C4    C30   1.396451 A    
