data_mof_unit_33198.cif
_audit_creation_date              2012-12-10T19:13:31-0500
_audit_creation_method            fapswitch 2.2
_symmetry_space_group_name_H-M    P1
_symmetry_Int_Tables_number       1
_space_group_crystal_system       triclinic
_cell_length_a                    9.735971
_cell_length_b                    10.651735
_cell_length_c                    16.884536
_cell_angle_alpha                 89.827709
_cell_angle_beta                  87.721023
_cell_angle_gamma                 89.478911
_cell_volume                      1749.54707272

loop_
_atom_site_label
_atom_site_type_symbol
_atom_type_description
_atom_site_fract_x
_atom_site_fract_y
_atom_site_fract_z
_atom_type_partial_charge
C1    C     C_R   0.499823 0.742142 0.502050 0.957181
C2    C     C_R   0.517883 0.543181 0.263948 -0.159617
C3    C     C_3   0.453535 0.925668 0.418776 0.183927
C4    C     C_R   0.484072 0.504956 0.652432 0.974035
C5    C     C_3   0.473544 0.071867 0.411441 -0.240761
C6    C     C_3   0.400708 0.929067 0.566683 -0.499465
C7    C     C_3   0.648397 0.926735 0.516490 -0.434057
C8    C     C_3   0.501290 0.878368 0.500679 0.040627
C9    C     C_3   0.502224 0.121250 0.498499 -0.101351
C10   C     C_3   0.392579 0.072319 0.561070 -0.405391
C11   C     C_3   0.646346 0.070039 0.523613 0.274394
C12   C     C_R   0.377023 0.472745 0.784663 -0.285063
C13   C     C_3   0.912934 0.629152 0.512488 -0.381384
C14   C     C_3   0.076757 0.633997 0.509763 0.441070
C15   C     C_3   0.917693 0.417870 0.565226 0.391911
C16   C     C_R   0.500668 0.257765 0.500453 0.928329
C17   C     C_3   0.924075 0.453750 0.425558 -0.387718
C18   C     C_3   0.079981 0.425222 0.567384 -0.362912
C19   C     C_3   0.085053 0.443620 0.428381 -0.351881
C20   C     C_R   0.515830 0.505512 0.347129 1.057079
C21   C     C_R   0.481437 0.525656 0.737052 -0.206894
C22   C     C_R   0.582768 0.600857 0.769758 0.341947
C23   C     C_R   0.394256 0.594953 0.147199 -0.338594
C24   C     C_R   0.589081 0.608340 0.852633 0.342904
C25   C     C_R   0.483212 0.554549 0.900230 -0.065107
C26   C     C_R   0.374461 0.489030 0.866044 0.422597
C27   C     C_2   0.596255 0.108922 0.355259 0.916573
C28   C     C_2   0.341389 0.127702 0.377526 0.864134
C29   C     C_2   0.119710 0.723621 0.442374 0.925404
C30   C     C_R   0.396676 0.538080 0.221277 0.497947
C31   C     C_R   0.635054 0.602781 0.230940 -0.238495
C32   C     C_R   0.634574 0.654530 0.155141 0.520029
C33   C     C_R   0.513358 0.647046 0.112412 -0.044862
C34   C     C_2   0.494215 0.554173 0.985673 -0.116845
C35   C     C_2   0.516644 0.658667 0.026616 -0.126009
H1    H     H_    0.342053 0.903364 0.418158 0.165140
H2    H     H_    0.869974 0.689812 0.465561 0.180277
H3    H     H_    0.112959 0.460269 0.625331 0.187469
H4    H     H_    0.880981 0.360427 0.411460 0.201302
H5    H     H_    0.727501 0.610206 0.264237 0.197359
H6    H     H_    0.896577 0.517462 0.376181 0.196349
H7    H     H_    0.131519 0.483376 0.373674 0.266028
H8    H     H_    0.116306 0.342958 0.425916 0.214575
H9    H     H_    0.891497 0.318825 0.551800 0.164976
H10   H     H_    0.124131 0.328572 0.563631 0.168627
H11   H     H_    0.534421 0.748893 0.998053 0.192291
H12   H     H_    0.295825 0.890460 0.560902 0.260767
H13   H     H_    0.302508 0.588593 0.113051 0.166007
H14   H     H_    0.296972 0.418332 0.758486 0.199369
H15   H     H_    0.475741 0.465661 0.016563 0.167896
H16   H     H_    0.702722 0.742888 0.747525 0.333230
H17   H     H_    0.737777 0.748247 0.073571 0.355940
H18   H     H_    0.464437 0.873952 0.308450 0.340488
H19   H     H_    0.772822 0.060207 0.295606 0.354184
H20   H     H_    0.251503 0.222892 0.289484 0.364240
H21   H     H_    0.207899 0.480004 0.214088 0.332379
H22   H     H_    0.629357 0.058318 0.640338 0.349251
H23   H     H_    0.286878 0.101307 0.546711 0.245920
H24   H     H_    0.221652 0.755352 0.337773 0.333247
H25   H     H_    0.067000 0.664386 0.625770 0.315206
H26   H     H_    0.894076 0.521397 0.660838 0.337377
H27   H     H_    0.259922 0.474725 0.963203 0.335701
H28   H     H_    0.781952 0.655483 0.851847 0.355121
H29   H     H_    0.688014 0.883203 0.571245 0.195309
H30   H     H_    0.720839 0.898597 0.466890 0.236052
H31   H     H_    0.729421 0.106260 0.482844 0.164758
H32   H     H_    0.436356 0.900417 0.625979 0.193459
H33   H     H_    0.408458 0.113699 0.620386 0.187126
H34   H     H_    0.867499 0.669925 0.568122 0.194509
N1    N     N_3   0.861190 0.500250 0.501720 -0.089132
N2    N     N_3   0.138550 0.503270 0.501080 -0.085905
O1    O     O_R   0.383960 0.685090 0.500020 -0.588977
O2    O     O_3   0.755215 0.705805 0.124448 -0.734263
O3    O     O_3   0.518246 0.857633 0.356217 -0.731979
O4    O     O_2   0.610840 0.218833 0.335597 -0.623618
O5    O     O_R   0.697060 0.021541 0.330376 -0.740887
O6    O     O_2   0.229965 0.111640 0.411904 -0.635407
O7    O     O_R   0.345733 0.193293 0.305480 -0.743560
O8    O     O_3   0.283670 0.473740 0.251500 -0.750915
O9    O     O_3   0.679346 0.110457 0.600113 -0.736357
O10   O     O_2   0.078027 0.832362 0.445194 -0.617900
O11   O     O_R   0.206425 0.686556 0.378708 -0.794763
O12   O     O_R   0.616040 0.685320 0.499960 -0.633525
O13   O     O_3   0.124833 0.690014 0.579070 -0.769158
O14   O     O_3   0.855228 0.443143 0.640022 -0.693914
O15   O     O_3   0.265733 0.437362 0.909598 -0.734024
O16   O     O_3   0.700165 0.660696 0.888545 -0.762888
O17   O     O_R   0.370240 0.499890 0.615830 -0.640015
O18   O     O_R   0.602330 0.500120 0.615770 -0.502881
O19   O     O_R   0.383960 0.314680 0.500040 -0.636234
O20   O     O_R   0.616040 0.314910 0.499980 -0.596716
O21   O     O_R   0.397670 0.499880 0.384230 -0.534336
O22   O     O_R   0.629760 0.500110 0.384170 -0.640400
O23   O     O_3   0.671630 0.667214 0.719650 -0.778775
Zn1   Zn    Zn3+2 0.345040 0.499850 0.500040 1.004561
Zn2   Zn    Zn3+2 0.654960 0.500150 0.499960 1.006357

loop_
_geom_bond_atom_site_label_1
_geom_bond_atom_site_label_2
_ccdc_geom_bond_type
C15   C18   S    
C20   O22   A    
C16   O19   A    
C1    C8    S    
C14   N2    S    
C19   N2    S    
H18   O3    S    
H24   O11   S    
C14   O13   S    
C12   H14   S    
C7    C8    S    
C7    C11   S    
C20   O21   A    
H21   O8    S    
C10   H23   S    
C9    C16   S    
C15   H9    S    
N2    Zn1   S    
C13   N1    S    
C31   H5    S    
C34   C35   D    
C17   H4    S    
C3    O3    S    
C17   C19   S    
O20   Zn2   S    
C5    C27   S    
O1    Zn1   S    
C23   C33   A    
C28   O7    S    
C9    C10   S    
C13   H2    S    
C19   H7    S    
C25   C34   S    
C15   O14   S    
O17   Zn1   S    
C17   N1    S    
C13   C14   S    
C22   O23   S    
H22   O9    S    
C27   O4    D    
C19   H8    S    
C34   H15   S    
C1    O1    A    
C6    H12   S    
C2    C20   S    
C23   C30   A    
O19   Zn1   S    
C24   C25   A    
C3    C8    S    
C32   O2    S    
H20   O7    S    
C6    C8    S    
C25   C26   A    
C12   C21   A    
O21   Zn1   S    
C12   C26   A    
C2    C31   A    
N1    Zn2   S    
C5    C9    S    
C7    H30   S    
C5    C28   S    
H27   O15   S    
C31   C32   A    
C26   O15   S    
C28   O6    D    
C9    C11   S    
H26   O14   S    
H19   O5    S    
C30   O8    S    
C6    H32   S    
C29   O10   D    
H17   O2    S    
O22   Zn2   S    
C22   C24   A    
C14   C29   S    
C27   O5    S    
C18   H10   S    
C4    O18   A    
C18   N2    S    
C15   N1    S    
C23   H13   S    
H28   O16   S    
C3    C5    S    
C6    C10   S    
C11   H31   S    
C4    O17   A    
C10   H33   S    
C1    O12   A    
C2    C30   A    
C32   C33   A    
O18   Zn2   S    
C18   H3    S    
C29   O11   S    
C4    C21   S    
H25   O13   S    
C13   H34   S    
C3    H1    S    
O12   Zn2   S    
C33   C35   S    
C24   O16   S    
C17   H6    S    
C7    H29   S    
C11   O9    S    
H16   O23   S    
C16   O20   A    
C21   C22   A    
C35   H11   S    
