data_mof_unit_66262.cif
_audit_creation_date              2012-12-10T19:25:09-0500
_audit_creation_method            fapswitch 2.2
_symmetry_space_group_name_H-M    P1
_symmetry_Int_Tables_number       1
_space_group_crystal_system       triclinic
_cell_length_a                    18.803941
_cell_length_b                    18.867292
_cell_length_c                    18.584051
_cell_angle_alpha                 109.439062
_cell_angle_beta                  109.092799
_cell_angle_gamma                 109.913543
_cell_volume                      5073.29188127

loop_
_atom_site_label
_atom_site_type_symbol
_atom_type_description
_atom_site_fract_x
_atom_site_fract_y
_atom_site_fract_z
_atom_type_partial_charge
C1    C     C_R   0.880068 0.379911 0.000478 0.894054
C2    C     C_R   0.181235 0.498987 0.187570 -0.091908
C3    C     C_R   0.174957 0.419581 0.176719 -0.217306
C4    C     C_R   0.882471 0.501390 0.879494 0.933729
C5    C     C_R   0.239458 0.419619 0.240288 -0.218980
C6    C     C_R   0.310785 0.499155 0.312601 -0.084497
C7    C     C_R   0.310568 0.576354 0.327649 0.111019
C8    C     C_3   0.379189 0.660756 0.347753 -0.470715
C9    C     C_3   0.307412 0.660721 0.279613 -0.496583
C10   C     C_R   0.181479 0.755322 0.999214 0.136070
C11   C     C_R   0.186665 0.684323 0.000178 -0.095317
C12   C     C_R   0.812532 0.313069 0.998259 -0.100332
C13   C     C_R   0.258929 0.677209 0.000655 -0.221053
C14   C     C_R   0.324105 0.742424 0.001473 -0.216720
C15   C     C_R   0.315173 0.812861 0.999058 -0.098791
C16   C     C_R   0.120113 0.619668 0.999908 0.878662
C17   C     C_R   0.242217 0.816040 0.996872 0.134417
C18   C     C_3   0.197878 0.868029 0.995694 -0.492372
C19   C     C_3   0.127510 0.797658 0.997481 -0.496206
C20   C     C_R   0.497369 0.380099 0.377203 0.879297
C21   C     C_R   0.616219 0.501575 0.618557 0.929218
C22   C     C_R   0.496162 0.619759 0.616800 0.886384
C23   C     C_R   0.811644 0.234508 0.982364 -0.203324
C24   C     C_R   0.377453 0.499327 0.376889 0.880617
C25   C     C_R   0.502536 0.882467 0.879811 0.885616
C26   C     C_R   0.619959 0.121174 0.000995 0.877342
C27   C     C_R   0.499466 0.119973 0.120191 0.879028
C28   C     C_R   0.119395 0.500621 0.120043 0.873651
C29   C     C_R   0.380116 0.879724 0.999887 0.888879
C30   C     C_R   0.567378 0.299865 0.334509 0.107061
C31   C     C_R   0.497199 0.313720 0.312177 -0.077814
C32   C     C_R   0.420796 0.253789 0.231002 -0.226576
C33   C     C_R   0.420463 0.188169 0.167824 -0.215626
C34   C     C_R   0.748180 0.170765 0.983584 -0.182135
C35   C     C_R   0.495946 0.181637 0.187296 -0.117219
C36   C     C_R   0.566587 0.233974 0.272789 0.152550
C37   C     C_3   0.661263 0.287883 0.304522 -0.489554
C38   C     C_3   0.661799 0.360937 0.372105 -0.499311
C39   C     C_R   0.508697 0.762238 0.681139 -0.021218
C40   C     C_2   0.757770 0.576740 0.749482 -0.160289
C41   C     C_R   0.492123 0.684207 0.680226 -0.065210
C42   C     C_R   0.468195 0.667728 0.739519 -0.208203
C43   C     C_R   0.472576 0.733921 0.806149 -0.201336
C44   C     C_R   0.498580 0.815334 0.811680 -0.087676
C45   C     C_R   0.684495 0.184853 0.997884 -0.175282
C46   C     C_R   0.509799 0.826851 0.744802 -0.073124
C47   C     C_3   0.583209 0.896353 0.747463 0.927591
C48   C     C_3   0.581017 0.822942 0.677179 -0.491197
C49   C     C_2   0.680093 0.504877 0.690483 -0.335595
C50   C     C_2   0.819505 0.576937 0.822260 -0.161438
C51   C     C_2   0.822636 0.504327 0.810019 -0.331261
C52   C     C_R   0.743755 0.322381 0.003929 0.044794
C53   C     C_3   0.532657 0.994929 0.761066 0.142270
C54   C     C_3   0.545574 0.072350 0.747112 -0.796243
C55   C     C_3   0.705062 0.912793 0.862732 -0.401929
C56   C     C_R   0.679835 0.258170 0.003013 0.145653
C57   C     C_3   0.580026 0.354955 0.107898 0.119013
C58   C     C_3   0.493066 0.351428 0.070911 -0.794203
C59   C     C_3   0.675679 0.321988 0.072674 0.291763
C60   C     C_3   0.745369 0.393213 0.072966 -0.527605
C61   C     C_R   0.245672 0.576153 0.265867 0.142711
H1    H     H_    0.774510 0.636504 0.746726 0.162579
H2    H     H_    0.380175 0.737388 0.002814 0.156409
H3    H     H_    0.236195 0.932537 0.056722 0.199767
H4    H     H_    0.659600 0.448375 0.698953 0.160240
H5    H     H_    0.174440 0.869178 0.933109 0.211510
H6    H     H_    0.124793 0.821645 0.059302 0.211812
H7    H     H_    0.063543 0.757737 0.935706 0.197901
H8    H     H_    0.363330 0.260240 0.215375 0.143848
H9    H     H_    0.362731 0.144779 0.103423 0.165781
H10   H     H_    0.700227 0.262117 0.334280 0.212388
H11   H     H_    0.673551 0.302160 0.255019 0.179419
H12   H     H_    0.808313 0.433008 0.135873 0.176773
H13   H     H_    0.701568 0.377698 0.440825 0.206816
H14   H     H_    0.673405 0.417418 0.361256 0.210337
H15   H     H_    0.451246 0.605921 0.737553 0.161814
H16   H     H_    0.864432 0.637356 0.884632 0.161276
H17   H     H_    0.457795 0.722434 0.854276 0.145018
H18   H     H_    0.557227 0.819239 0.612074 0.198593
H19   H     H_    0.638903 0.814973 0.696937 0.178376
H20   H     H_    0.784930 0.446841 0.745056 0.157342
H21   H     H_    0.862261 0.224386 0.973560 0.165070
H22   H     H_    0.749881 0.111940 0.975554 0.196960
H23   H     H_    0.122116 0.358475 0.118427 0.158174
H24   H     H_    0.697672 0.318145 0.134149 0.032242
H25   H     H_    0.722141 0.431311 0.047502 0.223942
H26   H     H_    0.572336 0.020601 0.832309 0.171696
H27   H     H_    0.462728 0.955183 0.739394 0.151530
H28   H     H_    0.505650 0.049493 0.676401 0.250069
H29   H     H_    0.525453 0.112097 0.785745 0.220809
H30   H     H_    0.615380 0.113595 0.769391 0.266130
H31   H     H_    0.751438 0.911162 0.838439 0.185114
H32   H     H_    0.660408 0.846468 0.846543 0.175901
H33   H     H_    0.743879 0.953017 0.935460 0.200203
H34   H     H_    0.236131 0.358493 0.230948 0.151155
H35   H     H_    0.632490 0.424279 0.154322 0.133866
H36   H     H_    0.577330 0.318277 0.143977 0.136608
H37   H     H_    0.439511 0.282734 0.025182 0.259104
H38   H     H_    0.481433 0.380757 0.125396 0.204537
H39   H     H_    0.493352 0.388192 0.035033 0.250958
H40   H     H_    0.407489 0.713460 0.415891 0.206288
H41   H     H_    0.427583 0.653906 0.328424 0.214882
H42   H     H_    0.294182 0.713336 0.308422 0.212309
H43   H     H_    0.314098 0.654010 0.220736 0.197553
H44   H     H_    0.265474 0.622648 0.001753 0.157496
O1    O     O_R   0.908050 0.460100 0.051390 -0.620628
O2    O     O_R   0.551950 0.908320 0.960240 -0.617312
O3    O     O_R   0.540220 0.091590 0.948580 -0.621720
O4    O     O_R   0.908730 0.356680 0.948620 -0.625031
O5    O     O_R   0.643000 0.091540 0.051310 -0.622418
O6    O     O_R   0.448050 0.091580 0.039660 -0.619181
O7    O     O_R   0.550830 0.091520 0.142390 -0.620609
O8    O     O_R   0.357000 0.908370 0.948590 -0.620816
O9    O     O_R   0.459780 0.908310 0.051320 -0.624553
O10   O     O_R   0.908630 0.551710 0.960350 -0.617896
O11   O     O_R   0.909310 0.448290 0.857570 -0.620480
O12   O     O_R   0.445680 0.356610 0.405790 -0.620593
O13   O     O_R   0.091270 0.643320 0.051380 -0.626026
O14   O     O_R   0.091950 0.539900 0.948610 -0.622433
O15   O     O_R   0.090690 0.551710 0.142430 -0.620403
O16   O     O_R   0.091370 0.448290 0.039650 -0.626985
O17   O     O_R   0.549120 0.460050 0.405790 -0.625973
O18   O     O_3   0.556918 0.943997 0.710572 -0.632580
O19   O     O_3   0.662113 0.953286 0.830550 -0.637003
O20   O     O_3   0.593970 0.316994 0.038225 -0.576241
O21   O     O_R   0.639540 0.551640 0.587850 -0.619065
O22   O     O_R   0.536110 0.448210 0.587860 -0.622719
O23   O     O_R   0.547900 0.643240 0.587840 -0.628363
O24   O     O_R   0.444470 0.539800 0.587850 -0.625501
O25   O     O_R   0.457480 0.551640 0.405780 -0.625341
O26   O     O_R   0.354050 0.448210 0.405780 -0.621394
O27   O     O_R   0.449170 0.908380 0.857510 -0.646886
Zn1   Zn    Zn3+2 0.999540 0.569060 0.068630 0.945430
Zn2   Zn    Zn3+2 0.000460 0.430940 0.931370 0.955311
Zn3   Zn    Zn3+2 0.565860 0.568990 0.496810 0.936133
Zn4   Zn    Zn3+2 0.427730 0.430860 0.496820 0.955633
Zn5   Zn    Zn3+2 0.431370 0.999990 0.931350 0.947572
Zn6   Zn    Zn3+2 0.568630 0.999910 0.068550 0.950235

loop_
_geom_bond_atom_site_label_1
_geom_bond_atom_site_label_2
_ccdc_geom_bond_type
C29   O9    A    
C23   H21   S    
C41   C42   A    
O12   Zn4   S    
C4    O10   A    
C35   C36   A    
C58   H37   S    
C55   H32   S    
C21   C49   S    
C47   O19   S    
C7    C8    S    
C39   C41   A    
C53   C54   S    
C43   H17   S    
C12   C23   A    
O6    Zn5   S    
C37   C38   S    
C49   H4    S    
C9    C61   S    
C48   H18   S    
C36   C37   S    
C54   H29   S    
C57   O20   S    
C30   C31   A    
C22   C41   S    
O11   Zn2   S    
C10   C17   A    
C40   C49   D    
C60   H12   S    
C40   H1    S    
C30   C38   S    
O15   Zn1   S    
C7    C61   A    
C52   C60   S    
C26   C45   S    
C5    H34   S    
C55   O19   S    
C47   O18   S    
O1    Zn1   S    
C47   C48   S    
C45   C56   A    
C8    C9    S    
C57   H35   S    
C19   H6    S    
O3    Zn5   S    
O16   Zn2   S    
C21   O22   A    
C8    H40   S    
C51   H20   S    
C20   O17   A    
C2    C61   A    
C1    O1    A    
C1    O4    A    
C27   O6    A    
C59   C60   S    
C13   C14   A    
C1    C12   S    
C53   H26   S    
C55   H33   S    
C25   C44   S    
C20   O12   A    
C12   C52   A    
C44   C46   A    
C15   C29   S    
C38   H14   S    
O14   Zn2   S    
C4    C51   S    
O7    Zn6   S    
O5    Zn6   S    
C58   H39   S    
O22   Zn4   S    
C54   H28   S    
C13   H44   S    
O26   Zn4   S    
C28   O15   A    
O23   Zn3   S    
C26   O3    A    
C60   H25   S    
C28   O16   A    
C18   C19   S    
O10   Zn1   S    
C27   C35   S    
O27   Zn5   S    
C43   C44   A    
C59   H24   S    
C55   H31   S    
C16   O13   A    
O24   Zn4   S    
C11   C16   S    
C22   O23   A    
C31   C32   A    
C10   C19   S    
C9    H42   S    
C23   C34   A    
C57   H36   S    
C17   C18   S    
C19   H7    S    
C50   C51   D    
C34   C45   A    
C6    C7    A    
O13   Zn1   S    
C33   H9    S    
C39   C46   A    
C26   O5    A    
O25   Zn3   S    
O21   Zn3   S    
C37   H10   S    
C22   O24   A    
C53   O18   S    
O8    Zn5   S    
C16   O14   A    
C18   H5    S    
C42   C43   A    
C50   H16   S    
C25   O2    A    
C38   H13   S    
C15   C17   A    
C29   O8    A    
C46   C47   S    
O4    Zn2   S    
C4    O11   A    
C58   H38   S    
C3    C5    A    
C27   O7    A    
C32   H8    S    
C59   O20   S    
C42   H15   S    
C56   C59   S    
C30   C36   A    
C32   C33   A    
C48   H19   S    
O2    Zn6   S    
C2    C3    A    
C54   H30   S    
C11   C13   A    
C24   O26   A    
C18   H3    S    
C57   C58   S    
C5    C6    A    
C9    H43   S    
C40   C50   S    
C14   H2    S    
C6    C24   S    
C33   C35   A    
C53   H27   S    
O9    Zn6   S    
O17   Zn3   S    
C10   C11   A    
C24   O25   A    
C34   H22   S    
C37   H11   S    
C3    H23   S    
C14   C15   A    
C2    C28   S    
C21   O21   A    
C25   O27   A    
C8    H41   S    
C52   C56   A    
C39   C48   S    
C20   C31   S    
