data_mof_unit_46655.cif
_audit_creation_date              2012-12-10T19:27:33-0500
_audit_creation_method            fapswitch 2.2
_symmetry_space_group_name_H-M    P1
_symmetry_Int_Tables_number       1
_space_group_crystal_system       triclinic
_cell_length_a                    23.464054
_cell_length_b                    10.738574
_cell_length_c                    9.906002
_cell_angle_alpha                 88.000998
_cell_angle_beta                  88.729078
_cell_angle_gamma                 90.20589
_cell_volume                      2493.86360673

loop_
_atom_site_label
_atom_site_type_symbol
_atom_type_description
_atom_site_fract_x
_atom_site_fract_y
_atom_site_fract_z
_atom_type_partial_charge
C1    C     C_R   0.504962 0.258760 0.501930 0.930304
C2    C     C_R   0.702787 0.575333 0.397505 0.323347
C3    C     C_R   0.238617 0.397845 0.439982 0.181147
C4    C     C_R   0.762403 0.572157 0.389963 0.152991
C5    C     C_R   0.209361 0.508733 0.465578 0.145556
C6    C     C_R   0.791674 0.483275 0.468301 0.152694
C7    C     C_3   0.541008 0.030306 0.597024 0.378233
C8    C     C_3   0.461663 0.972454 0.412723 0.395329
C9    C     C_3   0.551368 0.952839 0.471193 0.080388
C10   C     C_3   0.452026 0.049894 0.539607 0.115813
C11   C     C_3   0.496109 0.877788 0.500453 -0.299241
C12   C     C_R   0.496981 0.742123 0.499053 0.945764
C13   C     C_3   0.507180 0.123688 0.506821 -0.292094
C14   C     C_3   0.485647 0.956404 0.626857 0.088032
C15   C     C_3   0.517620 0.044810 0.382180 0.103008
C16   C     C_R   0.389777 0.498329 0.500618 0.990124
C17   C     C_R   0.610333 0.499867 0.498194 0.910263
C18   C     C_3   0.468418 0.413467 0.052500 0.033242
C19   C     C_3   0.531912 0.586514 0.947341 -0.000193
C20   C     C_3   0.518481 0.396155 0.955330 0.326168
C21   C     C_3   0.481413 0.603979 0.044868 0.345207
C22   C     C_3   0.449320 0.516143 0.954688 0.346113
C23   C     C_R   0.239152 0.616413 0.499699 0.190203
C24   C     C_3   0.550871 0.483084 0.045922 0.335847
C25   C     C_R   0.879035 0.529781 0.576747 0.554571
C26   C     C_R   0.121383 0.485351 0.346232 0.583632
C27   C     C_R   0.881888 0.446026 0.356527 0.598886
C28   C     C_R   0.118615 0.535098 0.578623 0.594924
C29   C     C_R   0.941906 0.447474 0.353092 -0.117789
C30   C     C_R   0.058979 0.544794 0.577805 -0.146516
C31   C     C_R   0.970291 0.497418 0.464514 -0.086786
C32   C     C_R   0.030323 0.503151 0.463390 -0.112226
C33   C     C_R   0.938763 0.541139 0.577372 -0.115304
C34   C     C_R   0.762294 0.397748 0.554570 0.218763
C35   C     C_R   0.061940 0.467771 0.347670 -0.086777
C36   C     C_R   0.974265 0.400821 0.243153 0.324888
C37   C     C_R   0.027582 0.594873 0.686335 0.401534
C38   C     C_R   0.033880 0.414414 0.238619 0.146872
C39   C     C_R   0.967907 0.594497 0.686078 0.124666
C40   C     C_3   0.394274 0.252948 0.030502 -0.585055
C41   C     C_3   0.603186 0.749831 0.974805 -0.628255
C42   C     C_3   0.085985 0.241592 0.146639 -0.603933
C43   C     C_3   0.928007 0.585192 0.915234 -0.497869
C44   C     C_3   0.201779 0.796057 0.378732 -0.715421
C45   C     C_R   0.297834 0.608675 0.525087 0.071576
C46   C     C_3   0.802669 0.192346 0.541582 -0.711157
C47   C     C_3   0.319678 0.743378 0.708180 -0.615541
C48   C     C_3   0.674541 0.364480 0.804340 -0.518436
C49   C     C_3   0.185797 0.214781 0.518200 -0.746343
C50   C     C_3   0.810484 0.771084 0.365072 -0.729272
C51   C     C_3   0.653405 0.984399 0.417327 -0.644337
C52   C     C_3   0.351637 0.042758 0.620874 -0.645075
C53   C     C_3   0.460773 0.995078 0.863188 -0.627886
C54   C     C_3   0.555720 0.004939 0.155645 -0.653544
C55   C     C_R   0.702974 0.407878 0.572089 0.020276
C56   C     C_R   0.327431 0.498490 0.497899 -0.167352
C57   C     C_R   0.672827 0.495747 0.491399 -0.225386
C58   C     C_R   0.298145 0.396006 0.446912 0.239584
Cl1   Cl    Cl    0.942904 0.314118 0.114311 -0.600435
Cl2   Cl    Cl    0.405466 0.947685 0.299268 -0.554044
Cl3   Cl    Cl    0.061152 0.675429 0.816816 -0.524667
Cl4   Cl    Cl    0.542436 0.253442 0.895683 -0.604724
Cl5   Cl    Cl    0.450960 0.741450 0.104903 -0.541641
Cl6   Cl    Cl    0.378552 0.533692 0.898971 -0.584962
Cl7   Cl    Cl    0.619806 0.447201 0.107281 -0.549628
Cl8   Cl    Cl    0.335288 0.266620 0.386694 -0.648236
Cl9   Cl    Cl    0.666832 0.683861 0.292183 -0.650830
Cl10  Cl    Cl    0.596366 0.051536 0.713888 -0.639205
H1    H     H_    0.417956 0.334504 0.208034 0.317825
H2    H     H_    0.114328 0.217498 0.060280 0.242071
H3    H     H_    0.049462 0.175405 0.152513 0.247162
H4    H     H_    0.110633 0.231716 0.240806 0.237641
H5    H     H_    0.906666 0.717636 0.762364 0.265203
H6    H     H_    0.907149 0.644570 0.991273 0.223218
H7    H     H_    0.968676 0.550441 0.957079 0.249334
H8    H     H_    0.899784 0.504586 0.897166 0.280616
H9    H     H_    0.221835 0.789577 0.581359 0.254493
H10   H     H_    0.175422 0.880434 0.393220 0.236519
H11   H     H_    0.179610 0.735434 0.307828 0.272777
H12   H     H_    0.388581 0.154697 0.066747 0.267105
H13   H     H_    0.243857 0.825098 0.334227 0.258227
H14   H     H_    0.779080 0.276760 0.718236 0.267602
H15   H     H_    0.761314 0.147412 0.519662 0.240519
H16   H     H_    0.829393 0.124212 0.598155 0.242912
H17   H     H_    0.825285 0.218571 0.445126 0.268549
H18   H     H_    0.326260 0.789573 0.500981 0.250507
H19   H     H_    0.293744 0.828759 0.717635 0.190780
H20   H     H_    0.361697 0.759581 0.753634 0.287421
H21   H     H_    0.296768 0.667398 0.766187 0.299717
H22   H     H_    0.635145 0.293671 0.636743 0.286733
H23   H     H_    0.409364 0.254829 0.923560 0.236245
H24   H     H_    0.663621 0.284058 0.873469 0.296029
H25   H     H_    0.642988 0.439716 0.818673 0.257588
H26   H     H_    0.717074 0.400034 0.831989 0.224885
H27   H     H_    0.226301 0.237774 0.330319 0.289740
H28   H     H_    0.159516 0.137377 0.481221 0.233537
H29   H     H_    0.158521 0.271514 0.585186 0.254452
H30   H     H_    0.221581 0.174731 0.576708 0.253844
H31   H     H_    0.776556 0.672371 0.208902 0.288653
H32   H     H_    0.836660 0.828940 0.292054 0.247229
H33   H     H_    0.836406 0.750408 0.455406 0.246810
H34   H     H_    0.352326 0.300181 0.036704 0.274301
H35   H     H_    0.772225 0.824876 0.395313 0.252132
H36   H     H_    0.615685 0.822642 0.500528 0.257098
H37   H     H_    0.684559 0.945546 0.344555 0.254579
H38   H     H_    0.675430 0.998080 0.513632 0.252025
H39   H     H_    0.639210 0.076179 0.375530 0.258630
H40   H     H_    0.407994 0.188083 0.643793 0.242283
H41   H     H_    0.316264 0.105685 0.649202 0.233283
H42   H     H_    0.361219 0.982959 0.710362 0.232422
H43   H     H_    0.337406 0.987994 0.535626 0.277433
H44   H     H_    0.485482 0.827007 0.790289 0.300485
H45   H     H_    0.587904 0.659555 0.797690 0.266619
H46   H     H_    0.430409 0.959443 0.942771 0.275970
H47   H     H_    0.445188 0.085767 0.824299 0.244563
H48   H     H_    0.502996 0.008286 0.907287 0.294010
H49   H     H_    0.508606 0.157261 0.209183 0.300714
H50   H     H_    0.573332 0.053684 0.063620 0.283629
H51   H     H_    0.519565 0.945059 0.129168 0.280365
H52   H     H_    0.590327 0.946438 0.196089 0.274984
H53   H     H_    0.614197 0.842891 0.929292 0.262555
H54   H     H_    0.643168 0.696863 0.990614 0.281706
H55   H     H_    0.581304 0.762113 0.073761 0.280982
H56   H     H_    0.048480 0.385237 0.033768 0.273956
N1    N     N_R   0.852618 0.485218 0.467220 -0.320042
N2    N     N_2   0.793268 0.300699 0.621733 -0.278695
N3    N     N_2   0.328268 0.714183 0.567503 -0.314709
N4    N     N_2   0.674355 0.324910 0.666170 -0.296976
N5    N     N_2   0.207552 0.289896 0.404417 -0.279900
N6    N     N_2   0.793789 0.657090 0.302829 -0.272966
N7    N     N_2   0.606029 0.898190 0.438248 -0.253925
N8    N     N_2   0.400927 0.115885 0.580419 -0.231824
N9    N     N_2   0.465373 0.906784 0.757399 -0.295391
N10   N     N_2   0.536910 0.095148 0.251280 -0.263083
N11   N     N_R   0.148312 0.511000 0.462606 -0.335927
N12   N     N_3   0.499960 0.500030 0.863290 -0.190581
N13   N     N_3   0.500040 0.499970 0.136710 -0.187504
N14   N     N_2   0.434548 0.313679 0.114993 -0.273199
N15   N     N_2   0.566911 0.684639 0.884826 -0.296395
N16   N     N_2   0.065969 0.368172 0.127151 -0.227803
N17   N     N_2   0.938702 0.657676 0.791247 -0.277275
N18   N     N_2   0.209167 0.731309 0.507545 -0.284643
O1    O     O_R   0.500000 0.313960 0.616610 -0.578207
O2    O     O_2   0.152410 0.476847 0.230601 -0.497235
O3    O     O_2   0.852213 0.407545 0.250632 -0.486141
O4    O     O_2   0.147141 0.546159 0.694353 -0.479478
O5    O     O_R   0.500000 0.686040 0.383390 -0.538524
O6    O     O_R   0.500030 0.313950 0.383350 -0.622501
O7    O     O_R   0.499970 0.686050 0.616650 -0.644301
O8    O     O_R   0.416140 0.499970 0.616650 -0.565200
O9    O     O_R   0.583860 0.500030 0.383350 -0.514755
O10   O     O_R   0.416170 0.499960 0.383400 -0.595981
O11   O     O_R   0.583830 0.500040 0.616600 -0.651523
O12   O     O_2   0.846735 0.562388 0.683957 -0.586110
Zn1   Zn    Zn3+2 0.499980 0.500010 0.655740 1.011353
Zn2   Zn    Zn3+2 0.500020 0.499990 0.344260 1.078995

loop_
_geom_bond_atom_site_label_1
_geom_bond_atom_site_label_2
_ccdc_geom_bond_type
C7    C13   S    
C23   C45   A    
C54   H52   S    
C27   C29   A    
C28   N11   A    
C21   N13   S    
H44   N9    S    
C36   Cl1   S    
C17   O11   A    
C2    C57   A    
C15   N10   S    
H5    N17   S    
C29   C36   A    
C33   C39   A    
C48   H26   S    
C12   O5    A    
C19   C21   S    
C8    C11   S    
C11   C14   S    
C54   N10   S    
C40   H23   S    
C42   H2    S    
C5    N11   S    
C41   H53   S    
C18   N14   S    
C25   N1    A    
H9    N18   S    
H14   N2    S    
C26   N11   A    
C50   N6    S    
C7    Cl10  S    
C58   Cl8   S    
C7    C14   S    
C39   N17   S    
C45   C56   A    
H36   N7    S    
C40   N14   S    
C40   H12   S    
C23   N18   S    
O11   Zn1   S    
C53   H48   S    
C27   O3    S    
H1    N14   S    
C46   H17   S    
C43   H6    S    
C49   H30   S    
C34   C55   A    
C44   H11   S    
C18   C22   S    
C21   C22   S    
C47   H21   S    
H45   N15   S    
C17   O9    A    
C26   O2    S    
H49   N10   S    
C42   H4    S    
H56   N16   S    
C9    N7    S    
C43   H7    S    
C37   C39   A    
H40   N8    S    
C48   H25   S    
C42   N16   S    
C52   N8    S    
C32   C35   A    
O10   Zn2   S    
C35   C38   A    
C53   N9    S    
C4    C6    A    
C44   H13   S    
C10   C14   S    
N12   Zn1   S    
C51   N7    S    
C4    N6    S    
C52   H43   S    
C19   N12   S    
C49   N5    S    
C6    C34   A    
C30   C37   A    
C22   N12   S    
C47   H19   S    
C41   H54   S    
C18   N13   S    
C2    C4    A    
C44   H10   S    
C16   C56   S    
C1    O1    A    
C48   N4    S    
H18   N3    S    
O1    Zn1   S    
C31   C32   A    
C5    C23   A    
C52   H42   S    
C34   N2    S    
C31   C33   A    
C16   O10   A    
O9    Zn2   S    
C20   N12   S    
O5    Zn2   S    
C9    C11   S    
C24   Cl7   S    
C46   H16   S    
C44   N18   S    
C2    Cl9   S    
C8    C15   S    
O8    Zn1   S    
C13   C15   S    
C43   N17   S    
C1    C13   S    
C54   H50   S    
C53   H46   S    
C43   H8    S    
C7    C9    S    
H22   N4    S    
H31   N6    S    
C25   O12   S    
C3    N5    S    
C28   O4    S    
C12   O7    A    
C46   N2    S    
C8    C10   S    
C6    N1    S    
C3    C5    A    
C10   C13   S    
C37   Cl3   S    
C11   C12   S    
C47   N3    S    
C14   N9    S    
C24   N13   S    
C50   H32   S    
C47   H20   S    
C41   H55   S    
C55   C57   A    
C19   C24   S    
O7    Zn1   S    
C28   C30   A    
C29   C31   A    
C8    Cl2   S    
C30   C32   A    
C27   N1    A    
C21   Cl5   S    
C52   H41   S    
C45   N3    S    
C51   H38   S    
C36   C38   A    
C42   H3    S    
C56   C58   A    
C18   C20   S    
C49   H28   S    
C20   Cl4   S    
C10   N8    S    
C51   H37   S    
C41   N15   S    
C49   H29   S    
C40   H34   S    
C46   H15   S    
C3    C58   A    
C26   C35   A    
C50   H35   S    
C55   N4    S    
N13   Zn2   S    
C50   H33   S    
C51   H39   S    
C48   H24   S    
C25   C33   A    
H27   N5    S    
C38   N16   S    
C1    O6    A    
C16   O8    A    
O6    Zn2   S    
C22   Cl6   S    
C54   H51   S    
C20   C24   S    
C19   N15   S    
C53   H47   S    
C9    C15   S    
C17   C57   S    
