data_mof_unit_38022.cif
_audit_creation_date              2013-03-05T15:49:44-0500
_audit_creation_method            fapswitch 2.2
_symmetry_space_group_name_H-M    P1
_symmetry_Int_Tables_number       1
_space_group_crystal_system       triclinic
_cell_length_a                    13.465627
_cell_length_b                    13.512143
_cell_length_c                    27.51008
_cell_angle_alpha                 90.361529
_cell_angle_beta                  89.826513
_cell_angle_gamma                 59.891311
_cell_volume                      4329.88967242

loop_
_atom_site_label
_atom_site_type_symbol
_atom_site_description
_atom_site_fract_x
_atom_site_fract_y
_atom_site_fract_z
_atom_type_partial_charge
O1    O     O_R   0.301780 0.195490 0.553940 -0.497994
O2    O     O_R   0.522450 0.158840 0.550250 -0.490236
C1    C     C_R   0.620506 0.101284 0.569807 0.550980
O3    O     O_R   0.694460 0.003360 0.553820 -0.499467
O4    O     O_R   0.657750 0.819520 0.549120 -0.485826
C2    C     C_R   0.600057 0.778712 0.568311 0.550458
O5    O     O_R   0.501990 0.803120 0.552700 -0.504987
O6    O     O_R   0.318230 0.023430 0.549370 -0.491753
C3    C     C_R   0.277312 0.121795 0.569254 0.550505
O7    O     O_R   0.302950 0.194150 0.446980 -0.509494
O8    O     O_R   0.523540 0.157600 0.451100 -0.507811
C4    C     C_R   0.598759 0.069993 0.425880 0.538765
O9    O     O_R   0.695630 0.002030 0.446860 -0.462842
O10   O     O_R   0.658840 0.818280 0.449970 -0.460782
C5    C     C_R   0.603494 0.774555 0.430949 0.544780
O11   O     O_R   0.503160 0.801780 0.445740 -0.524676
O12   O     O_R   0.319320 0.022190 0.450230 -0.501601
C6    C     C_R   0.282670 0.118964 0.430026 0.533296
Cr1   Cr    Cr6+3 0.417550 0.169090 0.500530 1.042053
Cr2   Cr    Cr6+3 0.669180 0.913420 0.499920 1.103178
Cr3   Cr    Cr6+3 0.413260 0.917540 0.499520 1.029364
O13   O     O_3   0.499990 0.000010 0.499990 -0.288429
C7    C     C_3   0.773488 0.594616 0.736103 -0.100217
C8    C     C_3   0.754367 0.688026 0.774068 -0.100015
H1    H     H_    0.821468 0.704588 0.788681 0.105182
H2    H     H_    0.856410 0.533774 0.718323 0.106221
H3    H     H_    0.622708 0.864679 0.737741 0.100674
C9    C     C_1   0.697208 0.608270 0.898767 -0.015453
C10   C     C_1   0.631855 0.730593 0.615684 -0.009449
C11   C     C_3   0.699249 0.560965 0.767334 -0.101675
C12   C     C_3   0.679873 0.654805 0.804414 0.052342
C13   C     C_3   0.590053 0.648837 0.740207 -0.099052
C14   C     C_3   0.664411 0.682088 0.709784 0.052577
C15   C     C_3   0.570898 0.742203 0.778031 -0.102315
C16   C     C_3   0.645059 0.775937 0.746855 -0.103662
C17   C     C_1   0.688366 0.634486 0.856676 -0.058795
C18   C     C_1   0.650507 0.703103 0.657598 -0.055431
H4    H     H_    0.487912 0.803040 0.795772 0.103665
H5    H     H_    0.522902 0.632245 0.725668 0.106233
H6    H     H_    0.721508 0.472249 0.776441 0.099228
C19   C     C_3   0.090664 0.132491 0.737738 -0.100840
C20   C     C_3   0.183721 0.058905 0.775469 -0.100264
H7    H     H_    0.200740 0.975347 0.789932 0.104974
H8    H     H_    0.030539 0.109954 0.720059 0.105120
H9    H     H_    0.361482 0.013902 0.738745 0.100334
C21   C     C_1   0.098762 0.199780 0.900468 -0.015085
C22   C     C_1   0.228605 0.137882 0.616901 -0.011088
C23   C     C_3   0.055223 0.240870 0.769167 -0.101527
C24   C     C_3   0.148720 0.167112 0.806019 0.052426
C25   C     C_3   0.143410 0.262123 0.741902 -0.098541
C26   C     C_3   0.178449 0.154038 0.711266 0.052618
C27   C     C_3   0.236425 0.188633 0.779474 -0.102034
C28   C     C_3   0.271974 0.080233 0.748093 -0.103756
C29   C     C_1   0.126704 0.180363 0.858368 -0.058326
C30   C     C_1   0.200525 0.146651 0.658958 -0.055765
H10   H     H_    0.296543 0.211250 0.797109 0.103798
H11   H     H_    0.126346 0.345772 0.727520 0.106766
H12   H     H_    0.965730 0.307300 0.778480 0.099553
C31   C     C_3   0.628048 0.277117 0.738808 -0.100660
C32   C     C_3   0.554082 0.258143 0.776850 -0.099888
H13   H     H_    0.469767 0.324868 0.791602 0.105239
H14   H     H_    0.605109 0.359552 0.721223 0.104893
H15   H     H_    0.510725 0.124689 0.740376 0.100186
C33   C     C_1   0.691019 0.206851 0.901511 -0.014807
C34   C     C_1   0.635839 0.133400 0.617687 -0.013381
C35   C     C_3   0.736441 0.204814 0.769824 -0.101621
C36   C     C_3   0.662318 0.185567 0.807020 0.052444
C37   C     C_3   0.759001 0.094898 0.742480 -0.098961
C38   C     C_3   0.650861 0.167348 0.712243 0.052637
C39   C     C_3   0.685120 0.075871 0.780400 -0.102068
C40   C     C_3   0.576700 0.148106 0.749413 -0.103594
C41   C     C_1   0.673898 0.196040 0.859403 -0.058084
C42   C     C_1   0.644104 0.152426 0.659851 -0.056418
H16   H     H_    0.708127 0.993373 0.797944 0.103989
H17   H     H_    0.843388 0.028141 0.727790 0.106244
H18   H     H_    0.802506 0.228130 0.778826 0.099438
C43   C     C_R   0.643972 0.714947 0.384063 0.003953
C44   C     C_R   0.741108 0.708028 0.360645 0.196783
C45   C     C_R   0.747432 0.701809 0.310098 -0.115001
C46   C     C_R   0.665963 0.689687 0.283073 -0.015932
C47   C     C_R   0.580823 0.678072 0.307397 -0.130560
C48   C     C_R   0.569076 0.691910 0.357402 -0.157598
C49   C     C_R   0.574365 0.720812 0.201411 -0.110722
C50   C     C_R   0.584077 0.693285 0.152139 -0.121235
C51   C     C_R   0.791097 0.604814 0.157845 -0.123609
C52   C     C_R   0.781787 0.627996 0.207087 -0.119612
C53   C     C_R   0.673713 0.682210 0.229775 0.035296
C54   C     C_R   0.693014 0.630735 0.130727 0.023726
H19   H     H_    0.489574 0.766996 0.217695 0.110707
H20   H     H_    0.507407 0.715289 0.131529 0.127822
H21   H     H_    0.815783 0.707735 0.292124 0.145676
H22   H     H_    0.860360 0.595428 0.227563 0.115938
H23   H     H_    0.876546 0.556339 0.142257 0.137096
H24   H     H_    0.520828 0.661831 0.287750 0.136702
H25   H     H_    0.496359 0.692474 0.374647 0.154296
C55   C     C_R   0.251837 0.129677 0.378947 0.032034
C56   C     C_R   0.188081 0.083246 0.359430 -0.120657
C57   C     C_R   0.170394 0.087197 0.309292 -0.110347
C58   C     C_R   0.220188 0.133679 0.278570 0.024606
C59   C     C_R   0.289335 0.173500 0.298406 -0.118563
C60   C     C_R   0.302518 0.174214 0.348035 -0.108373
C61   C     C_R   0.173037 0.253897 0.205311 -0.109959
C62   C     C_R   0.135210 0.278859 0.157956 -0.120128
C63   C     C_R   0.136930 0.098802 0.151634 -0.125329
C64   C     C_R   0.177032 0.072722 0.199117 -0.120954
C65   C     C_R   0.191966 0.151866 0.226723 0.031015
C66   C     C_R   0.112497 0.203774 0.131381 0.021624
H26   H     H_    0.151117 0.045849 0.382858 0.127398
H27   H     H_    0.181485 0.317838 0.225871 0.141227
H28   H     H_    0.116827 0.360600 0.143396 0.138967
H29   H     H_    0.115896 0.056627 0.294804 0.118883
H30   H     H_    0.193202 0.992559 0.214624 0.108627
H31   H     H_    0.120611 0.039223 0.131595 0.127280
H32   H     H_    0.332234 0.205781 0.275569 0.146113
H33   H     H_    0.355996 0.206481 0.362123 0.149823
C67   C     C_R   0.606260 0.093589 0.374725 0.030949
C68   C     C_R   0.608781 0.191998 0.360954 -0.104371
C69   C     C_R   0.608022 0.217253 0.311870 -0.088973
C70   C     C_R   0.602068 0.145887 0.276068 0.039656
C71   C     C_R   0.599171 0.047561 0.290052 -0.117903
C72   C     C_R   0.601098 0.021767 0.339165 -0.122804
C73   C     C_R   0.707273 0.078136 0.198515 -0.137513
C74   C     C_R   0.736395 0.098599 0.152735 -0.130604
C75   C     C_R   0.576439 0.293058 0.156062 -0.100584
C76   C     C_R   0.546046 0.272628 0.202113 0.086131
C77   C     C_R   0.615032 0.165680 0.224439 0.036501
C78   C     C_R   0.674264 0.207520 0.131859 -0.002587
H34   H     H_    0.612122 0.248585 0.388154 0.134211
H35   H     H_    0.761068 0.995295 0.214865 0.124567
H36   H     H_    0.811327 0.030152 0.134745 0.140414
H37   H     H_    0.614507 0.291191 0.301771 0.145145
H38   H     H_    0.525867 0.376794 0.140055 0.152757
H39   H     H_    0.596082 0.990639 0.262942 0.119804
H40   H     H_    0.595978 0.947313 0.349494 0.106758
O14   O     O_R   0.819250 0.149410 0.965240 -0.506846
O15   O     O_R   0.006940 0.180310 0.968270 -0.495132
C79   C     C_R   0.050323 0.234717 0.948101 0.545514
O16   O     O_R   0.028420 0.332670 0.963010 -0.505099
O17   O     O_R   0.810130 0.520390 0.966030 -0.494028
C80   C     C_R   0.711794 0.562355 0.946526 0.544870
O18   O     O_R   0.636050 0.541380 0.962520 -0.507540
O19   O     O_R   0.666480 0.323610 0.968170 -0.494295
C81   C     C_R   0.722311 0.224108 0.949185 0.545928
O20   O     O_R   0.817280 0.156800 0.072180 -0.518105
O21   O     O_R   0.005110 0.187160 0.067410 -0.501713
C82   C     C_R   0.048850 0.243198 0.086004 0.542274
O22   O     O_R   0.026450 0.340060 0.069950 -0.523191
O23   O     O_R   0.808300 0.527240 0.065170 -0.507100
C83   C     C_R   0.709044 0.572707 0.084144 0.541743
O24   O     O_R   0.634070 0.548770 0.069460 -0.513192
O25   O     O_R   0.664650 0.330470 0.067300 -0.498599
C84   C     C_R   0.719148 0.232416 0.087448 0.544807
Cr4   Cr    Cr6+3 0.909770 0.175810 0.018240 1.023699
Cr5   Cr    Cr6+3 0.913300 0.427650 0.016090 1.023794
Cr6   Cr    Cr6+3 0.657770 0.431010 0.016900 1.030124
O26   O     O_3   0.826940 0.344820 0.017080 -0.244873
N1    N     N_R   0.831421 0.710760 0.387284 0.092429
O27   O     O_R   0.884474 0.760424 0.369090 -0.333504
O28   O     O_R   0.871714 0.649763 0.426341 -0.314084
I1    I     I_    0.394747 0.405781 0.235245 -0.467944

loop_
_geom_bond_atom_site_label_1
_geom_bond_atom_site_label_2
_geom_bond_distance
_ccdc_geom_bond_type
C49   C53   1.407831 A    
O11   Cr3   2.039898 S    
O15   Cr4   1.917152 S    
C6    C55   1.453835 S    
C19   C20   1.551470 S    
C35   C37   1.547852 S    
C9    C80   1.428040 S    
C47   C48   1.384954 A    
C76   I1    2.123435 S    
O4    Cr2   1.918805 S    
C5    C43   1.466862 S    
C51   C52   1.379543 A    
C71   C72   1.394525 A    
C37   H17   1.110156 S    
O8    Cr1   1.916630 S    
N1    O27   1.301632 A    
O23   Cr5   1.920826 S    
C62   H28   1.083282 S    
Cr3   O13   1.977742 S    
C15   C16   1.548229 S    
C46   C53   1.468867 S    
C12   C17   1.459469 S    
C31   C35   1.549294 S    
C11   C12   1.538360 S    
C7    H2    1.110186 S    
C24   C29   1.461092 S    
C56   C57   1.397203 A    
C34   C42   1.204000 T    
C67   C68   1.401553 A    
C75   H38   1.083011 S    
C71   H39   1.083777 S    
C54   C83   1.455858 S    
C13   H5    1.110099 S    
O20   Cr4   2.033128 S    
C38   C40   1.538883 S    
O22   Cr5   2.035737 S    
C69   C70   1.404431 A    
C69   H37   1.083426 S    
C56   H26   1.083046 S    
C51   H23   1.083609 S    
O1    C3    1.269346 A    
C58   C59   1.398670 A    
C32   C36   1.535708 S    
O6    C3    1.274221 A    
C7    C14   1.534290 S    
C39   H16   1.110298 S    
C25   C27   1.547930 S    
O25   C84   1.279616 A    
C38   C42   1.463492 S    
C39   C40   1.548917 S    
C57   H29   1.082513 S    
O25   Cr6   1.916982 S    
O19   Cr6   1.928888 S    
C73   H35   1.083906 S    
C45   H21   1.081544 S    
O21   Cr4   1.925320 S    
O16   Cr5   2.036916 S    
C23   C25   1.547457 S    
C35   C36   1.539009 S    
H9    C28   1.110653 S    
C31   C32   1.551214 S    
N1    O28   1.301623 A    
C55   C60   1.402155 A    
C1    C34   1.431881 S    
C50   H20   1.083255 S    
C63   C64   1.393297 A    
O21   C82   1.275258 A    
C49   H19   1.082707 S    
O17   C80   1.271867 A    
O1    Cr1   2.034192 S    
C8    C16   1.549750 S    
C67   C72   1.399913 A    
C7    C11   1.549213 S    
O10   Cr2   1.928391 S    
C36   C41   1.463529 S    
Cr1   O13   1.976628 S    
C59   H32   1.082902 S    
C8    H1    1.109986 S    
C66   C82   1.460614 S    
C52   C53   1.401140 A    
C37   C38   1.535619 S    
O17   Cr5   1.919278 S    
H3    C16   1.110605 S    
C43   C44   1.416365 A    
O12   Cr3   1.917891 S    
C45   C46   1.402377 A    
C32   H13   1.110046 S    
C26   C28   1.538639 S    
C13   C15   1.547958 S    
C73   C77   1.400186 A    
C78   C84   1.475061 S    
C44   N1    1.437871 S    
C74   C78   1.405013 A    
C49   C50   1.391582 A    
O7    Cr1   2.040106 S    
C7    C8    1.551090 S    
C24   C27   1.534485 S    
C35   H18   1.110626 S    
C55   C56   1.399244 A    
C21   C29   1.202611 T    
O12   C6    1.275049 A    
C12   C15   1.534059 S    
C11   H6    1.110573 S    
C25   C26   1.535122 S    
C80   O18   1.266130 A    
Cr4   O26   1.976337 S    
C31   C38   1.534993 S    
C75   C78   1.404243 A    
C37   C39   1.548478 S    
C23   C24   1.538750 S    
C64   H30   1.082802 S    
H15   C40   1.110641 S    
C3    C22   1.429577 S    
O24   Cr6   2.045272 S    
C21   C79   1.429505 S    
C74   H36   1.083211 S    
C76   C77   1.412907 A    
C60   H33   1.083243 S    
C19   H8    1.110246 S    
C20   H7    1.110050 S    
C72   H40   1.081978 S    
C1    O3    1.266457 A    
C27   C28   1.548509 S    
C22   C30   1.202634 T    
C82   O22   1.269277 A    
C64   C65   1.402580 A    
C51   C54   1.403125 A    
C58   C65   1.467389 S    
C31   H14   1.110250 S    
C48   H25   1.083319 S    
O9    Cr2   2.034165 S    
O2    Cr1   1.924359 S    
C15   H4    1.110260 S    
C25   H11   1.110183 S    
Cr5   O26   1.977797 S    
O18   Cr6   2.034904 S    
C50   C54   1.399192 A    
Cr2   O13   1.971033 S    
C46   C47   1.401418 A    
O6    Cr3   1.921726 S    
C62   C66   1.400234 A    
C70   C71   1.404653 A    
C23   H12   1.110648 S    
C2    O5    1.266996 A    
C33   C81   1.431829 S    
C79   O16   1.267978 A    
C32   C40   1.550243 S    
C36   C39   1.534890 S    
C13   C14   1.534895 S    
O2    C1    1.271626 A    
C8    C12   1.534934 S    
C20   C28   1.550285 S    
O5    Cr3   2.035687 S    
C68   C69   1.393663 A    
C11   C13   1.547575 S    
C47   H24   1.082569 S    
C44   C45   1.392328 A    
O4    C2    1.271722 A    
C43   C48   1.403037 A    
O7    C6    1.263862 A    
O14   C81   1.266886 A    
C59   C60   1.377941 A    
C14   C16   1.538359 S    
C19   C23   1.549260 S    
C61   C65   1.403996 A    
C26   C30   1.461105 S    
O23   C83   1.266547 A    
C33   C41   1.204003 T    
C61   C62   1.381144 A    
C68   H34   1.083547 S    
C14   C18   1.459518 S    
C20   C24   1.535243 S    
C63   H31   1.083010 S    
O3    Cr2   2.046175 S    
C70   C77   1.472915 S    
C27   H10   1.110316 S    
C2    C10   1.428038 S    
C4    O9    1.298995 A    
C9    C17   1.201707 T    
O20   C84   1.266153 A    
C57   C58   1.408597 A    
C10   C18   1.201721 T    
Cr6   O26   1.970788 S    
O19   C81   1.272890 A    
O10   C5    1.272218 A    
O15   C79   1.274223 A    
C61   H27   1.082654 S    
C52   H22   1.081653 S    
C73   C74   1.387981 A    
C83   O24   1.271009 A    
C19   C26   1.534679 S    
C63   C66   1.404778 A    
O14   Cr4   2.044329 S    
C5    O11   1.273729 A    
O8    C4    1.300380 A    
C75   C76   1.401170 A    
C4    C67   1.459248 S    
