data_mof_unit_34709.cif
_audit_creation_date              2012-12-11T16:06:30-0500
_audit_creation_method            fapswitch 2.2
_symmetry_space_group_name_H-M    P1
_symmetry_Int_Tables_number       1
_space_group_crystal_system       triclinic
_cell_length_a                    7.211919
_cell_length_b                    14.219004
_cell_length_c                    16.1085
_cell_angle_alpha                 89.985815
_cell_angle_beta                  89.92681
_cell_angle_gamma                 90.046434
_cell_volume                      1651.8652146

loop_
_atom_site_label
_atom_site_type_symbol
_atom_type_description
_atom_site_fract_x
_atom_site_fract_y
_atom_site_fract_z
_atom_type_partial_charge
O1    O     O_R   0.388780 0.834790 0.412340 -0.525913
O2    O     O_R   0.111220 0.165210 0.912340 -0.536135
O3    O     O_R   0.888780 0.665210 0.587660 -0.545784
O4    O     O_R   0.611220 0.334790 0.087660 -0.543379
O5    O     O_R   0.059040 0.845930 0.587040 -0.546919
O6    O     O_R   0.440960 0.154070 0.087040 -0.530601
O7    O     O_R   0.559040 0.654070 0.412960 -0.530855
O8    O     O_R   0.940960 0.345930 0.912960 -0.528957
C1    C     C_R   0.227740 0.868920 0.614758 0.700855
C2    C     C_R   0.272671 0.129930 0.113666 0.625993
C3    C     C_R   0.726719 0.631774 0.384868 0.646251
C4    C     C_R   0.773382 0.368223 0.884866 0.647600
O9    O     O_R   0.059070 0.845930 0.412970 -0.539257
O10   O     O_R   0.440930 0.154070 0.912970 -0.534656
O11   O     O_R   0.559070 0.654070 0.587030 -0.551862
O12   O     O_R   0.940930 0.345930 0.087030 -0.549092
O13   O     O_R   0.888760 0.665210 0.412340 -0.524881
O14   O     O_R   0.611240 0.334790 0.912340 -0.523594
O15   O     O_R   0.388760 0.834790 0.587660 -0.520645
O16   O     O_R   0.111240 0.165210 0.087660 -0.538014
C5    C     C_R   0.227456 0.866476 0.383680 0.714701
C6    C     C_R   0.271750 0.129491 0.887016 0.691328
C7    C     C_R   0.727879 0.631260 0.614691 0.635196
C8    C     C_R   0.772024 0.368738 0.114685 0.639606
O17   O     O_3   0.222280 0.690700 0.500000 -0.373295
O18   O     O_3   0.277720 0.309300 0.000000 -0.366426
O19   O     O_3   0.722280 0.809300 0.500000 -0.360017
O20   O     O_3   0.777720 0.190700 0.000000 -0.359835
V1    V     V_3+5 0.947430 0.761000 0.500000 1.452984
V2    V     V_3+5 0.552570 0.239000 0.000000 1.462195
V3    V     V_3+5 0.447430 0.739000 0.500000 1.463039
V4    V     V_3+5 0.052570 0.261000 0.000000 1.437233
C9    C     C_3   0.944542 0.553533 0.717458 -0.390723
C10   C     C_3   0.555395 0.446488 0.217654 -0.389496
C11   C     C_3   0.374850 0.898229 0.244439 -0.370555
C12   C     C_3   0.225958 0.113520 0.734430 -0.444750
H1    H     H_    0.036340 0.534188 0.664422 0.113054
H2    H     H_    0.463640 0.465853 0.164706 0.114384
H3    H     H_    0.513536 0.888771 0.273687 0.114339
H4    H     H_    0.103703 0.160665 0.742286 0.138546
H5    H     H_    0.992470 0.625066 0.735593 0.185019
H6    H     H_    0.507404 0.374962 0.235863 0.186777
H7    H     H_    0.332736 0.825741 0.226815 0.197200
H8    H     H_    0.345225 0.162370 0.724906 0.152975
C13   C     C_3   0.966109 0.481407 0.790560 0.037764
C14   C     C_3   0.533947 0.518623 0.290758 0.038462
C15   C     C_3   0.388235 0.966188 0.167089 -0.005503
C16   C     C_3   0.199680 0.045965 0.657963 -0.029827
H9    H     H_    0.787322 0.432689 0.612763 0.117310
H10   H     H_    0.712748 0.567373 0.112810 0.119675
H11   H     H_    0.451667 0.025196 0.368145 0.160233
H12   H     H_    0.961329 0.027155 0.820594 0.131042
H13   H     H_    0.769328 0.325899 0.718059 0.098543
H14   H     H_    0.731071 0.674142 0.218072 0.104588
H15   H     H_    0.474925 0.129504 0.261094 0.118285
H16   H     H_    0.954039 0.903682 0.730021 0.124224
C17   C     C_3   0.682646 0.458027 0.658540 0.069656
C18   C     C_3   0.817404 0.541966 0.158457 0.070039
C19   C     C_3   0.311328 0.034808 0.340674 0.066338
C20   C     C_3   0.093338 0.987002 0.826117 0.067620
C21   C     C_3   0.621420 0.592589 0.761269 -0.301633
C22   C     C_3   0.878439 0.407363 0.261153 -0.299200
C23   C     C_3   0.048153 0.948895 0.267724 -0.319960
C24   C     C_3   0.443613 0.003146 0.804920 -0.335384
C25   C     C_3   0.740232 0.560118 0.685871 0.032097
C26   C     C_3   0.759654 0.439872 0.185864 0.022741
C27   C     C_3   0.238420 0.936169 0.311377 -0.000460
C28   C     C_3   0.259378 0.058446 0.816107 0.035074
H17   H     H_    0.474312 0.603154 0.743192 0.135683
H18   H     H_    0.025542 0.396764 0.242917 0.137071
H19   H     H_    0.938461 0.969229 0.312788 0.143075
H20   H     H_    0.477330 0.963178 0.862221 0.155944
H21   H     H_    0.672183 0.662135 0.783391 0.161600
H22   H     H_    0.827611 0.337829 0.283359 0.160347
H23   H     H_    0.003373 0.880869 0.239985 0.179455
H24   H     H_    0.560639 0.052885 0.794387 0.151798
C29   C     C_3   0.767805 0.438643 0.812795 -0.026020
C30   C     C_3   0.732332 0.561347 0.312800 -0.032047
C31   C     C_3   0.265464 0.057036 0.183988 -0.055108
C32   C     C_3   0.238214 0.940241 0.686428 0.017437
C33   C     C_3   0.687450 0.389564 0.734078 -0.313586
C34   C     C_3   0.812789 0.610411 0.233993 -0.304605
C35   C     C_3   0.329728 0.104085 0.266089 -0.320555
C36   C     C_3   0.096229 0.912437 0.755319 -0.358004
C37   C     C_3   0.632219 0.520705 0.833613 -0.306373
C38   C     C_3   0.867753 0.479232 0.333499 -0.307066
C39   C     C_3   0.061423 0.024392 0.198893 -0.302576
C40   C     C_3   0.432261 0.935439 0.730019 -0.306693
H25   H     H_    0.674005 0.556727 0.891827 0.170653
H26   H     H_    0.825860 0.443213 0.391763 0.169766
H27   H     H_    0.002851 0.995729 0.140502 0.206432
H28   H     H_    0.546473 0.952261 0.686223 0.193367
H29   H     H_    0.490932 0.492494 0.845471 0.178387
H30   H     H_    0.009074 0.507374 0.345214 0.178055
H31   H     H_    0.974692 0.085807 0.217005 0.145023
H32   H     H_    0.459062 0.862455 0.752012 0.130933
H33   H     H_    0.546020 0.362963 0.747651 0.220919
H34   H     H_    0.954296 0.636908 0.247407 0.226075
H35   H     H_    0.245739 0.168634 0.276996 0.163775
H36   H     H_    0.133628 0.841851 0.780185 0.174642
N1    N     N_3   0.500704 0.452983 0.618000 -0.645554
H37   H     H_    0.509639 0.482077 0.558551 0.236227
H38   H     H_    0.401470 0.490133 0.651898 0.239780
N2    N     N_3   0.999332 0.546954 0.117689 -0.619571
H39   H     H_    0.990354 0.517848 0.058269 0.236088
H40   H     H_    0.098559 0.509808 0.151499 0.237973
N3    N     N_3   0.192596 0.076629 0.404690 -0.611155
H41   H     H_    0.165792 0.026227 0.450032 0.260267
H42   H     H_    0.064730 0.096054 0.379518 0.253769
N4    N     N_3   0.089133 0.939192 0.906604 -0.614915
H43   H     H_    0.078502 0.988529 0.954383 0.229336
H44   H     H_    0.210038 0.899895 0.914283 0.252277
C41   C     C_2   0.051310 0.531097 0.866065 0.345950
H45   H     H_    0.148881 0.494850 0.906057 0.104443
O21   O     O_2   0.006720 0.611090 0.885249 -0.537231
C42   C     C_2   0.448621 0.468951 0.366365 0.342335
H46   H     H_    0.351052 0.505222 0.406438 0.103406
O22   O     O_2   0.493097 0.388943 0.385533 -0.544642
C43   C     C_2   0.321338 0.918710 0.087769 0.433406
H47   H     H_    0.352929 0.952041 0.028998 0.030174
O23   O     O_2   0.232385 0.845551 0.088104 -0.520989
C44   C     C_2   0.331453 0.080026 0.589927 0.391658
H48   H     H_    0.321642 0.152445 0.568896 0.116998
O24   O     O_2   0.447652 0.029172 0.557990 -0.535339
C45   C     C_2   0.096594 0.403371 0.760510 0.241523
H49   H     H_    0.076359 0.372282 0.699650 0.075851
O25   O     O_2   0.224094 0.374002 0.802984 -0.548488
C46   C     C_2   0.403564 0.596682 0.260791 0.240210
H50   H     H_    0.424093 0.627868 0.199953 0.090924
O26   O     O_2   0.275764 0.625925 0.303287 -0.549213
C47   C     C_2   0.592176 0.991637 0.155778 0.326848
H51   H     H_    0.668634 0.020753 0.207533 0.033265
O27   O     O_2   0.673683 0.979019 0.090112 -0.533330
C48   C     C_2   0.999496 0.056769 0.627885 0.325101
H52   H     H_    0.885306 0.041575 0.669600 0.058085
O28   O     O_2   0.961681 0.086519 0.558882 -0.528621

loop_
_geom_bond_atom_site_label_1
_geom_bond_atom_site_label_2
_ccdc_geom_bond_type
O17   V3    S    
C40   H32   S    
O1    C5    A    
N1    H37   S    
C39   H27   S    
O19   V1    S    
C9    C13   S    
O3    C7    A    
C10   H6    S    
C15   C31   S    
C32   C36   S    
O15   V3    S    
C46   H50   S    
C10   C26   S    
N2    H40   S    
C9    C25   S    
O7    C3    A    
C22   C38   S    
C23   H23   S    
C24   C28   S    
C14   C46   S    
C19   C35   S    
C18   C34   S    
C16   C44   S    
O4    C8    A    
C21   H17   S    
O1    V3    S    
O13   V1    S    
C42   H46   S    
C22   H18   S    
O2    V4    S    
O3    V1    S    
N4    H43   S    
C38   H30   S    
N4    H44   S    
C19   C27   S    
C37   H29   S    
C18   C26   S    
C40   H28   S    
C13   C45   S    
C39   H31   S    
O2    C6    A    
N3    H41   S    
C10   C14   S    
C29   C33   S    
C11   H7    S    
C8    C26   S    
C30   C38   S    
O11   C7    A    
C11   C15   S    
O12   C8    A    
C35   H35   S    
C5    C27   S    
O10   C6    A    
N3    H42   S    
O10   V2    S    
C31   C39   S    
N2    H39   S    
C1    O15   A    
H16   C36   S    
O5    V1    S    
C43   O23   D    
C23   C27   S    
O7    V3    S    
C34   H34   S    
C36   H36   S    
C12   H4    S    
C38   H26   S    
C2    O16   A    
C14   C30   S    
C22   C26   S    
O18   V4    S    
C48   O28   D    
C21   H21   S    
C19   N3    S    
C15   C47   S    
C1    C32   S    
O8    V4    S    
C11   H3    S    
O5    C1    A    
C3    C30   S    
C21   C25   S    
C30   C34   S    
C11   C27   S    
O8    C4    A    
C4    C29   S    
C24   H24   S    
H10   C18   S    
O9    C5    A    
C43   H47   S    
C6    C28   S    
C21   C37   S    
O14   V2    S    
O6    V2    S    
C23   H19   S    
C45   H49   S    
C17   C33   S    
C12   H8    S    
H11   C19   S    
O9    V1    S    
C44   O24   D    
C47   H51   S    
H14   C34   S    
C41   H45   S    
O16   V4    S    
C16   C48   S    
C3    O13   A    
C37   H25   S    
C23   C39   S    
C10   H2    S    
C17   C25   S    
C47   O27   D    
C46   O26   D    
O6    C2    A    
H9    C17   S    
C2    C31   S    
C12   C28   S    
O11   V3    S    
C48   H52   S    
O12   V4    S    
C17   N1    S    
N1    H38   S    
C14   C42   S    
C9    H5    S    
C7    C25   S    
O20   V2    S    
C32   C40   S    
C31   C35   S    
C20   C36   S    
C16   C32   S    
C33   H33   S    
C15   C43   S    
C42   O22   D    
C12   C16   S    
C24   H20   S    
H13   C33   S    
C9    H1    S    
C20   N4    S    
C29   C37   S    
C13   C41   S    
C18   N2    S    
C20   C28   S    
H12   C20   S    
C4    O14   A    
C45   O25   D    
C22   H22   S    
C13   C29   S    
C44   H48   S    
H15   C35   S    
C24   C40   S    
O4    V2    S    
C41   O21   D    
