data_mof_unit_25604.cif
_audit_creation_date              2012-10-26T17:11:32-0400
_audit_creation_method            fapswitch 2.2
_symmetry_space_group_name_H-M    P1
_symmetry_Int_Tables_number       1
_space_group_crystal_system       triclinic
_cell_length_a                    27.923513
_cell_length_b                    18.743458
_cell_length_c                    16.871847
_cell_angle_alpha                 90.052672
_cell_angle_beta                  62.522598
_cell_angle_gamma                 90.061674
_cell_volume                      7834.29911359

loop_
_atom_site_label
_atom_site_type_symbol
_atom_type_description
_atom_site_fract_x
_atom_site_fract_y
_atom_site_fract_z
_atom_type_partial_charge
C1    C     C_R   0.295138 0.728443 0.329622 0.825541
C2    C     C_R   0.705009 0.271808 0.670270 0.797499
C3    C     C_R   0.705049 0.728104 0.670330 0.785369
C4    C     C_R   0.294987 0.271829 0.329696 0.820136
C5    C     C_R   0.795138 0.228443 0.329622 0.825540
C6    C     C_R   0.205009 0.771808 0.670270 0.797500
C7    C     C_R   0.205049 0.228104 0.670330 0.785368
C8    C     C_R   0.794987 0.771829 0.329696 0.820137
C9    C     C_R   0.388177 0.000222 0.537427 0.074469
C10   C     C_R   0.582196 0.999819 0.566541 0.078173
C11   C     C_R   0.888178 0.500222 0.537427 0.074468
C12   C     C_R   0.082196 0.499819 0.566540 0.078174
C13   C     C_R   0.575580 0.871472 0.585538 -0.192952
C14   C     C_R   0.383380 0.128395 0.555582 -0.191342
C15   C     C_R   0.380958 0.872622 0.560986 -0.203791
C16   C     C_R   0.576629 0.128287 0.583112 -0.198909
C17   C     C_R   0.075581 0.371472 0.585534 -0.192913
C18   C     C_R   0.883380 0.628395 0.555583 -0.191351
C19   C     C_R   0.880960 0.372621 0.560980 -0.203791
C20   C     C_R   0.076629 0.628287 0.583114 -0.198911
C21   C     C_R   0.222346 0.769075 0.951552 0.107344
C22   C     C_R   0.780279 0.235307 0.046127 0.110851
C23   C     C_R   0.778575 0.767236 0.047746 0.111672
C24   C     C_R   0.220630 0.233217 0.953401 0.113506
C25   C     C_R   0.722345 0.269074 0.951553 0.107351
C26   C     C_R   0.280279 0.735308 0.046127 0.110845
C27   C     C_R   0.278574 0.267238 0.047747 0.111672
C28   C     C_R   0.720631 0.733215 0.953400 0.113506
C29   C     C_R   0.279036 0.772698 0.909183 -0.167294
C30   C     C_R   0.723622 0.231640 0.088365 -0.174194
C31   C     C_R   0.722182 0.775101 0.088451 -0.172865
C32   C     C_R   0.276860 0.224551 0.913249 -0.179775
C33   C     C_R   0.779036 0.272697 0.909183 -0.167303
C34   C     C_R   0.223623 0.731641 0.088365 -0.174194
C35   C     C_R   0.222181 0.275103 0.088452 -0.172864
C36   C     C_R   0.776861 0.724549 0.913248 -0.179777
C37   C     C_R   0.307727 0.755899 0.956004 -0.173833
C38   C     C_R   0.694964 0.248406 0.041587 -0.174981
C39   C     C_R   0.693461 0.758316 0.041624 -0.176927
C40   C     C_R   0.305683 0.241941 0.959631 -0.180164
C41   C     C_R   0.807726 0.255898 0.956005 -0.173844
C42   C     C_R   0.194964 0.748407 0.041586 -0.174980
C43   C     C_R   0.193459 0.258317 0.041625 -0.176927
C44   C     C_R   0.805684 0.741939 0.959630 -0.180162
C45   C     C_R   0.145519 0.830758 0.942872 -0.199893
C46   C     C_R   0.856349 0.172218 0.055557 -0.204546
C47   C     C_R   0.855390 0.829012 0.056210 -0.198795
C48   C     C_R   0.144085 0.171552 0.944258 -0.201482
C49   C     C_R   0.645519 0.330757 0.942872 -0.199893
C50   C     C_R   0.356349 0.672219 0.055557 -0.204551
C51   C     C_R   0.355389 0.329013 0.056210 -0.198795
C52   C     C_R   0.644086 0.671551 0.944257 -0.201481
C53   C     C_R   0.118167 0.852243 0.894829 -0.061647
C54   C     C_R   0.882625 0.148891 0.104573 -0.059529
C55   C     C_R   0.882241 0.851537 0.104729 -0.060655
C56   C     C_R   0.117605 0.148601 0.895376 -0.059042
C57   C     C_R   0.618167 0.352243 0.894829 -0.061647
C58   C     C_R   0.382625 0.648891 0.104572 -0.059532
C59   C     C_R   0.382241 0.351537 0.104730 -0.060656
C60   C     C_R   0.617605 0.648601 0.895376 -0.059048
C61   C     C_R   0.136468 0.829608 0.806919 -0.222994
C62   C     C_R   0.863799 0.170619 0.192964 -0.226130
C63   C     C_R   0.863641 0.829485 0.192928 -0.224781
C64   C     C_R   0.136492 0.170281 0.806999 -0.229611
C65   C     C_R   0.636468 0.329608 0.806919 -0.222996
C66   C     C_R   0.363799 0.670619 0.192964 -0.226128
C67   C     C_R   0.363641 0.329485 0.192928 -0.224781
C68   C     C_R   0.636491 0.670283 0.806999 -0.229609
C69   C     C_R   0.182741 0.787879 0.765546 -0.058641
C70   C     C_R   0.817991 0.213248 0.233926 -0.066270
C71   C     C_R   0.817412 0.787587 0.234275 -0.066399
C72   C     C_R   0.182624 0.212359 0.765811 -0.054242
C73   C     C_R   0.682741 0.287879 0.765546 -0.058640
C74   C     C_R   0.317991 0.713248 0.233926 -0.066270
C75   C     C_R   0.317411 0.287587 0.234275 -0.066399
C76   C     C_R   0.682624 0.712359 0.765811 -0.054242
C77   C     C_R   0.210043 0.766440 0.813702 -0.199607
C78   C     C_R   0.791773 0.236535 0.184789 -0.201570
C79   C     C_R   0.790359 0.765611 0.185861 -0.199140
C80   C     C_R   0.209468 0.234567 0.814528 -0.207353
C81   C     C_R   0.710043 0.266439 0.813702 -0.199608
C82   C     C_R   0.291773 0.736535 0.184789 -0.201570
C83   C     C_R   0.290358 0.265612 0.185861 -0.199140
C84   C     C_R   0.709469 0.734565 0.814528 -0.207357
C85   C     C_R   0.196332 0.631750 0.528503 0.808713
C86   C     C_R   0.799013 0.368839 0.488380 0.816053
C87   C     C_R   0.799240 0.631163 0.487691 0.809855
C88   C     C_R   0.196240 0.368152 0.528791 0.800393
C89   C     C_R   0.696332 0.131750 0.528503 0.808713
C90   C     C_R   0.299013 0.868839 0.488381 0.816054
C91   C     C_R   0.299240 0.131163 0.487691 0.809855
C92   C     C_R   0.696241 0.868152 0.528791 0.800394
C93   C     C_R   0.191786 0.788040 0.902469 0.069743
C94   C     C_R   0.810516 0.215728 0.095553 0.073655
C95   C     C_R   0.809055 0.786431 0.096773 0.069885
C96   C     C_R   0.190406 0.214101 0.903908 0.071514
C97   C     C_R   0.691786 0.288039 0.902470 0.069742
C98   C     C_R   0.310516 0.715728 0.095553 0.073656
C99   C     C_R   0.309054 0.286433 0.096773 0.069885
C100  C     C_R   0.690407 0.714099 0.903907 0.071513
C101  C     C_R   0.926563 0.903021 0.066502 0.807104
C102  C     C_R   0.073383 0.097025 0.933529 0.803222
C103  C     C_R   0.073583 0.903253 0.933323 0.807007
C104  C     C_R   0.926633 0.097032 0.066496 0.802659
C105  C     C_R   0.426563 0.403021 0.066502 0.807104
C106  C     C_R   0.573382 0.597025 0.933529 0.803218
C107  C     C_R   0.573583 0.403253 0.933323 0.807008
C108  C     C_R   0.426633 0.597032 0.066496 0.802655
C109  C     C_R   0.027446 0.629351 0.579538 -0.074110
C110  C     C_R   0.927875 0.371551 0.571969 -0.077145
C111  C     C_R   0.930404 0.629386 0.565899 -0.080356
C112  C     C_R   0.025075 0.371114 0.585891 -0.073869
C113  C     C_R   0.527446 0.129351 0.579535 -0.074103
C114  C     C_R   0.427871 0.871552 0.571978 -0.077160
C115  C     C_R   0.430405 0.129386 0.565895 -0.080348
C116  C     C_R   0.525073 0.871115 0.585900 -0.073901
C117  C     C_R   0.000311 0.694117 0.585313 0.334442
C118  C     C_R   0.947347 0.307398 0.590461 0.326485
C119  C     C_R   0.951035 0.693918 0.581398 0.332541
C120  C     C_R   0.994836 0.307645 0.600340 0.337269
C121  C     C_R   0.500313 0.194117 0.585307 0.334431
C122  C     C_R   0.447341 0.807400 0.590481 0.326525
C123  C     C_R   0.451037 0.193919 0.581392 0.332539
C124  C     C_R   0.494829 0.807647 0.600359 0.337267
C125  C     C_R   0.956912 0.564927 0.561724 -0.035558
C126  C     C_R   0.004148 0.435392 0.572106 -0.039196
C127  C     C_R   0.005293 0.564841 0.569132 -0.035500
C128  C     C_R   0.955654 0.435559 0.564848 -0.033195
C129  C     C_R   0.456912 0.064927 0.561723 -0.035562
C130  C     C_R   0.504147 0.935393 0.572111 -0.039182
C131  C     C_R   0.505294 0.064841 0.569131 -0.035504
C132  C     C_R   0.455652 0.935559 0.564853 -0.033196
C133  C     C_R   0.433746 0.000218 0.554044 0.045797
C134  C     C_R   0.530672 0.999981 0.568997 0.044513
C135  C     C_R   0.933747 0.500218 0.554043 0.045797
C136  C     C_R   0.030672 0.499981 0.568996 0.044512
C137  C     C_R   0.364262 0.934866 0.532448 0.029162
C138  C     C_R   0.607837 0.065334 0.565338 0.025992
C139  C     C_R   0.607475 0.934235 0.566007 0.026156
C140  C     C_R   0.365205 0.065644 0.530262 0.028966
C141  C     C_R   0.864262 0.434866 0.532445 0.029157
C142  C     C_R   0.107837 0.565334 0.565339 0.025997
C143  C     C_R   0.107476 0.434235 0.566006 0.026137
C144  C     C_R   0.865205 0.565644 0.530262 0.028970
C145  C     C_R   0.323425 0.935034 0.502904 -0.110854
C146  C     C_R   0.663090 0.065337 0.547740 -0.115514
C147  C     C_R   0.662918 0.934354 0.548009 -0.115702
C148  C     C_R   0.323848 0.065143 0.501841 -0.110146
C149  C     C_R   0.823425 0.435034 0.502903 -0.110853
C150  C     C_R   0.163090 0.565338 0.547740 -0.115515
C151  C     C_R   0.162919 0.434354 0.548009 -0.115701
C152  C     C_R   0.823848 0.565143 0.501841 -0.110146
C153  C     C_R   0.305000 0.000019 0.487120 -0.275026
C154  C     C_R   0.689173 0.999860 0.539626 -0.262438
C155  C     C_R   0.805000 0.500019 0.487120 -0.275026
C156  C     C_R   0.189174 0.499860 0.539626 -0.262435
Cu1   Cu    Cu3+1 0.209920 0.785290 0.495070 0.920985
Cu2   Cu    Cu3+1 0.790080 0.214710 0.504930 0.924203
Cu3   Cu    Cu3+1 0.790080 0.785290 0.504930 0.951745
Cu4   Cu    Cu3+1 0.209920 0.214710 0.495070 0.959561
Cu5   Cu    Cu3+1 0.709920 0.285290 0.495070 0.920984
Cu6   Cu    Cu3+1 0.290080 0.714710 0.504930 0.924198
Cu7   Cu    Cu3+1 0.290080 0.285290 0.504930 0.951746
Cu8   Cu    Cu3+1 0.709920 0.714710 0.495070 0.959551
Cu9   Cu    Cu3+1 0.495240 0.500000 0.924150 0.936334
Cu10  Cu    Cu3+1 0.504760 0.500000 0.075850 0.938944
Cu11  Cu    Cu3+1 0.995240 0.000000 0.924150 0.936334
Cu12  Cu    Cu3+1 0.004760 0.000000 0.075850 0.938943
H1    H     H_    0.274574 0.999927 0.464197 0.186245
H2    H     H_    0.731482 0.999887 0.523535 0.188705
H3    H     H_    0.774574 0.499927 0.464197 0.186245
H4    H     H_    0.231482 0.499887 0.523536 0.188704
H5    H     H_    0.588576 0.822557 0.602922 0.207575
H6    H     H_    0.360780 0.177034 0.571943 0.214110
H7    H     H_    0.357287 0.824632 0.578617 0.217803
H8    H     H_    0.589162 0.177009 0.601846 0.212378
H9    H     H_    0.088576 0.322557 0.602922 0.207590
H10   H     H_    0.860779 0.677034 0.571944 0.214105
H11   H     H_    0.857290 0.324631 0.578612 0.217809
H12   H     H_    0.089161 0.677009 0.601847 0.212376
H13   H     H_    0.151361 0.744258 0.075502 0.131318
H14   H     H_    0.851350 0.259794 0.922049 0.121344
H15   H     H_    0.849037 0.734498 0.927241 0.129322
H16   H     H_    0.150095 0.265584 0.073966 0.131116
H17   H     H_    0.651360 0.244257 0.075502 0.131317
H18   H     H_    0.351351 0.759795 0.922048 0.121345
H19   H     H_    0.349036 0.234500 0.927241 0.129322
H20   H     H_    0.650096 0.765582 0.073964 0.131116
H21   H     H_    0.301173 0.789643 0.840224 0.140985
H22   H     H_    0.701457 0.214493 0.157222 0.130123
H23   H     H_    0.700437 0.795367 0.156001 0.133587
H24   H     H_    0.298243 0.202695 0.846706 0.118903
H25   H     H_    0.801172 0.289642 0.840225 0.140974
H26   H     H_    0.201457 0.714493 0.157221 0.130124
H27   H     H_    0.200436 0.295369 0.156003 0.133587
H28   H     H_    0.798244 0.702693 0.846705 0.118899
H29   H     H_    0.132229 0.849624 0.010499 0.149425
H30   H     H_    0.870018 0.154029 0.987555 0.148016
H31   H     H_    0.868989 0.847040 0.988179 0.150736
H32   H     H_    0.130258 0.153756 0.012431 0.149688
H33   H     H_    0.632229 0.349623 0.010499 0.149425
H34   H     H_    0.370018 0.654030 0.987554 0.148022
H35   H     H_    0.368988 0.347041 0.988180 0.150734
H36   H     H_    0.630259 0.653754 0.012429 0.149689
H37   H     H_    0.115888 0.846907 0.769351 0.178774
H38   H     H_    0.883543 0.151843 0.231225 0.174417
H39   H     H_    0.883926 0.847419 0.230751 0.176596
H40   H     H_    0.116555 0.151819 0.768915 0.169827
H41   H     H_    0.615888 0.346907 0.769351 0.178775
H42   H     H_    0.383543 0.651842 0.231225 0.174417
H43   H     H_    0.383926 0.347419 0.230751 0.176596
H44   H     H_    0.616553 0.651824 0.768917 0.169833
H45   H     H_    0.245995 0.733803 0.781882 0.156962
H46   H     H_    0.756170 0.269830 0.216283 0.146703
H47   H     H_    0.754238 0.733210 0.217640 0.150180
H48   H     H_    0.245660 0.266838 0.782816 0.148950
H49   H     H_    0.745994 0.233802 0.781883 0.156959
H50   H     H_    0.256170 0.769831 0.216283 0.146704
H51   H     H_    0.254237 0.233211 0.217641 0.150181
H52   H     H_    0.745661 0.766836 0.782815 0.148949
O1    O     O_R   0.255040 0.869590 0.478480 -0.581618
O2    O     O_R   0.744960 0.130410 0.521520 -0.582353
O3    O     O_R   0.744960 0.869590 0.521520 -0.583203
O4    O     O_R   0.255040 0.130410 0.478480 -0.581601
O5    O     O_R   0.755040 0.369590 0.478480 -0.581619
O6    O     O_R   0.244960 0.630410 0.521520 -0.582353
O7    O     O_R   0.244960 0.369590 0.521520 -0.583203
O8    O     O_R   0.755040 0.630410 0.478480 -0.581603
O9    O     O_R   0.182050 0.796550 0.624440 -0.598267
O10   O     O_R   0.817950 0.203450 0.375560 -0.585806
O11   O     O_R   0.817950 0.796550 0.375560 -0.581369
O12   O     O_R   0.182050 0.203450 0.624440 -0.594683
O13   O     O_R   0.682050 0.296550 0.624440 -0.598267
O14   O     O_R   0.317950 0.703450 0.375560 -0.585804
O15   O     O_R   0.317950 0.296550 0.375560 -0.581369
O16   O     O_R   0.682050 0.703450 0.624440 -0.594677
O17   O     O_R   0.250530 0.763330 0.367210 -0.588782
O18   O     O_R   0.749470 0.236670 0.632790 -0.599978
O19   O     O_R   0.749470 0.763330 0.632790 -0.606706
O20   O     O_R   0.250530 0.236670 0.367210 -0.586350
O21   O     O_R   0.750530 0.263330 0.367210 -0.588782
O22   O     O_R   0.249470 0.736670 0.632790 -0.599984
O23   O     O_R   0.249470 0.263330 0.632790 -0.606710
O24   O     O_R   0.750530 0.736670 0.367210 -0.586351
O25   O     O_R   0.177260 0.690030 0.513710 -0.599614
O26   O     O_R   0.822740 0.309970 0.486290 -0.603890
O27   O     O_R   0.822740 0.690030 0.486290 -0.593820
O28   O     O_R   0.177260 0.309970 0.513710 -0.588667
O29   O     O_R   0.677260 0.190030 0.513710 -0.599614
O30   O     O_R   0.322740 0.809970 0.486290 -0.603890
O31   O     O_R   0.322740 0.190030 0.486290 -0.593820
O32   O     O_R   0.677260 0.809970 0.513710 -0.588669
O33   O     O_R   0.051640 0.926880 0.885090 -0.584579
O34   O     O_R   0.948360 0.073120 0.114910 -0.589002
O35   O     O_R   0.948360 0.926880 0.114910 -0.588284
O36   O     O_R   0.051640 0.073120 0.885090 -0.592461
O37   O     O_R   0.551640 0.426880 0.885090 -0.584579
O38   O     O_R   0.448360 0.573120 0.114910 -0.589001
O39   O     O_R   0.448360 0.426880 0.114910 -0.588283
O40   O     O_R   0.551640 0.573120 0.885090 -0.592463
O41   O     O_R   0.940620 0.926560 0.986760 -0.588039
O42   O     O_R   0.059380 0.073440 0.013240 -0.591446
O43   O     O_R   0.059380 0.926560 0.013240 -0.591553
O44   O     O_R   0.940620 0.073440 0.986760 -0.596158
O45   O     O_R   0.440620 0.426560 0.986760 -0.588039
O46   O     O_R   0.559380 0.573440 0.013240 -0.591445
O47   O     O_R   0.559380 0.426560 0.013240 -0.591552
O48   O     O_R   0.440620 0.573440 0.986760 -0.596156
O49   O     O_3   0.513151 0.744362 0.618701 -0.575293
C157  C     C_3   0.489018 0.735652 0.712340 0.065862
H53   H     H_    0.444211 0.732625 0.741618 0.168835
H54   H     H_    0.500151 0.780420 0.744203 0.126337
C158  C     C_3   0.508989 0.666503 0.733844 -0.755358
H55   H     H_    0.553665 0.667615 0.704718 0.244903
H56   H     H_    0.491294 0.659884 0.807393 0.208215
H57   H     H_    0.496840 0.620469 0.705640 0.244104
O50   O     O_3   0.425800 0.258178 0.584885 -0.575391
C159  C     C_3   0.390485 0.273799 0.675113 0.080161
H58   H     H_    0.413039 0.279942 0.714631 0.173560
H59   H     H_    0.359687 0.231052 0.705134 0.112803
C160  C     C_3   0.361206 0.343346 0.680350 -0.779002
H60   H     H_    0.337888 0.338587 0.642175 0.254832
H61   H     H_    0.332926 0.355683 0.751161 0.197534
H62   H     H_    0.390796 0.387592 0.652069 0.249049
O51   O     O_3   0.418811 0.744468 0.602977 -0.584536
C161  C     C_3   0.439271 0.707946 0.520613 0.083289
H63   H     H_    0.481759 0.690940 0.498469 0.173776
H64   H     H_    0.437437 0.741827 0.467791 0.136590
C162  C     C_3   0.405220 0.641700 0.531963 -0.763437
H65   H     H_    0.362588 0.657128 0.553556 0.254728
H66   H     H_    0.420735 0.612557 0.467514 0.187818
H67   H     H_    0.406997 0.605927 0.582991 0.243708
O52   O     O_3   0.520761 0.257941 0.598039 -0.580580
C163  C     C_3   0.553673 0.288670 0.513734 0.081847
H68   H     H_    0.529157 0.303766 0.479753 0.173267
H69   H     H_    0.586365 0.251433 0.470039 0.137850
C164  C     C_3   0.580014 0.355720 0.526591 -0.755192
H70   H     H_    0.605034 0.342168 0.559972 0.257597
H71   H     H_    0.606250 0.380283 0.460702 0.184628
H72   H     H_    0.548546 0.394769 0.568388 0.242470
O53   O     O_3   0.013164 0.244359 0.618666 -0.575302
C165  C     C_3   0.989010 0.235615 0.712301 0.065828
H73   H     H_    0.944209 0.232511 0.741533 0.168935
H74   H     H_    0.000082 0.280403 0.744218 0.126328
C166  C     C_3   0.009033 0.166502 0.733788 -0.755437
H75   H     H_    0.053705 0.167699 0.704721 0.244903
H76   H     H_    0.991311 0.159848 0.807335 0.208232
H77   H     H_    0.996957 0.120448 0.705511 0.244121
O54   O     O_3   0.925797 0.758178 0.584894 -0.575387
C167  C     C_3   0.890477 0.773791 0.675122 0.080165
H78   H     H_    0.913023 0.779918 0.714654 0.173537
H79   H     H_    0.859674 0.731047 0.705126 0.112805
C168  C     C_3   0.861205 0.843345 0.680363 -0.778978
H80   H     H_    0.837895 0.838602 0.642172 0.254825
H81   H     H_    0.832919 0.855675 0.751173 0.197531
H82   H     H_    0.890800 0.887589 0.652101 0.249048
O55   O     O_3   0.918822 0.244463 0.602941 -0.584572
C169  C     C_3   0.939285 0.207954 0.520568 0.083280
H83   H     H_    0.981775 0.190954 0.498419 0.173774
H84   H     H_    0.937448 0.241842 0.467755 0.136607
C170  C     C_3   0.905242 0.141704 0.531901 -0.763443
H85   H     H_    0.862608 0.157127 0.553499 0.254729
H86   H     H_    0.920758 0.112571 0.467445 0.187822
H87   H     H_    0.907021 0.105924 0.582920 0.243706
O56   O     O_3   0.020758 0.757941 0.598047 -0.580569
C171  C     C_3   0.053670 0.788671 0.513743 0.081852
H88   H     H_    0.029155 0.803766 0.479761 0.173266
H89   H     H_    0.086364 0.751436 0.470048 0.137848
C172  C     C_3   0.080009 0.855722 0.526602 -0.755193
H90   H     H_    0.105029 0.842171 0.559985 0.257595
H91   H     H_    0.106245 0.880286 0.460714 0.184628
H92   H     H_    0.048540 0.894770 0.568399 0.242470

loop_
_geom_bond_atom_site_label_1
_geom_bond_atom_site_label_2
_ccdc_geom_bond_type
C85   O25   A    
C172  H91   S    
C34   C42   A    
C16   C113  A    
C110  C118  A    
C80   H48   S    
C40   H19   S    
O53   C165  S    
C160  H62   S    
C13   H5    S    
C90   O30   A    
C27   C99   S    
C13   C139  A    
C24   C96   S    
C46   H30   S    
C88   O7    A    
C29   C37   A    
C8    O24   A    
C17   H9    S    
C158  H57   S    
C30   C38   A    
C109  C127  A    
C111  C125  A    
C102  O42   A    
C67   H43   S    
C171  H88   S    
Cu5   O21   S    
C169  C170  S    
C34   H26   S    
C143  C151  A    
C126  C136  A    
C19   C141  A    
C92   C147  S    
C82   C98   A    
C78   H46   S    
C130  C134  A    
Cu4   O28   S    
Cu7   O7    S    
C73   C81   A    
C165  H74   S    
C7    O12   A    
C50   H34   S    
C42   H13   S    
C167  H79   S    
C115  C123  A    
C77   H45   S    
C84   C100  A    
Cu4   Cu7   S    
C127  C136  A    
C128  C135  A    
C112  C120  A    
C27   C35   A    
C21   C29   A    
Cu3   O11   S    
C24   C32   A    
C5    C70   S    
C2    O13   A    
C146  C154  A    
Cu12  O34   S    
C171  C172  S    
Cu10  O46   S    
Cu2   O18   S    
C129  C133  A    
Cu4   O4    S    
C63   C71   A    
C157  H54   S    
C41   H14   S    
C36   C44   A    
C148  C153  A    
C156  H4    S    
C19   H11   S    
C120  O53   S    
C32   C40   A    
C137  C145  A    
C8    C71   S    
C48   C96   A    
C161  C162  S    
C16   C138  A    
C123  O50   S    
C87   O27   A    
C52   C100  A    
C117  C119  A    
C149  C155  A    
C161  H64   S    
C21   C93   S    
C78   C94   A    
C18   C144  A    
Cu9   O37   S    
C118  C120  A    
C121  C123  A    
C49   C97   A    
C21   C42   A    
C164  H70   S    
Cu5   O13   S    
C87   O8    A    
C125  C127  A    
C24   C43   A    
C4    O15   A    
C10   C138  A    
C91   O4    A    
Cu12  O42   S    
Cu1   Cu6   S    
C62   H38   S    
C110  C128  A    
C15   C137  A    
C9    C133  A    
C6    C69   S    
Cu11  O33   S    
C121  O52   S    
C69   C77   A    
C45   C93   A    
C71   C79   A    
Cu1   O9    S    
C62   C70   A    
C1    C74   S    
C101  O35   A    
C9    C140  A    
C168  H81   S    
C45   H29   S    
C66   C74   A    
C49   C57   A    
C111  C119  A    
C22   C94   S    
C108  O48   A    
C169  H84   S    
C52   C60   A    
C59   C67   A    
C53   C61   A    
C23   C95   S    
C166  H76   S    
C55   C63   A    
C56   C64   A    
Cu7   O23   S    
C66   H42   S    
C35   C43   A    
C45   C53   A    
O50   C159  S    
Cu1   O1    S    
C164  H71   S    
C47   H31   S    
Cu6   O6    S    
C92   O32   A    
C49   H33   S    
C50   C98   A    
Cu2   O2    S    
C90   O1    A    
C7    C72   S    
C1    O17   A    
Cu9   O48   S    
C36   H28   S    
O52   C163  S    
C25   C38   A    
C88   O28   A    
C83   H51   S    
C46   C94   A    
C27   C40   A    
C170  H87   S    
C81   H49   S    
C162  H65   S    
C116  C130  A    
C11   C141  A    
C44   H15   S    
C60   C68   A    
C2    C73   S    
C39   H20   S    
C25   C97   S    
C14   C140  A    
C170  H85   S    
C87   C152  S    
C88   C151  S    
C67   C75   A    
C122  C124  A    
C68   H44   S    
C60   C106  S    
C126  C128  A    
C22   C30   A    
C160  H61   S    
C104  O44   A    
C12   C143  A    
C107  O37   A    
C56   C102  S    
C72   C80   A    
Cu5   O29   S    
C125  C135  A    
C138  C146  A    
C158  H56   S    
C102  O36   A    
C30   H22   S    
Cu7   O15   S    
C117  O56   S    
C18   H10   S    
C12   C136  A    
C3    O19   A    
C86   O5    A    
C159  H58   S    
C6    O22   A    
C83   C99   A    
Cu1   O25   S    
C61   H37   S    
Cu8   O16   S    
C131  C134  A    
C76   C84   A    
C109  C117  A    
C91   O31   A    
C59   C105  S    
C89   O29   A    
C48   H32   S    
Cu10  O38   S    
C54   C104  S    
C122  O51   S    
C90   C145  S    
C163  H68   S    
C8    O11   A    
C22   C41   A    
C14   C115  A    
C31   H23   S    
C162  H67   S    
C32   H24   S    
Cu11  O41   S    
C85   C150  S    
C4    C75   S    
Cu2   Cu5   S    
C9    C137  A    
C159  C160  S    
Cu10  O47   S    
Cu6   O22   S    
C113  C131  A    
C112  C126  A    
C35   H27   S    
C16   H8    S    
C33   H25   S    
C63   H39   S    
O49   C157  S    
C157  C158  S    
C140  C148  A    
C74   C82   A    
C51   H35   S    
C106  O46   A    
C141  C149  A    
C50   C58   A    
C163  C164  S    
Cu11  Cu12  S    
C54   C62   A    
C28   C39   A    
C23   C44   A    
C52   H36   S    
C130  C132  A    
C79   C95   A    
O51   C161  S    
C11   C135  A    
C3    O16   A    
C37   H18   S    
C152  C155  A    
C1    O14   A    
C46   C54   A    
C4    O20   A    
C151  C156  A    
C18   C111  A    
Cu1   O17   S    
C103  O33   A    
C68   C76   A    
C10   C139  A    
Cu8   O24   S    
C167  H78   S    
Cu11  O36   S    
C116  C124  A    
Cu8   O32   S    
C92   O3    A    
C57   C65   A    
C26   C37   A    
C5    O10   A    
C17   C143  A    
C33   C41   A    
C142  C150  A    
Cu7   O31   S    
C14   H6    S    
C154  H2    S    
C75   C83   A    
C168  H80   S    
C53   C103  S    
C77   C93   A    
C12   C142  A    
C58   C108  S    
O56   C171  S    
C13   C116  A    
Cu6   O14   S    
C28   C36   A    
C144  C152  A    
C166  H75   S    
C119  O54   S    
C153  H1    S    
Cu3   O19   S    
C157  H53   S    
C105  O45   A    
C23   C31   A    
C167  C168  S    
Cu9   Cu10  S    
C101  O41   A    
C70   C78   A    
C172  H90   S    
C108  O38   A    
Cu2   O10   S    
C104  O34   A    
C20   H12   S    
O54   C167  S    
C64   H40   S    
C165  C166  S    
C139  C147  A    
C161  H63   S    
C43   H16   S    
C65   C73   A    
C147  C154  A    
C26   C34   A    
C132  C133  A    
C170  H86   S    
C80   C96   A    
C84   H52   S    
C11   C144  A    
C65   H41   S    
C145  C153  A    
C28   C100  S    
C79   H47   S    
C86   O26   A    
Cu9   O45   S    
C106  O40   A    
C91   C148  S    
C58   C66   A    
Cu5   O5    S    
C51   C99   A    
C89   C146  S    
C118  O55   S    
C124  O49   S    
C20   C142  A    
C86   C149  S    
C89   O2    A    
C2    O18   A    
C168  H82   S    
C164  H72   S    
C160  H60   S    
Cu12  O35   S    
C169  H83   S    
C82   H50   S    
C166  H77   S    
Cu4   O12   S    
C158  H55   S    
C15   C114  A    
C113  C121  A    
Cu8   O8    S    
C3    C76   S    
Cu3   O27   S    
C26   C98   S    
C57   C107  S    
C107  O47   A    
C172  H92   S    
C159  H59   S    
C51   C59   A    
C7    O23   A    
C17   C112  A    
C47   C55   A    
C115  C129  A    
C19   C110  A    
C61   C69   A    
C48   C56   A    
C165  H73   S    
C47   C95   A    
Cu4   O20   S    
Cu3   Cu8   S    
C114  C132  A    
C10   C134  A    
C171  H89   S    
C38   H17   S    
C55   C101  S    
Cu9   O40   S    
C15   H7    S    
Cu10  O39   S    
Cu6   O30   S    
C163  H69   S    
C81   C97   A    
Cu3   O3    S    
C162  H66   S    
C31   C39   A    
C29   H21   S    
Cu11  O44   S    
C64   C72   A    
O55   C169  S    
Cu12  O43   S    
C20   C109  A    
C114  C122  A    
C155  H3    S    
C105  O39   A    
C6    O9    A    
C25   C33   A    
C103  O43   A    
C150  C156  A    
C85   O6    A    
Cu2   O26   S    
C5    O21   A    
C129  C131  A    
