data_mof_unit_26865.cif
_audit_creation_date              2012-12-10T17:57:51-0500
_audit_creation_method            fapswitch 2.2
_symmetry_space_group_name_H-M    P1
_symmetry_Int_Tables_number       1
_space_group_crystal_system       triclinic
_cell_length_a                    10.823098
_cell_length_b                    9.521264
_cell_length_c                    15.013225
_cell_angle_alpha                 89.85254
_cell_angle_beta                  90.072814
_cell_angle_gamma                 89.89505
_cell_volume                      1547.0974531

loop_
_atom_site_label
_atom_site_type_symbol
_atom_type_description
_atom_site_fract_x
_atom_site_fract_y
_atom_site_fract_z
_atom_type_partial_charge
C1    C     C_R   0.262078 0.500072 0.499649 0.784557
C2    C     C_R   0.737922 0.499924 0.499835 0.786651
C3    C     C_R   0.336749 0.321112 0.046502 0.449514
C4    C     C_R   0.651736 0.690618 0.953399 0.442325
C5    C     C_R   0.064102 0.372475 0.496269 -0.190950
C6    C     C_R   0.935898 0.627542 0.501713 -0.186913
C7    C     C_R   0.936334 0.372385 0.496427 -0.183614
C8    C     C_R   0.063658 0.627631 0.501567 -0.183139
C9    C     C_R   0.871763 0.499909 0.499333 -0.018039
C10   C     C_R   0.128235 0.500092 0.499097 -0.018363
C11   C     C_R   0.423261 0.074795 0.444630 -0.018141
C12   C     C_R   0.576631 0.925205 0.555460 -0.021482
C13   C     C_R   0.576656 0.074018 0.555445 -0.030412
C14   C     C_R   0.423264 0.925979 0.444633 -0.021314
C15   C     C_R   0.500033 0.500202 0.328778 0.805223
C16   C     C_R   0.499868 0.499870 0.671202 0.809418
C17   C     C_R   0.575351 0.593860 0.813416 -0.225821
C18   C     C_R   0.422526 0.407557 0.186505 -0.228683
C19   C     C_R   0.499245 0.500133 0.767692 -0.075470
C20   C     C_R   0.499026 0.500952 0.232247 -0.080584
C21   C     C_R   0.421416 0.408590 0.813809 -0.214896
C22   C     C_R   0.573434 0.596150 0.186081 -0.204509
C23   C     C_R   0.418512 0.410699 0.906597 0.071040
C24   C     C_R   0.573521 0.597102 0.093294 0.076280
C25   C     C_R   0.495697 0.504663 0.953255 -0.005821
C26   C     C_R   0.495244 0.504304 0.046638 -0.009980
C27   C     C_R   0.574868 0.597123 0.906447 0.038252
C28   C     C_R   0.417757 0.410022 0.093464 0.032328
C29   C     C_R   0.340235 0.319656 0.953187 -0.326793
C30   C     C_R   0.651638 0.688322 0.046715 -0.313137
Cu1   Cu    Cu3+1 0.500000 0.640660 0.500000 0.941015
Cu2   Cu    Cu3+1 0.500000 0.359340 0.500000 0.939783
H1    H     H_    0.635706 0.662716 0.775898 0.172869
H2    H     H_    0.365139 0.335374 0.223974 0.175280
H3    H     H_    0.362366 0.336965 0.777270 0.143789
H4    H     H_    0.632898 0.667396 0.222581 0.142023
H5    H     H_    0.282038 0.246512 0.917268 0.156364
H6    H     H_    0.713977 0.756967 0.082617 0.152263
H7    H     H_    0.112354 0.272767 0.494032 0.148270
H8    H     H_    0.887656 0.727259 0.503929 0.148621
H9    H     H_    0.888428 0.272649 0.494333 0.149695
H10   H     H_    0.111555 0.727373 0.503659 0.149440
H11   H     H_    0.361779 0.131177 0.400260 0.118786
H12   H     H_    0.638056 0.868816 0.599854 0.112932
H13   H     H_    0.638145 0.129755 0.599815 0.124069
H14   H     H_    0.361775 0.870213 0.400281 0.122538
N1    N     N_R   0.500000 0.852070 0.500000 -0.158364
N2    N     N_R   0.500000 0.147930 0.500000 -0.158595
O1    O     O_R   0.319640 0.618740 0.499990 -0.587497
O2    O     O_R   0.680360 0.381260 0.500010 -0.587077
O3    O     O_R   0.680360 0.618740 0.500010 -0.591596
O4    O     O_R   0.319640 0.381260 0.499990 -0.592449
O5    O     O_R   0.499970 0.618800 0.370260 -0.581790
O6    O     O_R   0.500030 0.381200 0.629740 -0.584892
O7    O     O_R   0.500030 0.618800 0.629740 -0.583016
O8    O     O_R   0.499970 0.381200 0.370260 -0.580379
O9    O     O_3   0.261600 0.227623 0.092047 -0.619398
C31   C     C_3   0.136006 0.268083 0.083728 0.047242
H15   H     H_    0.079043 0.171966 0.091878 0.170115
H16   H     H_    0.112311 0.312005 0.016898 0.133015
C32   C     C_3   0.100409 0.372502 0.157032 -0.371579
H17   H     H_    0.122729 0.326534 0.223279 0.221987
H18   H     H_    0.154240 0.470927 0.148783 0.216439
C33   C     C_3   0.962859 0.408088 0.153703 -0.887765
H19   H     H_    0.938739 0.456793 0.088625 0.261299
H20   H     H_    0.940205 0.483582 0.207562 0.256969
H21   H     H_    0.906627 0.311794 0.163445 0.253476
O10   O     O_3   0.736409 0.773229 0.908216 -0.618392
C34   C     C_3   0.702625 0.916738 0.913320 0.053076
H22   H     H_    0.789216 0.979023 0.916575 0.168874
H23   H     H_    0.648361 0.944384 0.974020 0.132066
C35   C     C_3   0.631088 0.959948 0.829529 -0.377464
H24   H     H_    0.685409 0.931589 0.769400 0.216338
H25   H     H_    0.541649 0.902931 0.827345 0.220526
C36   C     C_3   0.605533 0.117388 0.828142 -0.891564
H26   H     H_    0.551916 0.147886 0.888036 0.269032
H27   H     H_    0.551114 0.144529 0.767762 0.261094
H28   H     H_    0.693533 0.177185 0.826690 0.255003

loop_
_geom_bond_atom_site_label_1
_geom_bond_atom_site_label_2
_ccdc_geom_bond_type
C32   C33   S    
C6    C9    A    
C14   H14   S    
C23   C29   A    
C3    C28   A    
C19   C21   A    
C8    H10   S    
C35   C36   S    
C11   C14   A    
C31   H16   S    
C30   H6    S    
C34   H23   S    
C32   H18   S    
Cu2   O4    S    
C2    O2    A    
O10   C34   S    
C11   H11   S    
C18   C20   A    
C31   C32   S    
C7    H9    S    
Cu1   N1    S    
Cu2   N2    S    
C11   N2    A    
C34   H22   S    
C17   H1    S    
Cu1   O1    S    
C12   N1    A    
Cu2   O6    S    
C36   H28   S    
C24   C30   A    
C15   C20   S    
C17   C27   A    
C33   H21   S    
C18   C28   A    
C35   H25   S    
C5    C7    A    
C6    C8    A    
C25   C26   A    
C33   H20   S    
C34   C35   S    
C36   H26   S    
C36   H27   S    
Cu1   Cu2   S    
Cu1   O5    S    
C18   H2    S    
Cu2   O2    S    
C3    O9    S    
C20   C22   A    
C21   C23   A    
C22   C24   A    
C15   O5    A    
C4    C27   A    
C4    O10   S    
C7    C9    A    
C1    C10   S    
C24   C26   A    
Cu1   O3    S    
C35   H24   S    
C13   N2    A    
C14   N1    A    
C21   H3    S    
C25   C27   A    
C22   H4    S    
C26   C28   A    
C15   O8    A    
C5    H7    S    
C31   H15   S    
C16   O7    A    
C5    C10   A    
C12   H12   S    
C33   H19   S    
C13   H13   S    
C3    C29   A    
O9    C31   S    
C16   C19   S    
C17   C19   A    
C6    H8    S    
C23   C25   A    
C32   H17   S    
C1    O4    A    
C16   O6    A    
C2    O3    A    
C12   C13   A    
C8    C10   A    
C29   H5    S    
Cu1   O7    S    
C2    C9    S    
C1    O1    A    
Cu2   O8    S    
C4    C30   A    
