data_mof_unit_53370.cif
_audit_creation_date              2013-03-05T15:51:39-0500
_audit_creation_method            fapswitch 2.2
_symmetry_space_group_name_H-M    P1
_symmetry_Int_Tables_number       1
_space_group_crystal_system       triclinic
_cell_length_a                    30.130373
_cell_length_b                    22.578988
_cell_length_c                    18.110607
_cell_angle_alpha                 90.214926
_cell_angle_beta                  123.421989
_cell_angle_gamma                 90.24248
_cell_volume                      10283.0976338

loop_
_atom_site_label
_atom_site_type_symbol
_atom_site_description
_atom_site_fract_x
_atom_site_fract_y
_atom_site_fract_z
_atom_type_partial_charge
C1    C     C_R   0.542609 0.583283 0.739634 -0.153458
C2    C     C_R   0.466704 0.392320 0.291984 -0.107460
C3    C     C_R   0.456669 0.582318 0.259134 -0.111432
C4    C     C_R   0.539369 0.406654 0.729742 -0.134380
C5    C     C_R   0.047695 0.077313 0.746760 -0.140829
C6    C     C_R   0.967178 0.893935 0.290294 -0.089463
C7    C     C_R   0.957007 0.082766 0.259627 -0.075271
C8    C     C_R   0.036522 0.902401 0.723078 -0.120179
H1    H     H_    0.515828 0.580987 0.761717 0.121114
H2    H     H_    0.498901 0.379178 0.285906 0.118605
H3    H     H_    0.482381 0.579571 0.234960 0.115084
H4    H     H_    0.512486 0.403386 0.751346 0.119154
H5    H     H_    0.022997 0.071185 0.772359 0.119000
H6    H     H_    0.997861 0.882586 0.279332 0.123721
H7    H     H_    0.983095 0.080612 0.236144 0.128952
H8    H     H_    0.007164 0.895840 0.738975 0.120151
N1    N     N_R   0.532910 0.558440 0.665240 -0.050222
N2    N     N_R   0.467090 0.441560 0.334760 -0.052742
N3    N     N_R   0.467090 0.558440 0.334760 -0.052988
N4    N     N_R   0.532910 0.441560 0.665240 -0.050718
N5    N     N_R   0.032910 0.058440 0.665240 -0.049841
N6    N     N_R   0.967090 0.941560 0.334760 -0.057258
N7    N     N_R   0.967090 0.058440 0.334760 -0.055833
N8    N     N_R   0.032910 0.941560 0.665240 -0.051771
C9    C     C_R   0.629220 0.606085 0.574941 -0.045084
C10   C     C_R   0.363345 0.402004 0.426659 0.021043
C11   C     C_R   0.371176 0.605788 0.425578 -0.007384
C12   C     C_R   0.643654 0.415849 0.574067 -0.003030
C13   C     C_R   0.145185 0.079547 0.572287 -0.126291
C14   C     C_R   0.855806 0.916686 0.426096 -0.052582
C15   C     C_R   0.871474 0.106066 0.425689 -0.020712
C16   C     C_R   0.143434 0.915291 0.573853 -0.030370
H9    H     H_    0.656816 0.617743 0.643483 0.130688
H10   H     H_    0.330326 0.395108 0.359391 0.147058
H11   H     H_    0.343881 0.617278 0.357075 0.121991
H12   H     H_    0.677820 0.418666 0.641526 0.123490
H13   H     H_    0.179555 0.073906 0.638828 0.130536
H14   H     H_    0.821242 0.920737 0.359305 0.119692
H15   H     H_    0.844304 0.117603 0.357175 0.123139
H16   H     H_    0.177710 0.918537 0.641136 0.124287
N9    N     N_R   0.597030 0.558910 0.545540 -0.062506
N10   N     N_R   0.402970 0.441090 0.454460 -0.066579
N11   N     N_R   0.402970 0.558910 0.454460 -0.058606
N12   N     N_R   0.597030 0.441090 0.545540 -0.059816
N13   N     N_R   0.097030 0.058910 0.545540 -0.054365
N14   N     N_R   0.902970 0.941090 0.454460 -0.060172
N15   N     N_R   0.902970 0.058910 0.454460 -0.061494
N16   N     N_R   0.097030 0.941090 0.545540 -0.060255
C17   C     C_R   0.579616 0.607193 0.426997 -0.107062
C18   C     C_R   0.415175 0.399064 0.574075 -0.102334
C19   C     C_R   0.420454 0.606954 0.573630 -0.091762
C20   C     C_R   0.595147 0.415596 0.427052 -0.124273
C21   C     C_R   0.094340 0.083684 0.425530 -0.040039
C22   C     C_R   0.905043 0.915148 0.573000 -0.110470
C23   C     C_R   0.921119 0.107427 0.573827 -0.111344
C24   C     C_R   0.094592 0.914457 0.426873 -0.105836
H17   H     H_    0.562249 0.619539 0.358882 0.124619
H18   H     H_    0.430410 0.388478 0.641929 0.127682
H19   H     H_    0.437450 0.619288 0.641844 0.119079
H20   H     H_    0.585156 0.417317 0.359887 0.118907
H21   H     H_    0.080044 0.086565 0.356466 0.154095
H22   H     H_    0.915575 0.916318 0.640498 0.113051
H23   H     H_    0.939074 0.119921 0.642350 0.125451
H24   H     H_    0.084205 0.915695 0.359516 0.138094
N17   N     N_R   0.566200 0.559270 0.454460 -0.055531
N18   N     N_R   0.433800 0.440730 0.545540 -0.052585
N19   N     N_R   0.433800 0.559270 0.545540 -0.051788
N20   N     N_R   0.566200 0.440730 0.454460 -0.050953
N21   N     N_R   0.066200 0.059270 0.454460 -0.057956
N22   N     N_R   0.933800 0.940730 0.545540 -0.049011
N23   N     N_R   0.933800 0.059270 0.545540 -0.054041
N24   N     N_R   0.066200 0.940730 0.454460 -0.055582
C25   C     C_R   0.382726 0.584068 0.259271 -0.100493
C26   C     C_R   0.613632 0.404185 0.729555 0.019968
C27   C     C_R   0.616932 0.585957 0.741112 -0.081844
C28   C     C_R   0.390228 0.395517 0.283847 -0.075843
C29   C     C_R   0.882782 0.083969 0.259207 -0.090870
C30   C     C_R   0.112003 0.901109 0.725904 0.000348
C31   C     C_R   0.118831 0.083180 0.739917 -0.052036
C32   C     C_R   0.892662 0.892264 0.290326 -0.045463
H25   H     H_    0.340798 0.582244 0.234101 0.099526
H26   H     H_    0.654512 0.398655 0.750155 0.149302
H27   H     H_    0.658128 0.588346 0.762969 0.171051
H28   H     H_    0.349325 0.390904 0.261613 0.162218
H29   H     H_    0.840827 0.081937 0.233828 0.101868
H30   H     H_    0.152791 0.894660 0.746591 0.157156
H31   H     H_    0.157580 0.086175 0.751475 0.177359
H32   H     H_    0.855134 0.879139 0.280124 0.118511
N25   N     N_R   0.421050 0.559750 0.334770 -0.054843
N26   N     N_R   0.578950 0.440250 0.665230 -0.063618
N27   N     N_R   0.578950 0.559750 0.665230 -0.064918
N28   N     N_R   0.421050 0.440250 0.334770 -0.064996
N29   N     N_R   0.921050 0.059750 0.334770 -0.054782
N30   N     N_R   0.078950 0.940250 0.665230 -0.063411
N31   N     N_R   0.078950 0.059750 0.665230 -0.061581
N32   N     N_R   0.921050 0.940250 0.334770 -0.059402
C33   C     C_R   0.594892 0.601839 0.788968 0.149247
C34   C     C_R   0.419363 0.360531 0.261911 0.129031
C35   C     C_R   0.404440 0.600053 0.211838 0.177780
C36   C     C_R   0.588542 0.380427 0.768640 0.131480
C37   C     C_R   0.102259 0.092187 0.797033 0.121561
C38   C     C_R   0.921134 0.862124 0.262377 0.147841
C39   C     C_R   0.904601 0.100026 0.211942 0.167992
C40   C     C_R   0.085240 0.875053 0.761034 0.124529
C41   C     C_R   0.619095 0.637691 0.502033 0.129661
C42   C     C_R   0.371955 0.373102 0.500242 0.137973
C43   C     C_R   0.381253 0.637129 0.499007 0.117432
C44   C     C_R   0.643723 0.398497 0.501058 0.139723
C45   C     C_R   0.145482 0.094244 0.498230 0.115882
C46   C     C_R   0.855921 0.898771 0.498803 0.155824
C47   C     C_R   0.881789 0.137744 0.499113 0.125991
C48   C     C_R   0.143176 0.896927 0.500740 0.145043
Ni1   Ni    Ni4+2 0.483090 0.500000 0.604440 0.250169
Ni2   Ni    Ni4+2 0.516910 0.500000 0.395560 0.229812
Ni3   Ni    Ni4+2 0.983090 0.000000 0.604440 0.233267
Ni4   Ni    Ni4+2 0.016910 0.000000 0.395560 0.253824
Ni5   Ni    Ni4+2 0.586780 0.500000 0.604440 0.262927
Ni6   Ni    Ni4+2 0.413220 0.500000 0.395560 0.256165
Ni7   Ni    Ni4+2 0.086780 0.000000 0.604440 0.251333
Ni8   Ni    Ni4+2 0.913220 0.000000 0.395560 0.249364
C49   C     C_R   0.283029 0.760998 0.426051 -0.222491
C50   C     C_R   0.774892 0.327839 0.575187 -0.226639
C51   C     C_R   0.716583 0.764440 0.576162 -0.229907
C52   C     C_R   0.271517 0.255535 0.449618 -0.273448
C53   C     C_R   0.783900 0.262757 0.424492 -0.228566
C54   C     C_R   0.277347 0.832037 0.578404 -0.218094
C55   C     C_R   0.241987 0.124991 0.429717 -0.216894
C56   C     C_R   0.723141 0.830317 0.423569 -0.228285
H33   H     H_    0.240981 0.768190 0.378067 0.189182
H34   H     H_    0.801795 0.295843 0.623738 0.185641
H35   H     H_    0.758569 0.772808 0.624113 0.186572
H36   H     H_    0.229202 0.250890 0.421164 0.198436
H37   H     H_    0.742025 0.270432 0.375793 0.191790
H38   H     H_    0.306269 0.803136 0.630339 0.190189
H39   H     H_    0.243137 0.124735 0.370908 0.184771
H40   H     H_    0.695178 0.798942 0.373872 0.189533
C57   C     C_R   0.303667 0.705626 0.428918 0.346054
C58   C     C_R   0.729296 0.342821 0.572422 0.332785
C59   C     C_R   0.696273 0.708484 0.573174 0.342195
C60   C     C_R   0.292328 0.311311 0.453763 0.382030
C61   C     C_R   0.804443 0.207149 0.427612 0.345268
C62   C     C_R   0.231606 0.846011 0.575906 0.323908
C63   C     C_R   0.198037 0.100956 0.425853 0.340894
C64   C     C_R   0.768693 0.844949 0.425661 0.367374
C65   C     C_R   0.357063 0.693776 0.496261 -0.078057
C66   C     C_R   0.691354 0.379862 0.504165 -0.087756
C67   C     C_R   0.642995 0.695149 0.505566 -0.088604
C68   C     C_R   0.347755 0.317325 0.498229 -0.066834
C69   C     C_R   0.857603 0.194729 0.495938 -0.078715
C70   C     C_R   0.190745 0.877909 0.503303 -0.097599
C71   C     C_R   0.193800 0.108403 0.499685 -0.091140
C72   C     C_R   0.808065 0.880816 0.495598 -0.094661
C73   C     C_R   0.388667 0.737905 0.558460 -0.275826
C74   C     C_R   0.700678 0.401981 0.441423 -0.270167
C75   C     C_R   0.611181 0.738507 0.443456 -0.282723
C76   C     C_R   0.380976 0.267742 0.532563 -0.212369
C77   C     C_R   0.888928 0.238578 0.558925 -0.282226
C78   C     C_R   0.197012 0.894774 0.435017 -0.260881
C79   C     C_R   0.236683 0.133431 0.578079 -0.271676
C80   C     C_R   0.799918 0.902754 0.559901 -0.282509
H41   H     H_    0.430147 0.729203 0.607968 0.187844
H42   H     H_    0.672730 0.432458 0.391457 0.188258
H43   H     H_    0.569779 0.728797 0.393813 0.199273
H44   H     H_    0.423324 0.273074 0.562096 0.188378
H45   H     H_    0.930195 0.229589 0.609258 0.191218
H46   H     H_    0.165747 0.918107 0.378743 0.233105
H47   H     H_    0.234866 0.138820 0.635718 0.196912
H48   H     H_    0.828863 0.932618 0.610921 0.190903
C81   C     C_R   0.367109 0.792914 0.557774 0.358617
C82   C     C_R   0.745414 0.384533 0.441813 0.365538
C83   C     C_R   0.632487 0.793914 0.444010 0.360313
C84   C     C_R   0.359898 0.211433 0.526619 0.415789
C85   C     C_R   0.867283 0.293558 0.558324 0.362963
C86   C     C_R   0.242659 0.880119 0.436878 0.339664
C87   C     C_R   0.280539 0.156889 0.581801 0.361865
C88   C     C_R   0.755077 0.885876 0.559742 0.357399
C89   C     C_R   0.313001 0.803256 0.492506 -0.007723
C90   C     C_R   0.781558 0.344979 0.507708 -0.004917
C91   C     C_R   0.686525 0.805610 0.509257 -0.005903
C92   C     C_R   0.304920 0.206586 0.489067 -0.106627
C93   C     C_R   0.813431 0.304387 0.492052 -0.003479
C94   C     C_R   0.281647 0.845309 0.507151 0.004865
C95   C     C_R   0.280990 0.156210 0.504546 0.024646
C96   C     C_R   0.717812 0.846828 0.492869 -0.004487
C97   C     C_R   0.372543 0.619994 0.120913 -0.071282
C98   C     C_R   0.610350 0.337766 0.840941 -0.072578
C99   C     C_R   0.620447 0.631077 0.876344 -0.066535
C100  C     C_R   0.405346 0.299321 0.222273 -0.070784
C101  C     C_R   0.872404 0.119308 0.120756 -0.077339
C102  C     C_R   0.105674 0.830608 0.831049 -0.071508
C103  C     C_R   0.137029 0.103718 0.895386 -0.068961
C104  C     C_R   0.905539 0.804784 0.217518 -0.058720
C105  C     C_R   0.325611 0.592616 0.965281 0.361325
C106  C     C_R   0.630403 0.314144 0.986795 0.362812
C107  C     C_R   0.611574 0.706951 0.963151 0.346275
C108  C     C_R   0.421782 0.220358 0.147919 0.352249
C109  C     C_R   0.819540 0.086172 0.967229 0.348351
C110  C     C_R   0.122826 0.804163 0.974338 0.357648
C111  C     C_R   0.141478 0.133091 0.029521 0.361347
C112  C     C_R   0.922701 0.698937 0.225147 0.352706
C113  C     C_R   0.368459 0.585198 0.053245 -0.290866
C114  C     C_R   0.602902 0.347327 0.909690 -0.247755
C115  C     C_R   0.588904 0.668132 0.891326 -0.279643
C116  C     C_R   0.434033 0.275749 0.189236 -0.262272
C117  C     C_R   0.865043 0.081527 0.053333 -0.239945
C118  C     C_R   0.095793 0.837702 0.897525 -0.267038
C119  C     C_R   0.112361 0.116404 0.940362 -0.274686
C120  C     C_R   0.941097 0.757336 0.251924 -0.260656
C121  C     C_R   0.335674 0.664551 0.100874 0.254947
C122  C     C_R   0.640181 0.289442 0.843054 0.286001
C123  C     C_R   0.675329 0.626334 0.941211 0.302276
C124  C     C_R   0.364444 0.264138 0.217604 0.336409
C125  C     C_R   0.836405 0.164648 0.101763 0.251980
C126  C     C_R   0.137491 0.783970 0.834811 0.282096
C127  C     C_R   0.193791 0.103804 0.944584 0.316006
C128  C     C_R   0.851902 0.794464 0.152462 0.241745
C129  C     C_R   0.286704 0.661257 0.019102 -0.088329
C130  C     C_R   0.666621 0.253238 0.919008 -0.080251
C131  C     C_R   0.699547 0.666830 0.013558 -0.096309
C132  C     C_R   0.349792 0.208165 0.173056 -0.091225
C133  C     C_R   0.786050 0.160877 0.022540 -0.089371
C134  C     C_R   0.163650 0.747525 0.910512 -0.087086
C135  C     C_R   0.224422 0.123076 0.034756 -0.087646
C136  C     C_R   0.831924 0.736799 0.144611 -0.066776
C137  C     C_R   0.282824 0.629207 0.948181 -0.040554
C138  C     C_R   0.664710 0.268913 0.993760 -0.061401
C139  C     C_R   0.667385 0.710837 0.018578 -0.061790
C140  C     C_R   0.378859 0.187040 0.137529 -0.060098
C141  C     C_R   0.778999 0.126044 0.951485 -0.049630
C142  C     C_R   0.159276 0.761071 0.983371 -0.061326
C143  C     C_R   0.197376 0.138769 0.076142 -0.040881
C144  C     C_R   0.867076 0.688069 0.173560 -0.039252
C145  C     C_R   0.241343 0.688835 0.006768 0.116871
C146  C     C_R   0.700107 0.206112 0.927338 0.107506
C147  C     C_R   0.755526 0.670844 0.073793 0.111039
C148  C     C_R   0.303720 0.174930 0.153778 0.105066
C149  C     C_R   0.742544 0.191429 0.012534 0.120947
C150  C     C_R   0.199361 0.702618 0.920790 0.111141
C151  C     C_R   0.280643 0.134177 0.082557 0.089508
C152  C     C_R   0.777700 0.726736 0.109487 0.111267
C153  C     C_R   0.693365 0.173124 0.855377 -0.073552
C154  C     C_R   0.235399 0.699691 0.077411 -0.111726
C155  C     C_R   0.279435 0.179262 0.201279 -0.081933
C156  C     C_R   0.790104 0.622103 0.100999 -0.067827
C157  C     C_R   0.194839 0.670522 0.849923 -0.082435
C158  C     C_R   0.739040 0.204673 0.085091 -0.106961
C159  C     C_R   0.745877 0.770158 0.113722 -0.062888
C160  C     C_R   0.315305 0.106880 0.064017 -0.065225
C161  C     C_R   0.731761 0.132618 0.867665 -0.049687
C162  C     C_R   0.192858 0.732502 0.064326 -0.032754
C163  C     C_R   0.227256 0.160088 0.163708 -0.066657
C164  C     C_R   0.845225 0.630496 0.153333 -0.061252
C165  C     C_R   0.235309 0.632681 0.864047 -0.060013
C166  C     C_R   0.698513 0.240168 0.074436 -0.023308
C167  C     C_R   0.691750 0.760843 0.072710 -0.013744
C168  C     C_R   0.364258 0.132480 0.092446 -0.052799
H49   H     H_    0.724772 0.108492 0.810494 0.193223
H50   H     H_    0.189143 0.738546 0.119906 0.202386
H51   H     H_    0.209926 0.165481 0.202063 0.181832
H52   H     H_    0.870072 0.591672 0.176867 0.192595
H53   H     H_    0.228981 0.606881 0.808605 0.190800
H54   H     H_    0.696587 0.247965 0.131504 0.201824
H55   H     H_    0.668841 0.796073 0.076448 0.192615
H56   H     H_    0.388937 0.110744 0.074432 0.190952
H57   H     H_    0.579095 0.384206 0.906771 0.180435
H58   H     H_    0.398058 0.551708 0.069225 0.188035
H59   H     H_    0.465286 0.301476 0.192050 0.183590
H60   H     H_    0.546285 0.669426 0.844087 0.184828
H61   H     H_    0.070566 0.873276 0.893605 0.181421
H62   H     H_    0.892877 0.045948 0.068940 0.193528
H63   H     H_    0.982982 0.765798 0.300083 0.191770
H64   H     H_    0.069474 0.116281 0.905195 0.181769
H65   H     H_    0.657525 0.176285 0.789972 0.185576
H66   H     H_    0.263101 0.681911 0.142623 0.148596
H67   H     H_    0.300371 0.196172 0.268080 0.183445
H68   H     H_    0.774907 0.577188 0.086189 0.180601
H69   H     H_    0.159109 0.672240 0.784118 0.179224
H70   H     H_    0.767112 0.186674 0.149992 0.149003
H71   H     H_    0.762903 0.811232 0.149845 0.151534
H72   H     H_    0.305547 0.065372 0.028646 0.197128
N33   N     N_R   0.648689 0.282316 0.772995 0.214366
O1    O     O_R   0.696096 0.289615 0.789035 -0.319800
O2    O     O_R   0.608601 0.272855 0.692199 -0.349396
N34   N     N_R   0.349366 0.715560 0.158733 0.245792
O3    O     O_R   0.330043 0.767194 0.124574 -0.310233
O4    O     O_R   0.387141 0.713495 0.242340 -0.367745
N35   N     N_R   0.337341 0.285958 0.256355 0.194740
O5    O     O_R   0.288850 0.305362 0.206616 -0.398960
O6    O     O_R   0.360743 0.284545 0.341781 -0.461606
N36   N     N_R   0.706517 0.585256 0.927825 0.208994
O7    O     O_R   0.742505 0.604496 0.914904 -0.358455
O8    O     O_R   0.695670 0.528853 0.920556 -0.392466
N37   N     N_R   0.148529 0.779177 0.767452 0.216721
O9    O     O_R   0.196667 0.788023 0.787474 -0.312563
O10   O     O_R   0.110003 0.770308 0.685317 -0.350720
N38   N     N_R   0.852142 0.216635 0.158320 0.245052
O11   O     O_R   0.834127 0.268344 0.123018 -0.312669
O12   O     O_R   0.889924 0.214679 0.241934 -0.365238
N39   N     N_R   0.819628 0.839625 0.088162 0.242295
O13   O     O_R   0.780161 0.823844 0.009553 -0.322159
O14   O     O_R   0.835502 0.894543 0.099652 -0.371313
N40   N     N_R   0.220137 0.087733 0.901902 0.195909
O15   O     O_R   0.240727 0.128471 0.878556 -0.382507
O16   O     O_R   0.223841 0.032139 0.886692 -0.418903
N41   N     N_R   0.324886 0.560380 0.896036 0.242644
O17   O     O_R   0.344722 0.507373 0.910796 -0.342877
O18   O     O_R   0.313397 0.587445 0.824310 -0.334192
N42   N     N_R   0.625997 0.330255 0.059273 0.241116
O19   O     O_R   0.579248 0.339270 0.044937 -0.324506
O20   O     O_R   0.667876 0.348350 0.133665 -0.324513
N43   N     N_R   0.577624 0.744423 0.975544 0.244147
O21   O     O_R   0.532869 0.763180 0.907529 -0.302102
O22   O     O_R   0.587273 0.752348 0.054344 -0.333807
N44   N     N_R   0.451079 0.200879 0.111135 0.244747
O23   O     O_R   0.502503 0.207565 0.156486 -0.314721
O24   O     O_R   0.426082 0.187768 0.027340 -0.309028
N45   N     N_R   0.813264 0.046263 0.900080 0.251216
O25   O     O_R   0.854072 0.033820 0.896216 -0.308665
O26   O     O_R   0.770517 0.013757 0.855030 -0.300333
N46   N     N_R   0.115880 0.818111 0.044771 0.240664
O27   O     O_R   0.068137 0.824722 0.027317 -0.328562
O28   O     O_R   0.156190 0.836835 0.120575 -0.319764
N47   N     N_R   0.112850 0.148709 0.069120 0.252812
O29   O     O_R   0.073448 0.115522 0.055020 -0.308321
O30   O     O_R   0.118808 0.201174 0.103539 -0.324136
N48   N     N_R   0.960571 0.651742 0.254850 0.246496
O31   O     O_R   0.004341 0.654306 0.333209 -0.314352
O32   O     O_R   0.956123 0.612042 0.198836 -0.317890
N49   N     N_R   0.268225 0.660474 0.368851 0.230242
O33   O     O_R   0.232189 0.673738 0.287172 -0.380991
O34   O     O_R   0.265978 0.609011 0.398823 -0.327406
N50   N     N_R   0.719868 0.315051 0.633854 0.239490
O35   O     O_R   0.759511 0.305147 0.714527 -0.307359
O36   O     O_R   0.674154 0.289938 0.605396 -0.312246
N51   N     N_R   0.732014 0.664250 0.633127 0.232574
O37   O     O_R   0.767957 0.678459 0.714832 -0.317391
O38   O     O_R   0.734702 0.612888 0.602991 -0.360561
N52   N     N_R   0.257141 0.361206 0.416780 0.243493
O39   O     O_R   0.271673 0.412984 0.455021 -0.337294
O40   O     O_R   0.208261 0.353621 0.350086 -0.304466
N53   N     N_R   0.768935 0.162250 0.367040 0.229848
O41   O     O_R   0.733383 0.175737 0.285227 -0.384740
O42   O     O_R   0.765915 0.110967 0.396647 -0.360378
N54   N     N_R   0.224547 0.820654 0.641312 0.238985
O43   O     O_R   0.264857 0.816718 0.722976 -0.302860
O44   O     O_R   0.181128 0.791370 0.616451 -0.300978
N55   N     N_R   0.157960 0.071784 0.345653 0.236090
O45   O     O_R   0.141079 0.019411 0.348597 -0.433431
O46   O     O_R   0.145039 0.092657 0.269426 -0.328210
N56   N     N_R   0.776262 0.818371 0.361114 0.223698
O47   O     O_R   0.735825 0.810845 0.280107 -0.396273
O48   O     O_R   0.821019 0.792829 0.385936 -0.394753
N57   N     N_R   0.899249 0.336703 0.626633 0.254205
O49   O     O_R   0.886196 0.392372 0.614995 -0.304235
O50   O     O_R   0.943607 0.321303 0.698589 -0.335031
N58   N     N_R   0.247650 0.897475 0.365174 0.255813
O51   O     O_R   0.293882 0.897784 0.375237 -0.306463
O52   O     O_R   0.206898 0.917950 0.292013 -0.287032
N59   N     N_R   0.320406 0.188327 0.660212 0.243813
O53   O     O_R   0.370564 0.180557 0.692074 -0.315794
O54   O     O_R   0.307138 0.218293 0.706675 -0.320476
N60   N     N_R   0.748991 0.906114 0.629266 0.256802
O55   O     O_R   0.702629 0.904933 0.618704 -0.294860
O56   O     O_R   0.789010 0.929644 0.701284 -0.298986
N61   N     N_R   0.399539 0.836670 0.624676 0.254289
O57   O     O_R   0.386571 0.892356 0.611834 -0.294641
O58   O     O_R   0.444248 0.821743 0.696355 -0.310294
N62   N     N_R   0.752637 0.405140 0.373816 0.256933
O59   O     O_R   0.799082 0.402915 0.384832 -0.307315
O60   O     O_R   0.713737 0.430297 0.303103 -0.314709
N63   N     N_R   0.599988 0.836593 0.376605 0.255786
O61   O     O_R   0.613012 0.892489 0.388627 -0.299273
O62   O     O_R   0.555225 0.820496 0.305215 -0.312775
N64   N     N_R   0.394296 0.160624 0.559752 0.266714
O63   O     O_R   0.375039 0.107313 0.534252 -0.316087
O64   O     O_R   0.445640 0.167560 0.610978 -0.312690

loop_
_geom_bond_atom_site_label_1
_geom_bond_atom_site_label_2
_geom_bond_distance
_ccdc_geom_bond_type
C108  C140  1.413006 A    
N21   Ni4   1.833498 S    
C110  C118  1.391788 A    
C104  C120  1.401128 A    
C100  C116  1.399838 A    
C21   N21   1.335987 A    
C31   H31   1.068393 S    
C9    C41   1.382371 A    
C2    C34   1.406781 A    
C121  N34   1.450996 S    
C82   C90   1.411500 A    
C13   C45   1.387650 A    
N34   O3    1.302041 A    
C45   C71   1.475150 S    
C46   C72   1.466147 S    
C107  C115  1.390850 A    
C28   C34   1.392890 A    
C89   C94   1.464976 S    
C105  C113  1.403859 A    
C98   C114  1.397642 A    
C33   C99   1.475932 S    
C61   N53   1.437134 S    
C111  C143  1.413072 A    
C126  C134  1.414768 A    
C140  C168  1.403569 A    
C102  C118  1.399117 A    
C24   N24   1.343963 A    
N35   O6    1.300227 A    
C3    N3    1.341046 A    
N48   O31   1.301368 A    
C144  C164  1.407480 A    
N29   Ni8   1.839121 S    
C108  C116  1.394687 A    
C67   C75   1.403895 A    
C5    H5    1.080510 S    
C7    H7    1.081458 S    
C130  C146  1.419711 A    
C8    H8    1.080305 S    
C28   H28   1.069485 S    
C47   C69   1.467041 S    
C25   H25   1.081890 S    
N62   O59   1.301464 A    
N57   O50   1.301578 A    
C44   C66   1.468388 S    
C5    C37   1.410213 A    
N13   N21   1.376981 A    
N47   O29   1.301234 A    
N26   Ni5   1.839121 S    
C153  C161  1.396895 A    
C129  C145  1.406248 A    
N51   O38   1.301566 A    
C26   C36   1.396142 A    
C124  C132  1.427705 A    
C11   H11   1.078463 S    
N44   O23   1.301272 A    
C157  C165  1.396122 A    
C12   N12   1.332158 A    
C13   N13   1.332410 A    
C151  C160  1.404810 A    
C146  C149  1.399870 A    
C128  C136  1.405499 A    
C22   N22   1.343256 A    
C55   C63   1.394482 A    
C8    C40   1.381244 A    
N15   N23   1.376861 A    
N38   O11   1.301993 A    
C99   C123  1.410131 A    
C168  H56   1.081374 S    
C97   C121  1.394977 A    
C29   C39   1.384425 A    
C74   H42   1.082417 S    
C35   C97   1.450457 S    
C164  H52   1.080469 S    
C87   C95   1.406706 A    
C21   C45   1.387232 A    
C88   C96   1.410826 A    
C127  N40   1.426758 S    
C23   C47   1.396846 A    
N6    N32   1.387492 A    
C37   C103  1.508864 S    
C139  C167  1.402385 A    
C84   N64   1.442380 S    
N22   Ni3   1.833498 S    
C107  C139  1.407729 A    
C121  C129  1.402454 A    
C26   N26   1.336232 A    
C105  C137  1.418335 A    
C32   H32   1.080330 S    
C135  C151  1.435651 A    
N61   O57   1.301494 A    
C100  C124  1.425961 A    
C106  C138  1.411992 A    
C30   N30   1.337726 A    
C73   H41   1.083274 S    
C150  C157  1.410865 A    
C79   H47   1.081464 S    
C80   H48   1.082451 S    
N56   O47   1.301138 A    
N14   N22   1.376981 A    
C3    H3    1.081433 S    
N11   Ni6   1.832549 S    
C25   N25   1.332714 A    
N51   O37   1.301353 A    
C4    N4    1.334698 A    
C5    N5    1.352353 A    
C54   H38   1.084619 S    
C137  C165  1.405789 A    
N59   O53   1.300007 A    
C165  H53   1.080591 S    
C112  C144  1.418418 A    
C130  C138  1.429621 A    
C141  C161  1.405539 A    
C71   C79   1.404105 A    
C106  C114  1.391545 A    
N18   Ni1   1.833498 S    
C147  C152  1.402791 A    
C64   N56   1.438140 S    
N1    N27   1.387495 A    
C143  C163  1.405352 A    
C86   C94   1.409187 A    
C62   N54   1.434469 S    
C14   H14   1.081682 S    
C104  C128  1.396929 A    
C123  N36   1.434844 S    
C12   C44   1.378755 A    
C115  H60   1.082599 S    
N4    Ni1   1.847627 S    
N60   O55   1.301491 A    
C63   N55   1.433758 S    
C51   C59   1.389287 A    
C17   H17   1.079828 S    
C22   C46   1.390577 A    
C49   C57   1.387082 A    
N28   Ni6   1.834523 S    
N64   O63   1.301358 A    
C20   H20   1.081124 S    
C21   H21   1.077769 S    
C53   C61   1.389716 A    
N41   O18   1.301182 A    
C23   H23   1.081131 S    
C152  C159  1.405297 A    
C24   H24   1.080079 S    
C27   N27   1.343156 A    
C163  H51   1.081400 S    
N6    Ni4   1.832592 S    
C29   H29   1.081985 S    
C128  N39   1.453050 S    
C7    C39   1.377120 A    
N49   O34   1.301529 A    
C83   C91   1.411235 A    
C24   C48   1.393125 A    
C105  N41   1.437276 S    
N16   N24   1.376861 A    
C81   C89   1.411397 A    
C124  N35   1.426300 S    
N42   O20   1.301186 A    
N53   O42   1.301560 A    
N40   O16   1.302479 A    
C155  C163  1.391320 A    
C30   C40   1.401798 A    
C131  C147  1.419209 A    
N50   O35   1.301378 A    
C51   C91   1.399725 A    
C77   H45   1.083095 S    
C82   N62   1.441880 S    
C49   C89   1.400446 A    
N5    N31   1.387495 A    
C75   H43   1.083164 S    
C76   C84   1.395785 A    
C16   C48   1.381943 A    
N7    N29   1.387743 A    
C32   C38   1.391381 A    
N47   O30   1.301338 A    
N46   O28   1.301183 A    
N37   O9    1.301028 A    
C6    H6    1.078690 S    
C18   N18   1.336307 A    
C111  N47   1.436965 S    
N58   O52   1.301607 A    
N14   Ni8   1.836457 S    
C103  C119  1.401762 A    
C136  C152  1.405874 A    
C81   N61   1.441369 S    
C101  C125  1.394227 A    
C19   C43   1.393189 A    
N15   Ni8   1.832549 S    
N52   O40   1.301541 A    
N43   O22   1.301467 A    
C48   C70   1.474067 S    
C4    H4    1.078633 S    
C133  C141  1.417578 A    
C155  H67   1.077569 S    
C10   N10   1.335422 A    
C91   C96   1.464823 S    
C117  H62   1.083898 S    
C122  N33   1.434790 S    
C14   N14   1.331928 A    
C78   C86   1.398259 A    
C109  C141  1.418247 A    
N33   O2    1.301602 A    
C123  C131  1.420348 A    
C1    N1    1.332122 A    
C148  C151  1.411240 A    
N2    N28   1.387492 A    
N34   O4    1.301085 A    
C64   C72   1.412914 A    
N13   Ni7   1.836457 S    
C19   N19   1.343373 A    
C58   C66   1.411955 A    
C7    N7    1.340567 A    
C63   C71   1.420935 A    
C8    N8    1.331544 A    
C159  H71   1.083029 S    
C23   N23   1.343763 A    
C160  H72   1.077431 S    
N12   N20   1.376861 A    
C108  N44   1.437123 S    
C3    C35   1.376063 A    
C145  C154  1.406920 A    
N54   O43   1.301362 A    
C134  C142  1.428612 A    
C112  C120  1.404981 A    
C109  N45   1.436565 S    
C156  H68   1.081101 S    
C15   C47   1.382789 A    
C31   C37   1.388878 A    
N48   O32   1.301128 A    
N9    Ni5   1.836457 S    
C106  N42   1.435848 S    
C129  C137  1.419144 A    
C109  C117  1.403447 A    
N5    Ni3   1.832591 S    
C10   C42   1.377013 A    
N62   O60   1.301551 A    
N57   O49   1.301480 A    
C14   C46   1.377121 A    
C148  C155  1.406568 A    
C57   C65   1.411384 A    
C55   H39   1.084529 S    
C56   H40   1.084721 S    
N44   O24   1.301381 A    
N63   O61   1.301479 A    
C6    N6    1.341909 A    
C99   C115  1.402140 A    
C27   C33   1.398024 A    
C132  C140  1.424924 A    
N36   O7    1.302119 A    
N49   O33   1.301362 A    
C97   C113  1.400047 A    
N45   O26   1.301210 A    
C34   C100  1.502471 S    
C103  C127  1.428349 A    
N7    Ni4   1.847626 S    
C125  N38   1.450208 S    
C125  C133  1.402754 A    
C101  C117  1.400058 A    
C38   C104  1.457207 S    
N27   Ni5   1.834521 S    
C39   C101  1.449833 S    
C84   C92   1.405489 A    
N38   O12   1.301116 A    
C85   C93   1.411847 A    
C15   N15   1.331825 A    
C16   N16   1.332860 A    
N2    Ni2   1.832592 S    
C26   H26   1.080440 S    
C135  C143  1.422936 A    
N16   Ni7   1.832552 S    
C53   C93   1.399037 A    
C154  C162  1.386612 A    
C1    H1    1.081208 S    
C50   C58   1.390158 A    
N55   O45   1.298136 A    
N10   Ni6   1.836457 S    
C17   C41   1.393266 A    
C22   H22   1.080792 S    
N3    Ni2   1.847626 S    
C58   N50   1.436510 S    
C54   C62   1.391461 A    
C88   N60   1.441742 S    
C18   H18   1.076893 S    
N39   O13   1.302115 A    
C31   N31   1.323682 A    
N35   O5    1.302531 A    
C11   C43   1.381217 A    
C110  C142  1.411357 A    
C110  N46   1.435849 S    
N56   O48   1.301533 A    
N1    Ni1   1.832591 S    
C107  N43   1.439233 S    
C98   C122  1.403787 A    
C87   N59   1.438566 S    
C113  H58   1.083483 S    
C9    N9    1.333009 A    
C78   H46   1.074360 S    
C116  H59   1.081230 S    
C50   C90   1.398894 A    
C70   C78   1.403669 A    
C51   H35   1.084782 S    
C52   C60   1.387641 A    
C49   H33   1.084704 S    
C158  C166  1.385814 A    
N24   Ni4   1.848455 S    
C161  H49   1.080617 S    
C62   C70   1.412339 A    
N61   O58   1.301617 A    
C60   N52   1.440613 S    
C74   C82   1.402202 A    
C27   H27   1.076246 S    
C126  N37   1.434139 S    
N60   O56   1.301643 A    
C29   N29   1.331908 A    
C149  C158  1.406212 A    
N64   O64   1.301666 A    
C147  C156  1.409854 A    
C90   C93   1.465658 S    
N31   Ni7   1.834521 S    
C112  N48   1.437133 S    
C11   N11   1.331309 A    
C102  C126  1.403455 A    
C12   H12   1.081567 S    
N41   O17   1.301369 A    
C118  H61   1.083550 S    
C73   C81   1.401010 A    
C18   C42   1.377262 A    
C86   N58   1.442558 S    
C20   C44   1.391130 A    
C68   C76   1.403912 A    
C131  C139  1.428003 A    
C69   C77   1.403537 A    
C77   C85   1.402016 A    
C159  C167  1.384626 A    
N43   O21   1.301559 A    
C72   C80   1.404798 A    
C2    N2    1.349018 A    
C55   C95   1.394956 A    
N17   Ni2   1.833498 S    
C56   C96   1.399633 A    
C145  C150  1.399549 A    
C60   C68   1.404163 A    
C61   C69   1.413661 A    
C85   N57   1.441379 S    
N53   O41   1.301262 A    
C59   C67   1.412340 A    
C17   N17   1.342920 A    
N50   O36   1.301370 A    
C153  H65   1.080050 S    
C136  C144  1.417652 A    
C43   C65   1.462215 S    
C41   C67   1.465092 S    
C42   C68   1.442795 S    
C158  H70   1.083263 S    
C10   H10   1.077163 S    
C133  C149  1.404986 A    
C15   H15   1.078386 S    
N63   O62   1.301598 A    
C66   C74   1.405080 A    
C32   N32   1.334383 A    
C20   N20   1.344683 A    
C92   C95   1.452704 S    
C65   C73   1.403690 A    
C30   H30   1.080110 S    
C79   C87   1.388086 A    
C6    C38   1.382891 A    
C80   C88   1.400699 A    
C52   H36   1.084812 S    
C132  C148  1.437825 A    
C154  H66   1.083111 S    
C1    C33   1.377157 A    
N9    N17   1.376981 A    
C83   N63   1.441428 S    
N33   O1    1.300932 A    
N4    N26   1.387745 A    
C134  C150  1.417946 A    
C36   C98   1.463269 S    
N3    N25   1.387742 A    
N8    N30   1.387746 A    
N55   O46   1.301492 A    
C56   C64   1.390354 A    
N30   Ni7   1.839123 S    
C119  H64   1.081085 S    
C120  H63   1.083537 S    
C40   C102  1.465871 S    
C111  C119  1.396787 A    
N23   Ni3   1.848451 S    
N59   O54   1.301647 A    
N39   O14   1.301162 A    
C166  H54   1.080440 S    
C57   N49   1.437305 S    
C28   N28   1.332185 A    
N11   N19   1.376861 A    
N54   O44   1.301139 A    
C4    C36   1.379450 A    
C13   H13   1.080925 S    
C54   C94   1.399470 A    
C19   H19   1.079471 S    
C2    H2    1.077551 S    
N42   O19   1.301087 A    
C53   H37   1.084886 S    
C25   C35   1.384091 A    
N40   O15   1.302613 A    
C156  C164  1.398026 A    
N32   Ni8   1.834523 S    
C167  H55   1.081443 S    
C127  C135  1.427931 A    
C157  H69   1.080799 S    
C160  C168  1.388764 A    
C122  C130  1.414854 A    
N46   O27   1.301074 A    
N19   Ni1   1.848451 S    
N37   O10   1.301509 A    
C59   N51   1.437129 S    
N12   Ni5   1.832552 S    
N58   O51   1.301529 A    
C50   H34   1.084758 S    
N36   O8    1.301463 A    
C16   H16   1.081267 S    
N45   O25   1.301212 A    
C114  H57   1.083661 S    
C52   C92   1.402888 A    
C146  C153  1.412187 A    
C75   C83   1.401181 A    
C138  C166  1.402406 A    
N25   Ni6   1.839119 S    
C76   H44   1.083997 S    
N8    Ni3   1.847627 S    
N52   O39   1.301413 A    
C9    H9    1.077149 S    
N10   N18   1.376981 A    
C142  C162  1.402815 A    
C162  H50   1.080534 S    
N20   Ni2   1.848455 S    
