data_mof_unit_37843.cif
_audit_creation_date              2012-12-11T16:35:14-0500
_audit_creation_method            fapswitch 2.2
_symmetry_space_group_name_H-M    P1
_symmetry_Int_Tables_number       1
_space_group_crystal_system       triclinic
_cell_length_a                    6.924268
_cell_length_b                    17.577033
_cell_length_c                    19.666713
_cell_angle_alpha                 108.782477
_cell_angle_beta                  89.976438
_cell_angle_gamma                 90.795318
_cell_volume                      2265.89446692

loop_
_atom_site_label
_atom_site_type_symbol
_atom_type_description
_atom_site_fract_x
_atom_site_fract_y
_atom_site_fract_z
_atom_type_partial_charge
O1    O     O_R   0.505700 0.440210 0.561730 -0.539086
O2    O     O_R   0.169350 0.406300 0.412660 -0.538568
O3    O     O_R   0.005650 0.559790 0.438270 -0.546320
C1    C     C_R   0.338607 0.383694 0.384634 0.684764
O4    O     O_R   0.175560 0.430650 0.559600 -0.507432
O5    O     O_R   0.011900 0.584320 0.586250 -0.538355
C2    C     C_R   0.343959 0.414277 0.580202 0.772819
O6    O     O_R   0.499450 0.415680 0.413750 -0.539300
O7    O     O_3   0.341370 0.550390 0.508570 -0.382821
V1    V     V_3+5 0.063940 0.490650 0.498410 1.492857
O8    O     O_R   0.682570 0.593700 0.587340 -0.546315
C3    C     C_R   0.852133 0.616750 0.615126 0.695942
O9    O     O_R   0.676370 0.569350 0.440400 -0.550939
C4    C     C_R   0.845662 0.584518 0.418967 0.665865
V2    V     V_3+5 0.564750 0.509350 0.501590 1.436102
O10   O     O_3   0.837190 0.449610 0.491430 -0.344435
C5    C     C_R   0.043662 0.716405 0.314470 -0.138452
H1    H     H_    0.180163 0.745256 0.310238 0.099383
C6    C     C_R   0.032432 0.670386 0.360741 -0.160030
H2    H     H_    0.160957 0.664337 0.389854 0.118015
C7    C     C_R   0.857154 0.633745 0.370154 -0.053564
C8    C     C_R   0.693626 0.643831 0.331761 -0.172465
H3    H     H_    0.556755 0.615784 0.337163 0.117854
C9    C     C_R   0.705489 0.688774 0.284605 -0.127843
H4    H     H_    0.577473 0.693107 0.254589 0.106771
C10   C     C_R   0.880564 0.726086 0.275376 0.091260
C11   C     C_R   0.733252 0.818642 0.214912 -0.140482
H5    H     H_    0.600017 0.819402 0.243899 0.101025
C12   C     C_R   0.744057 0.863606 0.167780 -0.156982
H6    H     H_    0.618304 0.896693 0.161385 0.117111
C13   C     C_R   0.915541 0.866947 0.130431 -0.055576
C14   C     C_R   0.075829 0.823911 0.141272 -0.165084
H7    H     H_    0.210039 0.824875 0.113232 0.123652
C15   C     C_R   0.064253 0.778000 0.187660 -0.129955
H8    H     H_    0.189411 0.744126 0.192999 0.107971
C16   C     C_R   0.892869 0.774771 0.225404 0.089714
H9    H     H_    0.504379 0.669914 0.918187 0.132141
C17   C     C_R   0.108442 0.888400 0.754100 -0.152565
C18   C     C_R   0.198619 0.893383 0.692366 -0.128131
C19   C     C_R   0.179186 0.830839 0.628082 -0.115138
C20   C     C_R   0.069484 0.762808 0.625030 -0.134698
C21   C     C_R   0.979269 0.754952 0.687180 0.068679
C22   C     C_R   0.999153 0.819315 0.753281 0.073368
C23   C     C_R   0.864952 0.685897 0.683575 -0.188609
C24   C     C_R   0.766319 0.682663 0.746080 0.063418
C25   C     C_R   0.789086 0.746344 0.812428 0.066380
C26   C     C_R   0.905459 0.814824 0.816207 -0.184569
C27   C     C_R   0.646570 0.616091 0.744463 -0.128147
C28   C     C_R   0.549653 0.612861 0.805516 -0.038118
C29   C     C_R   0.576153 0.673690 0.870438 -0.091299
C30   C     C_R   0.696316 0.739112 0.874390 -0.141698
H10   H     H_    0.123840 0.940039 0.801884 0.102969
H11   H     H_    0.281899 0.946636 0.694263 0.111163
H12   H     H_    0.247218 0.835509 0.579981 0.114062
H13   H     H_    0.053773 0.717497 0.572948 0.108434
H14   H     H_    0.625584 0.565578 0.696375 0.114118
H15   H     H_    0.456197 0.562016 0.802670 0.154484
H16   H     H_    0.715939 0.783342 0.926832 0.117803
H17   H     H_    0.778481 0.470677 0.229878 0.147004
C31   C     C_R   0.177403 0.223222 0.361662 -0.126013
C32   C     C_R   0.112842 0.145862 0.355141 -0.089400
C33   C     C_R   0.152811 0.082550 0.293581 -0.143461
C34   C     C_R   0.255085 0.096355 0.237657 -0.140860
C35   C     C_R   0.316210 0.174999 0.240997 0.072253
C36   C     C_R   0.279795 0.239617 0.305415 0.058358
C37   C     C_R   0.415697 0.188892 0.182246 -0.183333
C38   C     C_R   0.488003 0.268405 0.190565 -0.021721
C39   C     C_R   0.470488 0.330120 0.258644 0.048717
C40   C     C_R   0.355665 0.317534 0.314321 -0.162050
C41   C     C_R   0.581174 0.290723 0.134691 0.329574
C42   C     C_R   0.706496 0.357325 0.152238 -0.115085
C43   C     C_R   0.697536 0.414846 0.219088 -0.184801
C44   C     C_R   0.567781 0.404776 0.269120 -0.141833
H18   H     H_    0.148626 0.269252 0.412014 0.163445
H19   H     H_    0.034919 0.134740 0.398822 0.158829
H20   H     H_    0.106325 0.022115 0.289384 0.124557
H21   H     H_    0.288103 0.043906 0.192603 0.103837
H22   H     H_    0.787947 0.371596 0.110728 0.177847
H23   H     H_    0.548120 0.456709 0.315794 0.130213
C45   C     C_R   0.517444 0.337743 0.729723 0.512559
C46   C     C_R   0.502728 0.380542 0.680686 -0.264103
H24   H     H_    0.606698 0.428052 0.683842 0.175704
C47   C     C_R   0.353870 0.364755 0.629211 -0.198746
C48   C     C_R   0.219477 0.302499 0.626300 0.424260
C49   C     C_R   0.238997 0.256988 0.672835 -0.172195
H25   H     H_    0.137325 0.208160 0.668372 0.163560
C50   C     C_R   0.387392 0.273084 0.724579 -0.115687
C51   C     C_R   0.237865 0.212677 0.812196 -0.101495
H26   H     H_    0.104619 0.242407 0.809098 0.182257
C52   C     C_R   0.246794 0.165885 0.857637 -0.104434
H27   H     H_    0.119501 0.161103 0.888120 0.148322
C53   C     C_R   0.418691 0.127581 0.865051 0.000518
C54   C     C_R   0.579794 0.135283 0.823924 -0.143558
H28   H     H_    0.713542 0.105561 0.827545 0.107219
C55   C     C_R   0.569388 0.181133 0.777315 -0.065764
H29   H     H_    0.694422 0.185043 0.745503 0.140518
C56   C     C_R   0.399455 0.222047 0.772279 0.154432
O11   O     O_R   0.273230 0.084330 0.086440 -0.519973
O12   O     O_R   0.596660 0.069390 0.940470 -0.532193
O13   O     O_R   0.760270 0.915710 0.913690 -0.545509
C57   C     C_R   0.428505 0.080297 0.915651 0.801320
O14   O     O_R   0.603330 0.093680 0.087390 -0.548651
O15   O     O_R   0.766990 0.940160 0.061660 -0.546145
C58   C     C_R   0.434030 0.119518 0.113548 0.796734
O16   O     O_R   0.266510 0.059870 0.938470 -0.538113
O17   O     O_3   0.431050 0.949630 0.991510 -0.383669
V3    V     V_3+5 0.708490 0.009340 0.001580 1.434610
O18   O     O_R   0.096270 0.930570 0.059390 -0.548580
C59   C     C_R   0.927085 0.915668 0.081135 0.680116
O19   O     O_R   0.089600 0.906290 0.912460 -0.544629
C60   C     C_R   0.919757 0.883415 0.884786 0.682307
V4    V     V_3+5 0.207670 0.990600 0.998190 1.447611
O20   O     O_3   0.935250 0.050360 0.008480 -0.362843
S1    S     S_3+6 0.487793 0.268062 0.046983 0.007794
O21   O     O_2   0.310418 0.215518 0.035147 -0.355880
O22   O     O_2   0.433180 0.345668 0.035774 -0.278868
O23   O     O_3   0.663398 0.227133 0.988066 -0.493619
H30   H     H_    0.763713 0.210143 0.015832 0.321307
S2    S     S_3+6 0.697218 0.369594 0.797361 0.003547
O24   O     O_2   0.879349 0.325807 0.768621 -0.369181
O25   O     O_2   0.735622 0.458220 0.815405 -0.330304
O26   O     O_3   0.629912 0.350487 0.872553 -0.455460
H31   H     H_    0.751156 0.352538 0.899841 0.393992
Cl1   Cl    Cl    0.028979 0.276333 0.563323 -0.676317

loop_
_geom_bond_atom_site_label_1
_geom_bond_atom_site_label_2
_ccdc_geom_bond_type
C2    C47   S    
C54   H28   S    
C11   C12   A    
C20   C21   A    
C55   H29   S    
C1    O6    A    
S1    O21   D    
O17   V4    S    
C24   C25   A    
C41   S1    S    
C33   C34   A    
C5    C10   A    
C4    C7    S    
C6    C7    A    
C9    C10   A    
C45   C50   A    
O5    C3    A    
C17   C18   A    
O11   C58   A    
C24   C27   A    
C17   H10   S    
O17   V3    S    
V2    O10   S    
C28   H15   S    
O18   C59   A    
C15   H8    S    
O19   C60   A    
V4    O20   S    
O8    V2    S    
V3    O20   S    
C13   C14   A    
C39   C40   A    
C41   C42   A    
O1    V2    S    
C20   H13   S    
O7    V1    S    
C51   C56   A    
H17   C43   S    
S2    O25   D    
C37   C38   A    
C45   S2    S    
C54   C55   A    
O9    C4    A    
C33   H20   S    
C21   C23   A    
C1    C40   S    
C46   C47   A    
C46   H24   S    
C49   C50   A    
C57   O16   A    
O11   V4    S    
C38   C39   A    
C37   C58   S    
C9    H4    S    
C18   C19   A    
O4    C2    A    
C45   C46   A    
C29   C30   A    
C39   C44   A    
C49   H25   S    
C25   C30   A    
C32   H19   S    
O18   V4    S    
C31   C32   A    
C14   C15   A    
O2    C1    A    
C26   C60   S    
C12   H6    S    
C52   C53   A    
C47   C48   A    
S2    O24   D    
C5    H1    S    
C13   C59   S    
O14   V3    S    
C30   H16   S    
C48   C49   A    
O14   C58   A    
O3    C4    A    
C53   C57   S    
C10   C16   S    
C19   C20   A    
O12   C57   A    
O16   V4    S    
C51   C52   A    
C31   C36   A    
O6    V2    S    
C19   H12   S    
O9    V2    S    
C8    C9    A    
C21   C22   A    
O2    V1    S    
C23   C24   A    
C34   H21   S    
S2    O26   S    
C27   H14   S    
C25   C26   A    
C27   C28   A    
O13   V3    S    
O1    C2    A    
C43   C44   A    
C44   H23   S    
O5    V1    S    
S1    O22   D    
O8    C3    A    
C55   C56   A    
C11   C16   A    
C48   Cl1   S    
O12   V3    S    
O15   C59   A    
C38   C41   A    
C35   C36   A    
C6    H2    S    
O7    V2    S    
C17   C22   A    
C12   C13   A    
O3    V1    S    
V1    O10   S    
O23   H30   S    
C14   H7    S    
H9    C29   S    
C52   H27   S    
C18   H11   S    
C36   C40   A    
C31   H18   S    
C53   C54   A    
C5    C6    A    
C15   C16   A    
C32   C33   A    
O19   V4    S    
S1    O23   S    
C34   C35   A    
O4    V1    S    
C42   C43   A    
C51   H26   S    
O13   C60   A    
C3    C23   S    
C28   C29   A    
C11   H5    S    
C8    H3    S    
O15   V3    S    
O26   H31   S    
C7    C8    A    
C22   C26   A    
C42   H22   S    
C35   C37   A    
C50   C56   S    
