data_mof_unit_29394.cif
_audit_creation_date              2012-10-26T20:21:17-0400
_audit_creation_method            fapswitch 2.2
_symmetry_space_group_name_H-M    P1
_symmetry_Int_Tables_number       1
_space_group_crystal_system       triclinic
_cell_length_a                    9.540169
_cell_length_b                    10.832629
_cell_length_c                    15.695249
_cell_angle_alpha                 89.829749
_cell_angle_beta                  73.769248
_cell_angle_gamma                 90.008026
_cell_volume                      1557.37175218

loop_
_atom_site_label
_atom_site_type_symbol
_atom_type_description
_atom_site_fract_x
_atom_site_fract_y
_atom_site_fract_z
_atom_type_partial_charge
C1    C     C_R   0.999935 0.262140 0.500050 0.548748
C2    C     C_R   0.127757 0.063894 0.499136 -0.132527
C3    C     C_R   0.000060 0.871747 0.499921 0.023330
C4    C     C_R   0.999940 0.128253 0.500078 0.023331
C5    C     C_R   0.560213 0.400119 0.530251 0.042381
C6    C     C_R   0.439786 0.599882 0.469750 0.042383
C7    C     C_R   0.411654 0.400314 0.530566 0.041342
C8    C     C_R   0.588345 0.599690 0.469437 0.041343
C9    C     C_R   0.917457 0.491409 0.671799 0.542173
C10   C     C_R   0.082542 0.508583 0.328201 0.542169
C11   C     C_R   0.870312 0.473425 0.769749 -0.029598
C12   C     C_R   0.000064 0.737860 0.499949 0.548750
C13   C     C_R   0.129680 0.526550 0.230249 -0.029598
C14   C     C_R   0.920735 0.442215 0.911886 -0.148409
C15   C     C_R   0.079247 0.557710 0.088110 -0.148402
C16   C     C_R   0.971505 0.461519 0.820468 -0.035581
C17   C     C_R   0.028483 0.538411 0.179531 -0.035582
C18   C     C_R   0.719742 0.462233 0.814038 -0.043841
C19   C     C_R   0.280248 0.537755 0.185959 -0.043845
C20   C     C_R   0.670667 0.475587 0.906914 0.017248
C21   C     C_R   0.329322 0.524392 0.093082 0.017243
C22   C     C_R   0.771939 0.452392 0.955641 0.021092
C23   C     C_R   0.575933 0.449831 0.091477 -0.108081
C24   C     C_R   0.228045 0.547562 0.044354 0.021099
C25   C     C_R   0.523444 0.504967 0.953037 0.030048
C26   C     C_R   0.476543 0.495011 0.046959 0.030043
C27   C     C_1   0.375793 0.598478 0.230314 0.222373
C28   C     C_1   0.624201 0.401491 0.769684 0.222359
C29   C     C_1   0.872594 0.540063 0.219182 0.213654
C30   C     C_1   0.127382 0.459784 0.780818 0.213655
C31   C     C_R   0.424046 0.550132 0.908517 -0.108083
C32   C     C_R   0.722538 0.434111 0.047009 -0.120377
C33   C     C_R   0.277438 0.565831 0.952985 -0.120373
C34   C     C_R   0.872176 0.063826 0.500961 -0.130468
C35   C     C_R   0.127824 0.936174 0.499039 -0.130471
C36   C     C_R   0.872243 0.936106 0.500864 -0.132528
Cu1   Cu    Cu3+1 0.140660 0.500020 0.500000 0.978476
Cu2   Cu    Cu3+1 0.859340 0.499980 0.500000 0.978476
H1    H     H_    0.797119 0.404804 0.083932 0.124365
H2    H     H_    0.227683 0.111919 0.498414 0.124085
H3    H     H_    0.604055 0.319792 0.554676 0.128517
H4    H     H_    0.395944 0.680211 0.445326 0.128506
H5    H     H_    0.344816 0.320526 0.555909 0.118558
H6    H     H_    0.655181 0.679487 0.444099 0.118529
H7    H     H_    0.202848 0.595108 0.916058 0.124358
H8    H     H_    0.997968 0.421882 0.949174 0.113501
H9    H     H_    0.002007 0.578008 0.050822 0.113500
H10   H     H_    0.541983 0.425749 0.161072 0.144495
H11   H     H_    0.457989 0.574205 0.838921 0.144475
H12   H     H_    0.772215 0.111795 0.501730 0.125201
H13   H     H_    0.227785 0.888205 0.498269 0.125197
H14   H     H_    0.772317 0.888081 0.501586 0.124081
N1    N     N_R   0.352080 0.500030 0.499980 -0.228121
N2    N     N_R   0.647920 0.499970 0.500020 -0.228115
N3    N     N_1   0.451712 0.648452 0.265075 -0.290766
N4    N     N_1   0.548287 0.351497 0.734923 -0.290756
N5    N     N_1   0.747660 0.541194 0.251093 -0.283712
N6    N     N_1   0.252301 0.458581 0.748912 -0.283717
O1    O     O_R   0.118740 0.319660 0.500000 -0.519736
O2    O     O_R   0.881260 0.680340 0.500000 -0.519737
O3    O     O_R   0.881170 0.319630 0.500010 -0.516915
O4    O     O_R   0.118830 0.680370 0.499990 -0.516916
O5    O     O_R   0.055570 0.500030 0.629830 -0.483056
O6    O     O_R   0.944430 0.499970 0.370170 -0.483052
O7    O     O_R   0.818000 0.500000 0.629840 -0.488366
O8    O     O_R   0.182000 0.500000 0.370160 -0.488356

loop_
_geom_bond_atom_site_label_1
_geom_bond_atom_site_label_2
_ccdc_geom_bond_type
C2    C35   A    
C25   C31   A    
C2    C4    A    
C21   C26   A    
C31   C33   A    
C11   C18   A    
Cu1   Cu2   S    
C23   H10   S    
C7    H5    S    
C19   C27   S    
C11   C16   A    
C27   N3    T    
C18   C20   A    
C24   C33   A    
Cu2   N2    S    
Cu2   O7    S    
C13   C17   A    
Cu2   O3    S    
Cu1   N1    S    
C23   C32   A    
C14   C22   A    
C9    O7    A    
C10   O8    A    
Cu1   O4    S    
C28   N4    T    
C18   C28   S    
C14   H8    S    
C17   C29   S    
Cu1   O8    S    
C9    C11   S    
Cu1   O1    S    
C22   C32   A    
C3    C36   A    
C31   H11   S    
Cu2   O2    S    
C30   N6    T    
C15   C24   A    
Cu1   O5    S    
C20   C22   A    
C34   C36   A    
C1    O1    A    
C4    C34   A    
C35   H13   S    
C14   C16   A    
C21   C24   A    
C34   H12   S    
C1    C4    S    
C12   O4    A    
C7    N1    A    
C6    N1    A    
C16   C30   S    
C12   O2    A    
C2    H2    S    
C5    N2    A    
C33   H7    S    
C5    C7    A    
C3    C35   A    
C20   C25   A    
C23   C26   A    
C8    N2    A    
C15   C17   A    
Cu2   O6    S    
C5    H3    S    
C15   H9    S    
C13   C19   A    
C6    C8    A    
C3    C12   S    
C32   H1    S    
C19   C21   A    
C25   C26   A    
C9    O5    A    
C6    H4    S    
C10   O6    A    
C8    H6    S    
C29   N5    T    
C1    O3    A    
C10   C13   S    
C36   H14   S    
