data_mof_unit_64326.cif
_audit_creation_date              2012-12-10T16:55:26-0500
_audit_creation_method            fapswitch 2.2
_symmetry_space_group_name_H-M    P1
_symmetry_Int_Tables_number       1
_space_group_crystal_system       triclinic
_cell_length_a                    11.711719
_cell_length_b                    10.932679
_cell_length_c                    9.696569
_cell_angle_alpha                 90.295786
_cell_angle_beta                  89.748597
_cell_angle_gamma                 90.325155
_cell_volume                      1241.50486801

loop_
_atom_site_label
_atom_site_type_symbol
_atom_type_description
_atom_site_fract_x
_atom_site_fract_y
_atom_site_fract_z
_atom_type_partial_charge
C1    C     C_R   0.493079 0.265535 0.499815 0.710481
C2    C     C_2   0.526414 0.866545 0.501447 0.338560
C3    C     C_2   0.506074 0.066234 0.391875 -0.135944
C4    C     C_2   0.472118 0.133883 0.500228 0.340237
C5    C     C_2   0.427280 0.436510 0.921787 0.383115
C6    C     C_2   0.442754 0.420357 0.077873 0.381060
C7    C     C_R   0.284004 0.499959 0.500248 0.834917
C8    C     C_R   0.506543 0.734584 0.500333 0.693386
C9    C     C_R   0.716003 0.499977 0.499757 0.814897
C10   C     C_1   0.162333 0.499862 0.500626 -0.153976
C11   C     C_1   0.059892 0.499833 0.500337 0.018946
C12   C     C_1   0.940133 0.499866 0.499719 0.013731
C13   C     C_1   0.837689 0.499919 0.499406 -0.167532
C14   C     C_2   0.494643 0.932970 0.392135 -0.152314
Cu1   Cu    Cu3+1 0.500020 0.500020 0.638630 1.010304
Cu2   Cu    Cu3+1 0.499980 0.499980 0.361370 0.998542
H1    H     H_    0.460519 0.889482 0.300009 0.120494
N1    N     N_2   0.498780 0.498660 0.846910 -0.284256
N2    N     N_2   0.498750 0.498630 0.153040 -0.284847
O1    O     O_R   0.500020 0.321960 0.617040 -0.544765
O2    O     O_R   0.499980 0.321920 0.382900 -0.532399
O3    O     O_R   0.337220 0.500030 0.617070 -0.507770
O4    O     O_R   0.337180 0.499990 0.382930 -0.538634
O5    O     O_R   0.500020 0.678080 0.617100 -0.573526
O6    O     O_R   0.499980 0.678040 0.382960 -0.601075
O7    O     O_R   0.662820 0.500010 0.617070 -0.575457
O8    O     O_R   0.662780 0.499970 0.382930 -0.567264
O9    O     O_3   0.582966 0.922338 0.610454 -0.682441
H2    H     H_    0.607585 0.859065 0.676586 0.327021
H3    H     H_    0.542418 0.108668 0.300470 0.130194
O10   O     O_3   0.412849 0.079544 0.608042 -0.677651
H4    H     H_    0.387026 0.143684 0.673460 0.344587
O11   O     O_3   0.336462 0.381036 0.855781 -0.689989
H5    H     H_    0.277087 0.361625 0.925430 0.310984
H6    H     H_    0.570561 0.532673 0.894679 0.139437
O12   O     O_3   0.393445 0.321508 0.143483 -0.687811
H7    H     H_    0.377743 0.257176 0.073741 0.307494
H8    H     H_    0.528454 0.576485 0.105458 0.139264

loop_
_geom_bond_atom_site_label_1
_geom_bond_atom_site_label_2
_ccdc_geom_bond_type
C3    H3    S    
C11   C12   S    
C1    O2    A    
Cu2   O2    S    
C8    O6    A    
N2    H8    S    
C7    C10   S    
C7    O3    A    
N1    H6    S    
Cu1   N1    S    
O10   H4    S    
C1    C4    S    
Cu2   O8    S    
O11   H5    S    
Cu1   O5    S    
C6    N2    D    
C14   H1    S    
C5    C6    S    
C3    C14   S    
Cu2   N2    S    
C7    O4    A    
O9    H2    S    
C8    O5    A    
C6    O12   S    
C9    O7    A    
Cu2   O4    S    
Cu1   O1    S    
C2    C14   D    
C4    O10   S    
C10   C11   T    
Cu1   Cu2   S    
C12   C13   T    
C9    O8    A    
Cu2   O6    S    
C9    C13   S    
O12   H7    S    
Cu1   O7    S    
C2    O9    S    
C5    N1    D    
Cu1   O3    S    
C2    C8    S    
C3    C4    D    
C1    O1    A    
C5    O11   S    
