data_mof_unit_20719.cif
_audit_creation_date              2013-03-05T16:33:15-0500
_audit_creation_method            fapswitch 2.2
_symmetry_space_group_name_H-M    P1
_symmetry_Int_Tables_number       1
_space_group_crystal_system       triclinic
_cell_length_a                    27.769524
_cell_length_b                    10.800485
_cell_length_c                    9.61842
_cell_angle_alpha                 90.042247
_cell_angle_beta                  89.694832
_cell_angle_gamma                 91.713194
_cell_volume                      2883.46726839

loop_
_atom_site_label
_atom_site_type_symbol
_atom_site_description
_atom_site_fract_x
_atom_site_fract_y
_atom_site_fract_z
_atom_type_partial_charge
O1    O     O_R   0.500000 0.319640 0.618810 -0.595515
O2    O     O_R   0.500010 0.319680 0.381230 -0.566198
C1    C     C_R   0.501910 0.262590 0.499786 0.807735
O3    O     O_R   0.430260 0.500000 0.618780 -0.596795
O4    O     O_R   0.430270 0.500040 0.381190 -0.595523
C2    C     C_R   0.407520 0.500846 0.500222 0.800879
Cu1   Cu    Cu3+1 0.500000 0.499980 0.640670 0.934318
Cu2   Cu    Cu3+1 0.500000 0.500020 0.359330 0.943686
O5    O     O_R   0.499990 0.680320 0.618770 -0.573686
O6    O     O_R   0.500000 0.680360 0.381190 -0.577081
O7    O     O_R   0.569730 0.499960 0.618810 -0.581600
O8    O     O_R   0.569740 0.500000 0.381220 -0.582516
C3    C     C_R   0.501446 0.737348 0.500072 0.818372
C4    C     C_R   0.592474 0.500331 0.499769 0.805001
C5    C     C_R   0.176297 0.397503 0.519397 0.533576
O9    O     O_2   0.199830 0.291560 0.539922 -0.528258
N1    N     N_R   0.201778 0.506747 0.501552 -0.471298
C6    C     C_R   0.179153 0.616360 0.483779 0.532418
C7    C     C_R   0.278558 0.484082 0.375329 0.192264
C8    C     C_R   0.328821 0.482978 0.376186 -0.173732
C9    C     C_R   0.328922 0.526706 0.623485 -0.219238
C10   C     C_R   0.278740 0.527794 0.623259 -0.115654
C11   C     C_R   0.253371 0.506082 0.499957 0.315557
C12   C     C_R   0.101764 0.506471 0.493374 -0.048678
C13   C     C_R   0.125782 0.395164 0.515294 -0.022310
C14   C     C_R   0.098814 0.284985 0.535242 -0.134447
C15   C     C_R   0.128657 0.618459 0.480233 -0.021133
C16   C     C_R   0.354447 0.503177 0.500227 -0.094681
H1    H     H_    0.347625 0.545692 0.719829 0.156887
H2    H     H_    0.259460 0.545733 0.718986 0.151648
H3    H     H_    0.116162 0.199146 0.559401 0.191196
C17   C     C_R   0.645539 0.500860 0.499132 -0.073744
C18   C     C_R   0.974026 0.389942 0.464283 -0.043666
C19   C     C_R   0.975575 0.616986 0.487106 0.061152
C20   C     C_R   0.949350 0.501863 0.478144 0.051075
C21   C     C_R   0.947620 0.281304 0.424467 0.084426
C22   C     C_R   0.896934 0.275691 0.436905 0.198320
C23   C     C_R   0.871648 0.385743 0.466570 -0.118743
C24   C     C_R   0.898286 0.499165 0.482013 -0.077041
C25   C     C_R   0.873931 0.610602 0.503603 -0.006641
C26   C     C_R   0.823670 0.608158 0.511229 0.581926
N2    N     N_R   0.798282 0.499255 0.495387 -0.468132
C27   C     C_R   0.820603 0.389551 0.474593 0.600256
C28   C     C_R   0.721085 0.463895 0.615809 -0.115535
C29   C     C_R   0.670849 0.463701 0.617305 -0.205446
C30   C     C_R   0.671391 0.538187 0.379803 -0.239901
C31   C     C_R   0.721588 0.537409 0.377341 0.210972
C32   C     C_R   0.746642 0.500633 0.496165 0.302246
O10   O     O_2   0.792885 0.286168 0.460061 -0.482449
C33   C     C_R   0.024417 0.391680 0.488142 0.069382
C34   C     C_R   0.050809 0.505764 0.485563 0.075792
C35   C     C_R   0.026615 0.618949 0.477378 0.043379
C36   C     C_R   0.048849 0.283927 0.524513 -0.161327
H4    H     H_    0.651892 0.432836 0.710090 0.156958
H5    H     H_    0.740238 0.434833 0.707385 0.162772
H6    H     H_    0.029362 0.198387 0.548471 0.172347
O11   O     O_2   0.205477 0.722659 0.468986 -0.528481
C37   C     C_R   0.104617 0.729375 0.462838 -0.132341
H7    H     H_    0.347661 0.465882 0.279561 0.166613
H8    H     H_    0.124460 0.816630 0.450552 0.193368
C38   C     C_R   0.949879 0.726125 0.508134 -0.182174
C39   C     C_R   0.900047 0.722612 0.517124 -0.102462
O12   O     O_2   0.800104 0.713994 0.533523 -0.499916
C40   C     C_R   0.054490 0.729996 0.462515 -0.195712
H9    H     H_    0.967465 0.815480 0.523159 0.156937
H10   H     H_    0.652807 0.569148 0.288626 0.163386
H11   H     H_    0.882005 0.808791 0.534956 0.208441
H12   H     H_    0.038490 0.818642 0.446690 0.159176
C41   C     C_R   0.499596 0.063085 0.622594 0.086242
C42   C     C_R   0.508323 0.129553 0.500081 -0.115385
C43   C     C_R   0.525391 0.065198 0.381715 0.145084
C44   C     C_R   0.524019 0.935012 0.382936 -0.232835
H13   H     H_    0.534525 0.884611 0.290706 0.158288
C45   C     C_R   0.507375 0.870518 0.501256 -0.130379
C46   C     C_R   0.499444 0.936036 0.623285 0.122927
C47   C     C_3   0.458584 0.925987 0.724338 -0.434750
C48   C     C_3   0.458556 0.066466 0.723637 -0.461590
H14   H     H_    0.425567 0.882171 0.678469 0.201274
H15   H     H_    0.469763 0.886686 0.825562 0.200234
H16   H     H_    0.425440 0.104191 0.677338 0.199306
H17   H     H_    0.469567 0.107617 0.825000 0.216227
C49   C     C_R   0.527196 0.585687 0.073153 0.197469
N3    N     N_R   0.500300 0.500930 0.147930 -0.220316
C50   C     C_R   0.470413 0.421261 0.073322 0.246063
C51   C     C_R   0.467928 0.428073 0.927126 0.229801
N4    N     N_R   0.500310 0.500890 0.852020 -0.224208
C52   C     C_R   0.527588 0.584658 0.926258 0.197743
C53   C     C_3   0.580857 0.601982 0.919471 -0.447857
C54   C     C_3   0.580703 0.601641 0.077019 -0.480093
H18   H     H_    0.598926 0.520683 0.874809 0.212700
H19   H     H_    0.592035 0.692983 0.873907 0.203164
H20   H     H_    0.598154 0.518912 0.120033 0.218124
H21   H     H_    0.592473 0.691883 0.123170 0.196425
N5    N     N_3   0.253681 0.463016 0.247073 -0.584102
H22   H     H_    0.232635 0.539617 0.227211 0.235835
H23   H     H_    0.230615 0.385475 0.259175 0.244095
I1    I     I_    0.757875 0.589719 0.191082 -0.286520
N6    N     N_3   0.542744 0.130910 0.260648 -0.576137
H24   H     H_    0.574910 0.177257 0.287993 0.230385
H25   H     H_    0.551290 0.069127 0.181126 0.213508
N7    N     N_3   0.442559 0.323024 0.137450 -0.565074
H26   H     H_    0.419445 0.354480 0.213653 0.249025
H27   H     H_    0.465082 0.254770 0.173227 0.266121
N8    N     N_3   0.428534 0.361690 0.863305 -0.568103
H28   H     H_    0.439222 0.313453 0.776238 0.261763
H29   H     H_    0.402080 0.424256 0.838437 0.229329
I2    I     I_    0.862377 0.095417 0.413583 -0.169912
I3    I     I_    0.981655 0.143142 0.298082 -0.334283

loop_
_geom_bond_atom_site_label_1
_geom_bond_atom_site_label_2
_geom_bond_distance
_ccdc_geom_bond_type
C28   C32   1.400201 A    
C52   C53   1.486564 S    
N7    H26   1.035507 S    
C21   I3    2.160366 S    
Cu2   N3    2.033337 S    
C17   C29   1.404649 A    
C41   C48   1.495090 S    
C7    C8    1.396263 A    
C12   C15   1.407782 A    
N8    H29   1.041783 S    
Cu1   Cu2   2.706046 S    
C51   N4    1.378640 A    
Cu1   O7    1.946643 S    
N1    C11   1.432949 S    
C49   C54   1.491346 S    
C39   H11   1.083295 S    
C40   H12   1.078699 S    
C21   C22   1.411467 A    
C47   H14   1.112341 S    
C30   H10   1.078339 S    
C23   C24   1.420084 A    
O7    C4    1.304630 A    
C36   H6    1.080996 S    
Cu1   N4    2.032933 S    
C37   H8    1.083575 S    
C49   C52   1.412921 A    
C18   C21   1.418439 A    
C25   C39   1.398118 A    
Cu1   O5    1.959278 S    
C19   C20   1.424829 A    
C26   N2    1.361993 A    
O5    C3    1.297501 A    
C50   C51   1.410316 A    
C2    C16   1.474766 S    
N3    C50   1.380906 A    
C47   H15   1.111827 S    
C42   C43   1.420116 A    
C38   C39   1.385433 A    
C12   C34   1.417175 A    
C14   H3    1.083421 S    
N7    H27   1.040806 S    
C9    C10   1.393939 A    
C50   N7    1.432242 S    
C41   C42   1.396588 A    
O3    Cu1   1.949182 S    
N8    H28   1.032850 S    
C33   C34   1.414872 A    
C37   C40   1.392248 A    
C43   N6    1.437606 S    
C33   C36   1.409765 A    
C45   C46   1.390040 A    
C34   C35   1.414839 A    
C1    C42   1.453138 S    
C12   C13   1.408669 A    
O3    C2    1.306626 A    
C35   C40   1.414789 A    
C4    C17   1.473416 S    
C24   C25   1.412775 A    
N4    C52   1.366045 A    
C27   O10   1.344725 S    
C8    C16   1.405994 A    
C18   C33   1.418795 A    
C9    H1    1.081206 S    
O6    C3    1.298428 A    
C19   C38   1.409946 A    
C54   H20   1.110392 S    
C20   C24   1.417745 A    
C46   C47   1.491632 S    
C22   C23   1.426365 A    
C6    O11   1.349684 S    
C31   C32   1.404880 A    
C53   H19   1.111469 S    
C48   H17   1.111740 S    
Cu2   O8    1.949176 S    
N1    C6    1.368010 A    
N2    C32   1.434512 S    
C47   C48   1.517282 S    
C8    H7    1.082543 S    
N5    H23   1.045232 S    
C7    N5    1.431806 S    
C51   N8    1.430797 S    
C44   C45   1.403684 A    
C25   C26   1.396724 A    
C9    C16   1.404968 A    
O8    C4    1.306239 A    
C29   H4    1.081498 S    
C49   N3    1.366563 A    
N6    H25   1.045663 S    
N2    C27   1.367593 A    
C26   O12   1.350464 S    
C14   C36   1.391613 A    
C28   C29   1.394983 A    
C7    C11   1.408253 A    
C48   H16   1.112237 S    
C5    N1    1.367990 A    
C30   C31   1.394304 A    
C10   H2    1.082883 S    
O1    Cu1   1.958921 S    
C17   C30   1.403521 A    
O2    Cu2   1.959280 S    
C6    C15   1.403698 A    
C53   H18   1.109427 S    
C44   H13   1.083698 S    
C15   C37   1.399306 A    
O4    Cu2   1.946646 S    
C22   I2    2.156875 S    
C19   C35   1.419482 A    
C31   I1    2.119510 S    
O2    C1    1.298818 A    
C13   C14   1.399724 A    
C43   C44   1.405503 A    
C28   H5    1.082887 S    
O4    C2    1.304836 A    
C18   C20   1.413097 A    
C41   C46   1.372100 A    
C54   H21   1.111614 S    
N5    H22   1.045416 S    
C5    C13   1.403009 A    
C38   H9    1.078473 S    
C23   C27   1.421031 A    
C53   C54   1.515352 S    
Cu2   O6    1.958920 S    
N6    H24   1.045575 S    
C10   C11   1.398712 A    
O1    C1    1.301297 A    
C5    O9    1.349717 S    
C3    C45   1.442837 S    
