data_mof_unit_66207.cif
_audit_creation_date              2012-12-10T16:48:10-0500
_audit_creation_method            fapswitch 2.2
_symmetry_space_group_name_H-M    P1
_symmetry_Int_Tables_number       1
_space_group_crystal_system       triclinic
_cell_length_a                    15.827072
_cell_length_b                    8.687797
_cell_length_c                    7.543643
_cell_angle_alpha                 101.272214
_cell_angle_beta                  95.405529
_cell_angle_gamma                 92.423605
_cell_volume                      1010.77650601

loop_
_atom_site_label
_atom_site_type_symbol
_atom_type_description
_atom_site_fract_x
_atom_site_fract_y
_atom_site_fract_z
_atom_type_partial_charge
C1    C     C_R   0.499506 0.201521 0.456880 0.846957
C2    C     C_R   0.500495 0.798479 0.543121 0.846956
C3    C     C_R   0.340185 0.499814 0.500195 0.815678
C4    C     C_R   0.659815 0.500184 0.499805 0.815664
C5    C     C_2   0.517162 0.041139 0.444759 -0.051499
C6    C     C_2   0.482845 0.958866 0.555244 -0.051494
C7    C     C_3   0.975138 0.393658 0.596351 -0.243915
C8    C     C_3   0.024862 0.606340 0.403647 -0.243926
C9    C     C_3   0.020657 0.356492 0.421576 0.173147
C10   C     C_3   0.979342 0.643505 0.578422 0.173155
C11   C     C_1   0.250393 0.500386 0.499285 -0.068464
C12   C     C_1   0.749607 0.499610 0.500716 -0.068495
C13   C     C_3   0.038414 0.538083 0.669769 0.174399
C14   C     C_3   0.961585 0.461915 0.330229 0.174383
C15   C     C_3   0.082786 0.500230 0.495588 -0.019631
C16   C     C_3   0.917214 0.499767 0.504410 -0.019627
C17   C     C_1   0.174626 0.500510 0.496241 0.079565
C18   C     C_1   0.825373 0.499487 0.503759 0.079559
Cu1   Cu    Cu3+1 0.509330 0.517380 0.684380 1.060756
Cu2   Cu    Cu3+1 0.490670 0.482620 0.315620 1.060733
H1    H     H_    0.953870 0.305443 0.673619 0.221604
H2    H     H_    0.046129 0.694555 0.326379 0.221607
N1    N     N_2   0.476600 0.456420 0.038510 -0.235916
N2    N     N_2   0.523400 0.543580 0.961490 -0.235930
O1    O     O_R   0.506070 0.286130 0.619780 -0.585145
O2    O     O_R   0.493930 0.713870 0.380220 -0.585144
O3    O     O_R   0.490300 0.256770 0.308360 -0.545773
O4    O     O_R   0.509700 0.743230 0.691640 -0.545789
O5    O     O_R   0.386960 0.514660 0.655680 -0.587943
O6    O     O_R   0.613040 0.485340 0.344320 -0.587966
O7    O     O_R   0.371190 0.485310 0.344260 -0.588261
O8    O     O_R   0.628810 0.514690 0.655740 -0.588236
I1    I     I_    0.055358 0.127551 0.299821 -0.196362
I2    I     I_    0.944641 0.872447 0.700177 -0.196338
I3    I     I_    0.893737 0.401519 0.064749 -0.256848
I4    I     I_    0.106260 0.598484 0.935249 -0.256853
I5    I     I_    0.621796 0.972654 0.297096 -0.177680
I6    I     I_    0.378136 0.027317 0.702754 -0.177743
C19   C     C_2   0.388611 0.468995 0.991830 1.151919
O9    O     O_2   0.360263 0.598844 0.998373 -0.565608
O10   O     O_R   0.333063 0.335435 0.960835 -0.737332
H3    H     H_    0.271549 0.359795 0.935421 0.336475
C20   C     C_2   0.611392 0.531027 0.008162 1.151848
O11   O     O_2   0.639740 0.401181 0.001585 -0.565650
O12   O     O_R   0.666936 0.664583 0.039253 -0.737226
H4    H     H_    0.728429 0.640104 0.064856 0.336389

loop_
_geom_bond_atom_site_label_1
_geom_bond_atom_site_label_2
_ccdc_geom_bond_type
C8    H2    S    
C20   O11   D    
C6    I6    S    
C15   C17   S    
Cu2   O3    S    
C5    I5    S    
C4    C12   S    
C2    O4    A    
O10   H3    S    
Cu1   Cu2   S    
Cu2   N1    S    
C3    O7    A    
C1    O3    A    
Cu1   N2    S    
C9    C15   S    
C9    C14   S    
C10   C13   S    
C2    O2    A    
C10   C16   S    
O12   H4    S    
C1    O1    A    
Cu1   O4    S    
C20   O12   S    
C4    O8    A    
Cu2   O2    S    
C9    I1    S    
C1    C5    S    
Cu1   O8    S    
C8    C10   S    
C7    C16   S    
C8    C15   S    
C13   C15   S    
C5    C6    D    
Cu1   O1    S    
C14   C16   S    
C3    C11   S    
N1    N2    D    
C10   I2    S    
C7    C9    S    
C7    C13   S    
C14   I3    S    
C19   O10   S    
C13   I4    S    
C16   C18   S    
C12   C18   T    
C19   O9    D    
C3    O5    A    
N2    C20   S    
C11   C17   T    
Cu2   O6    S    
C8    C14   S    
C7    H1    S    
N1    C19   S    
C4    O6    A    
C2    C6    S    
Cu2   O7    S    
Cu1   O5    S    
