data_mof_unit_16697.cif
_audit_creation_date              2012-12-10T17:33:42-0500
_audit_creation_method            fapswitch 2.2
_symmetry_space_group_name_H-M    P1
_symmetry_Int_Tables_number       1
_space_group_crystal_system       triclinic
_cell_length_a                    11.641151
_cell_length_b                    12.460137
_cell_length_c                    12.954019
_cell_angle_alpha                 117.105586
_cell_angle_beta                  75.924157
_cell_angle_gamma                 100.304701
_cell_volume                      1617.34249614

loop_
_atom_site_label
_atom_site_type_symbol
_atom_type_description
_atom_site_fract_x
_atom_site_fract_y
_atom_site_fract_z
_atom_type_partial_charge
C1    C     C_R   0.514786 0.855392 0.284930 0.764297
C2    C     C_R   0.468467 0.230686 0.842134 -0.153780
C3    C     C_R   0.614293 0.807082 0.077762 -0.211011
C4    C     C_R   0.635883 0.727038 0.958561 -0.179646
C5    C     C_R   0.579203 0.610880 0.919618 -0.184442
C6    C     C_R   0.504764 0.570651 0.000573 0.062556
C7    C     C_R   0.466153 0.658982 0.115815 0.047686
C8    C     C_R   0.464995 0.447014 0.971222 0.014811
C9    C     C_R   0.365771 0.420111 0.048123 0.080321
C10   C     C_R   0.309115 0.514953 0.149933 0.073351
C11   C     C_R   0.362897 0.632021 0.184524 -0.237714
C12   C     C_R   0.715464 0.999354 0.499577 0.804417
C13   C     C_R   0.525016 0.348295 0.874512 0.043054
C14   C     C_R   0.386270 0.203853 0.928215 -0.023580
C15   C     C_R   0.528679 0.774339 0.157621 -0.094747
C16   C     C_R   0.696473 0.343759 0.327659 -0.312059
C17   C     C_R   0.342938 0.764557 0.652809 0.027829
C18   C     C_R   0.328127 0.686566 0.706755 -0.024654
C19   C     C_R   0.413992 0.603728 0.665212 -0.227238
C20   C     C_R   0.483165 0.568779 0.551960 -0.032366
C21   C     C_R   0.502611 0.656250 0.507017 0.269607
C22   C     C_R   0.540172 0.456441 0.486801 -0.039127
C23   C     C_R   0.484939 0.145099 0.715294 0.761031
C24   C     C_R   0.634170 0.447990 0.391230 0.150809
C25   C     C_R   0.663586 0.542760 0.357471 -0.276558
C26   C     C_R   0.597262 0.643428 0.412187 -0.172740
C27   C     C_R   0.501723 0.348097 0.503987 0.229829
C28   C     C_R   0.662858 0.244960 0.354155 0.048658
C29   C     C_R   0.284600 0.000311 0.499962 0.810982
C30   C     C_1   0.837215 0.998719 0.499480 -0.194788
C31   C     C_1   0.940071 0.998921 0.499161 -0.012419
C32   C     C_1   0.060214 0.999534 0.498839 -0.015178
C33   C     C_1   0.163000 0.000136 0.499043 -0.196083
C34   C     C_R   0.333455 0.299408 0.028916 -0.245216
Cu1   Cu    Cu3+1 0.526510 0.098270 0.475420 0.914188
Cu2   Cu    Cu3+1 0.473490 0.901730 0.524580 0.916768
H1    H     H_    0.736097 0.537083 0.284909 0.145916
H2    H     H_    0.770613 0.338215 0.256545 0.136783
H3    H     H_    0.288689 0.840034 0.689614 0.134209
H4    H     H_    0.435195 0.575434 0.724592 0.129314
H5    H     H_    0.624738 0.710629 0.379542 0.197253
H6    H     H_    0.273931 0.279442 0.097286 0.147237
H7    H     H_    0.663468 0.894948 0.107244 0.145436
H8    H     H_    0.590098 0.555640 0.826005 0.129374
H9    H     H_    0.697446 0.754688 0.896061 0.133467
H10   H     H_    0.320584 0.703241 0.264439 0.164664
H11   H     H_    0.712288 0.165353 0.305525 0.125501
N1    N     N_R   0.566700 0.246290 0.438210 -0.187021
N2    N     N_R   0.434010 0.754320 0.561170 -0.213694
O1    O     O_R   0.533340 0.972510 0.318140 -0.571028
O2    O     O_R   0.488570 0.806530 0.359650 -0.592972
O3    O     O_R   0.685190 0.083000 0.479260 -0.573799
O4    O     O_R   0.640410 0.917020 0.520770 -0.581547
O5    O     O_R   0.511430 0.193470 0.640350 -0.594285
O6    O     O_R   0.466660 0.027490 0.681860 -0.565672
O7    O     O_R   0.359590 0.082980 0.479230 -0.584676
O8    O     O_R   0.314810 0.917000 0.520740 -0.580718
C35   C     C_R   0.379320 0.085521 0.932158 0.145557
C36   C     C_R   0.273714 0.040146 0.984328 -0.192191
C37   C     C_R   0.275793 0.947287 0.015864 -0.124672
C38   C     C_R   0.381940 0.895631 0.991563 -0.094031
C39   C     C_R   0.485562 0.935222 0.933711 -0.143825
C40   C     C_R   0.484939 0.030536 0.905703 -0.098298
H12   H     H_    0.190910 0.080296 0.005732 0.120763
H13   H     H_    0.195199 0.916009 0.060026 0.150508
H14   H     H_    0.383699 0.824507 0.016961 0.145798
H15   H     H_    0.567706 0.895248 0.913683 0.133801
H16   H     H_    0.568446 0.065098 0.868585 0.117764
C41   C     C_3   0.379753 0.338133 0.579059 -0.329748
C42   C     C_3   0.277679 0.327237 0.517971 -0.352412
C43   C     C_3   0.156968 0.329971 0.598435 -0.846172
H17   H     H_    0.146191 0.259500 0.630721 0.256222
H18   H     H_    0.148428 0.419891 0.675398 0.265853
H19   H     H_    0.084951 0.312903 0.548937 0.248499
H20   H     H_    0.280271 0.241443 0.435907 0.237714
H21   H     H_    0.287718 0.402995 0.493048 0.221382
H22   H     H_    0.368241 0.266990 0.606542 0.242408
H23   H     H_    0.365714 0.407143 0.669465 0.145900
C44   C     C_R   0.223378 0.688370 0.801430 0.132940
C45   C     C_R   0.226160 0.642419 0.882489 -0.154199
C46   C     C_R   0.126398 0.642176 0.968104 -0.161627
C47   C     C_R   0.021786 0.685990 0.973716 -0.129440
C48   C     C_R   0.016270 0.729133 0.892986 -0.138625
C49   C     C_R   0.115725 0.729919 0.807234 -0.164900
H24   H     H_    0.305376 0.609170 0.883048 0.119702
H25   H     H_    0.130449 0.608135 0.030459 0.131501
H26   H     H_    0.944590 0.685480 0.039962 0.131432
H27   H     H_    0.934454 0.761392 0.896331 0.126830
H28   H     H_    0.106866 0.761035 0.744275 0.113844
C50   C     C_3   0.192710 0.496779 0.226010 -0.419454
C51   C     C_3   0.213897 0.499501 0.339579 -0.326576
C52   C     C_3   0.096610 0.491639 0.420873 -0.861779
H29   H     H_    0.041983 0.565937 0.441628 0.257541
H30   H     H_    0.046176 0.403241 0.378434 0.254045
H31   H     H_    0.114380 0.500664 0.504958 0.250617
H32   H     H_    0.265609 0.422472 0.317073 0.211970
H33   H     H_    0.265874 0.584907 0.387778 0.234114
H34   H     H_    0.136031 0.570469 0.249085 0.192287
H35   H     H_    0.140863 0.411760 0.177413 0.186479
C53   C     C_3   0.658136 0.355749 0.822813 -0.356367
C54   C     C_3   0.735437 0.405515 0.918216 -0.361692
C55   C     C_3   0.867382 0.398119 0.863280 -0.851750
H36   H     H_    0.887029 0.302849 0.803519 0.253407
H37   H     H_    0.893739 0.453162 0.812524 0.269445
H38   H     H_    0.920792 0.433311 0.934039 0.241861
H39   H     H_    0.720071 0.501250 0.979422 0.235752
H40   H     H_    0.712124 0.351943 0.970550 0.218195
H41   H     H_    0.686313 0.263566 0.760991 0.190596
H42   H     H_    0.680656 0.404519 0.766886 0.192443

loop_
_geom_bond_atom_site_label_1
_geom_bond_atom_site_label_2
_ccdc_geom_bond_type
C27   N1    A    
C16   C28   A    
C21   C26   A    
C28   H11   S    
C54   H40   S    
C54   C55   S    
C41   H22   S    
C19   C20   A    
C34   H6    S    
C21   N2    A    
C46   C47   A    
C7    C11   A    
C3    H7    S    
C36   H12   S    
C39   C40   A    
C39   H15   S    
C53   H42   S    
C30   C31   T    
C47   H26   S    
C29   C33   S    
C54   H39   S    
C55   H38   S    
C18   C19   A    
C17   H3    S    
C2    C13   A    
C52   H29   S    
Cu2   O4    S    
C25   H1    S    
C51   H32   S    
C38   H14   S    
Cu1   Cu2   S    
C8    C9    A    
C42   C43   S    
C1    C15   S    
C1    O1    A    
C12   O4    A    
C27   C41   S    
C38   C39   A    
C7    C15   A    
C48   H27   S    
C36   C37   A    
C16   C24   A    
Cu1   O5    S    
C44   C49   A    
C41   H23   S    
C41   C42   S    
Cu1   N1    S    
C12   O3    A    
C4    H9    S    
C14   C35   S    
C53   H41   S    
C24   C25   A    
Cu2   O8    S    
C19   H4    S    
C17   N2    A    
C51   C52   S    
C43   H18   S    
C18   C44   S    
C6    C8    A    
C35   C36   A    
C52   H31   S    
C37   C38   A    
C45   H24   S    
C48   C49   A    
Cu1   O1    S    
C52   H30   S    
C17   C18   A    
C51   H33   S    
C55   H37   S    
C1    O2    A    
Cu2   O2    S    
C5    H8    S    
C20   C22   A    
C37   H13   S    
C22   C27   A    
C42   H21   S    
C9    C34   A    
C22   C24   A    
C49   H28   S    
C3    C4    A    
C50   H35   S    
C42   H20   S    
C3    C15   A    
C23   O5    A    
C9    C10   A    
C35   C40   A    
C40   H16   S    
C28   N1    A    
C12   C30   S    
Cu1   O7    S    
C31   C32   S    
C46   H25   S    
C29   O8    A    
C45   C46   A    
C14   C34   A    
C43   H19   S    
C23   O6    A    
C6    C7    A    
C29   O7    A    
C32   C33   T    
C13   C53   S    
C25   C26   A    
C43   H17   S    
Cu2   O6    S    
Cu1   O3    S    
C50   C51   S    
C5    C6    A    
C53   C54   S    
C55   H36   S    
C2    C14   A    
C10   C11   A    
C44   C45   A    
C8    C13   A    
C4    C5    A    
C20   C21   A    
C10   C50   S    
C47   C48   A    
C2    C23   S    
C11   H10   S    
C50   H34   S    
Cu2   N2    S    
C26   H5    S    
C16   H2    S    
