data_mof_unit_23390.cif
_audit_creation_date              2013-03-05T15:49:45-0500
_audit_creation_method            fapswitch 2.2
_symmetry_space_group_name_H-M    P1
_symmetry_Int_Tables_number       1
_space_group_crystal_system       triclinic
_cell_length_a                    12.081354
_cell_length_b                    12.653474
_cell_length_c                    13.047409
_cell_angle_alpha                 85.620169
_cell_angle_beta                  114.39732
_cell_angle_gamma                 93.795007
_cell_volume                      1809.8393125

loop_
_atom_site_label
_atom_site_type_symbol
_atom_site_description
_atom_site_fract_x
_atom_site_fract_y
_atom_site_fract_z
_atom_type_partial_charge
O1    O     O_R   0.579910 0.341070 0.505280 -0.662255
O2    O     O_R   0.388440 0.353740 0.492580 -0.611462
C1    C     C_R   0.469585 0.303306 0.476531 0.866230
O3    O     O_R   0.643280 0.490550 0.663120 -0.568319
O4    O     O_R   0.451810 0.503220 0.650420 -0.643684
C2    C     C_R   0.568616 0.496226 0.710164 0.850074
Zn1   Zn    Zn3+2 0.627850 0.491540 0.508480 0.988954
Zn2   Zn    Zn3+2 0.372150 0.508460 0.491520 1.031395
O5    O     O_R   0.611560 0.646260 0.507420 -0.612361
O6    O     O_R   0.420090 0.658930 0.494720 -0.522897
O7    O     O_R   0.548190 0.496780 0.349580 -0.585580
O8    O     O_R   0.356720 0.509450 0.336880 -0.575331
C3    C     C_R   0.525560 0.701621 0.509583 0.905477
C4    C     C_R   0.431017 0.500961 0.290039 0.909304
C5    C     C_R   0.269004 0.596022 0.986176 -0.045439
C6    C     C_R   0.384986 0.505542 0.166461 -0.162474
C7    C     C_R   0.721913 0.436756 0.903298 -0.147618
C8    C     C_R   0.756019 0.424519 0.020691 0.473060
C9    C     C_R   0.678176 0.457697 0.067198 -0.053945
C10   C     C_R   0.565978 0.506045 0.995360 -0.070442
C11   C     C_R   0.549144 0.538804 0.884635 0.043977
C12   C     C_R   0.468701 0.523115 0.027074 0.070301
C13   C     C_R   0.369868 0.587770 0.957143 0.057281
C14   C     C_R   0.374114 0.640819 0.859777 0.421878
C15   C     C_R   0.463457 0.615771 0.824977 -0.217119
C16   C     C_R   0.463451 0.472872 0.123614 -0.218310
C17   C     C_R   0.277346 0.555308 0.093382 -0.077065
C18   C     C_R   0.617254 0.494015 0.834657 -0.167980
H1    H     H_    0.523227 0.410512 0.171043 0.132809
H2    H     H_    0.465521 0.657048 0.749944 0.132736
C19   C     C_R   0.539735 0.817500 0.514734 -0.281593
C20   C     C_R   0.440213 0.196857 0.433301 -0.166818
C21   C     C_R   0.318355 0.034097 0.412163 -0.119905
C22   C     C_R   0.325575 0.145431 0.410052 -0.116872
C23   C     C_R   0.531541 0.141383 0.422067 -0.107649
C24   C     C_R   0.534447 0.032527 0.450108 0.082314
C25   C     C_R   0.428076 0.978983 0.450767 0.065951
C26   C     C_R   0.435944 0.874256 0.495365 0.058732
C27   C     C_R   0.649438 0.873319 0.528438 -0.050155
C28   C     C_R   0.644958 0.980525 0.493687 -0.084875
H3    H     H_    0.729407 0.024964 0.508862 0.218287
N1    N     N_R   0.798200 0.480260 0.519790 -0.112945
N2    N     N_R   0.201820 0.519740 0.480210 -0.153037
C29   C     C_R   0.012468 0.609038 0.395888 -0.209590
C30   C     C_R   0.131532 0.592909 0.404177 0.619063
C31   C     C_R   0.157111 0.453671 0.544350 -0.007431
C32   C     C_R   0.032096 0.455132 0.527055 0.070945
C33   C     C_R   0.962915 0.541317 0.461969 -0.079024
C34   C     C_R   0.847332 0.555354 0.465921 0.062827
C35   C     C_R   0.859055 0.391731 0.570924 -0.031350
C36   C     C_R   0.974091 0.375116 0.573908 -0.050804
H4    H     H_    0.815348 0.331316 0.606413 0.133236
C37   C     C_2   0.171381 0.551297 0.124471 0.482158
H5    H     H_    0.160688 0.486715 0.179646 0.129792
O9    O     O_2   0.094597 0.618489 0.089176 -0.501339
C38   C     C_2   0.769642 0.825945 0.593304 0.416254
H6    H     H_    0.776602 0.750363 0.640211 0.093125
O10   O     O_2   0.863492 0.872544 0.598431 -0.545439
C39   C     C_2   0.197832 0.977044 0.364184 0.509838
H7    H     H_    0.120528 0.003850 0.375570 0.051093
O11   O     O_2   0.183112 0.900763 0.307401 -0.503679
C40   C     C_2   0.213296 0.206339 0.374561 0.455354
H8    H     H_    0.141993 0.179204 0.401337 0.112444
O12   O     O_2   0.197882 0.285790 0.311655 -0.553775
C41   C     C_2   0.613806 0.196199 0.372965 0.440503
H9    H     H_    0.607615 0.280376 0.349924 0.098028
O13   O     O_2   0.682812 0.147260 0.348982 -0.523013
C42   C     C_2   0.786754 0.656596 0.422634 0.480602
H10   H     H_    0.836919 0.729645 0.454337 0.065364
O14   O     O_2   0.686649 0.661054 0.344663 -0.520104
C43   C     C_2   0.943044 0.694143 0.315043 0.392417
H11   H     H_    0.973325 0.776413 0.330547 0.125014
O15   O     O_2   0.855951 0.672628 0.228224 -0.532215
C44   C     C_2   0.020065 0.267131 0.613383 0.480854
H12   H     H_    0.000325 0.223859 0.679389 0.077357
O16   O     O_2   0.072807 0.222700 0.567692 -0.585420
O17   O     O_3   0.182765 0.651082 0.339618 -0.672118
H13   H     H_    0.122263 0.695212 0.279732 0.375037
O18   O     O_3   0.291391 0.717127 0.799982 -0.755102
H14   H     H_    0.299025 0.737516 0.728504 0.354915
C45   C     C_2   0.244007 0.391873 0.641641 0.516964
H15   H     H_    0.308651 0.342978 0.632158 0.112518
O19   O     O_2   0.244785 0.396307 0.735122 -0.614159
C46   C     C_2   0.152609 0.637318 0.901239 0.656611
H16   H     H_    0.103109 0.595693 0.824663 0.059335
O20   O     O_2   0.115658 0.721010 0.913185 -0.453748
C47   C     C_2   0.795053 0.386385 0.854583 0.406568
H17   H     H_    0.792281 0.300704 0.852302 0.064798
O21   O     O_2   0.863508 0.440248 0.822536 -0.561955
C48   C     C_2   0.725835 0.456490 0.192115 0.513368
H18   H     H_    0.700533 0.517457 0.230895 0.129212
O22   O     O_2   0.790775 0.386675 0.252538 -0.493794
O23   O     O_3   0.865142 0.380702 0.092868 -0.685007
H19   H     H_    0.922323 0.382754 0.056075 0.340751
C49   C     C_2   0.364340 0.840496 0.561833 0.380406
H20   H     H_    0.401948 0.857050 0.650357 0.039036
O24   O     O_2   0.265204 0.794676 0.519482 -0.539349

loop_
_geom_bond_atom_site_label_1
_geom_bond_atom_site_label_2
_geom_bond_distance
_ccdc_geom_bond_type
C47   H17   1.084759 S    
O23   H19   0.988970 S    
C34   C42   1.472364 S    
C49   H20   1.084064 S    
C36   C44   1.482365 S    
C45   H15   1.078656 S    
C37   H5    1.084312 S    
Zn1   O7    1.888917 S    
C40   H8    1.083131 S    
C44   O16   1.220615 D    
C24   C25   1.415477 A    
C46   O20   1.220784 D    
O4    C2    1.305420 A    
O7    C4    1.305895 A    
C23   C41   1.498734 S    
C22   C40   1.487749 S    
C38   H6    1.083983 S    
C29   C43   1.480193 S    
C8    C9    1.411221 A    
Zn1   N1    2.015571 S    
O5    C3    1.301781 A    
C40   O12   1.221264 D    
C48   O22   1.221415 D    
C2    C18   1.480262 S    
C32   C33   1.414874 A    
C38   O10   1.221720 D    
C42   H10   1.081630 S    
C41   O13   1.220598 D    
C26   C49   1.482296 S    
C35   H4    1.082644 S    
C13   C14   1.409290 A    
Zn2   N2    2.015331 S    
C6    C17   1.410370 A    
C5    C13   1.429521 A    
C39   H7    1.083323 S    
C21   C39   1.486633 S    
C7    C47   1.480359 S    
O3    Zn1   1.947191 S    
C45   O19   1.221383 D    
C21   C22   1.404548 A    
C37   O9    1.219489 D    
C6    C16   1.380965 A    
C39   O11   1.220591 D    
C44   H12   1.085697 S    
C20   C23   1.408346 A    
C24   C28   1.403871 A    
C14   C15   1.394213 A    
O3    C2    1.291626 A    
C27   C28   1.394341 A    
C43   O15   1.220217 D    
C32   C36   1.433653 A    
C35   C36   1.403561 A    
O17   H13   0.985993 S    
C21   C25   1.419277 A    
O1    C1    1.294459 A    
C23   C24   1.396829 A    
C20   C22   1.413301 A    
C25   C26   1.398889 A    
C31   C45   1.476853 S    
C14   O18   1.381426 S    
C5    C17   1.418606 A    
C27   C38   1.485589 S    
Zn2   O8    1.947192 S    
C17   C37   1.491065 S    
C7    C8    1.410893 A    
C46   H16   1.085520 S    
N2    C30   1.352870 A    
N1    C35   1.352828 A    
C42   O14   1.218445 D    
C33   C34   1.441470 A    
C11   C18   1.408884 A    
C10   C12   1.431098 A    
C47   O21   1.221002 D    
C4    C6    1.470242 S    
C29   C30   1.424599 A    
C15   H2    1.082674 S    
Zn1   O5    1.978967 S    
C11   C15   1.406419 A    
C31   C32   1.433142 A    
C28   H3    1.081892 S    
O1    Zn1   1.951533 S    
C7    C18   1.418600 A    
C3    C19   1.468357 S    
O2    Zn2   1.978967 S    
O8    C4    1.291019 A    
O6    C3    1.293750 A    
O4    Zn2   1.888916 S    
C49   O24   1.219111 D    
C5    C46   1.483241 S    
C19   C26   1.407714 A    
C9    C10   1.436237 A    
O2    C1    1.298079 A    
C43   H11   1.085849 S    
C9    C48   1.486680 S    
C48   H18   1.078515 S    
C19   C27   1.409619 A    
C1    C20   1.464840 S    
N2    C31   1.377602 A    
N1    C34   1.384637 A    
O18   H14   0.987920 S    
C10   C11   1.406147 A    
C16   H1    1.076454 S    
Zn2   O6    1.951531 S    
C41   H9    1.083310 S    
C12   C16   1.390366 A    
C8    O23   1.386961 S    
C12   C13   1.429268 A    
C30   O17   1.382077 S    
C29   C33   1.442813 A    
