data_mof_unit_5318.cif
_audit_creation_date              2012-12-10T19:11:33-0500
_audit_creation_method            fapswitch 2.2
_symmetry_space_group_name_H-M    P1
_symmetry_Int_Tables_number       1
_space_group_crystal_system       triclinic
_cell_length_a                    7.78369
_cell_length_b                    9.096556
_cell_length_c                    17.272258
_cell_angle_alpha                 90.00692
_cell_angle_beta                  86.518014
_cell_angle_gamma                 90.002023
_cell_volume                      1220.700629

loop_
_atom_site_label
_atom_site_type_symbol
_atom_type_description
_atom_site_fract_x
_atom_site_fract_y
_atom_site_fract_z
_atom_type_partial_charge
C1    C     C_R   0.500003 0.779980 0.499991 0.850540
C2    C     C_R   0.499997 0.220020 0.500009 0.850492
C3    C     C_1   0.500003 0.934634 0.499998 -0.170130
C4    C     C_1   0.499997 0.065366 0.500002 -0.170118
C5    C     C_R   0.478767 0.503723 0.650477 0.790209
C6    C     C_R   0.521233 0.496232 0.349526 0.790198
C7    C     C_R   0.470526 0.518776 0.734910 -0.031200
C8    C     C_R   0.529468 0.480974 0.265105 -0.031178
C9    C     C_R   0.620227 0.556570 0.771871 -0.188540
C10   C     C_R   0.379895 0.442563 0.228206 -0.188643
C11   C     C_R   0.614928 0.572826 0.851805 -0.174602
C12   C     C_R   0.385181 0.426085 0.148285 -0.174474
C13   C     C_R   0.460712 0.549244 0.895754 0.180970
C14   C     C_R   0.539242 0.450063 0.104289 0.181089
C15   C     C_R   0.309936 0.514599 0.859422 -0.102293
C16   C     C_R   0.689912 0.485311 0.140561 -0.102629
C17   C     C_R   0.314588 0.499839 0.779011 -0.199283
C18   C     C_R   0.685285 0.500282 0.220962 -0.199242
C19   C     C_2   0.460346 0.553850 0.980569 -0.159205
C20   C     C_2   0.539482 0.445373 0.019483 -0.159334
Cu1   Cu    Cu3+1 0.330920 0.500000 0.500000 1.005404
Cu2   Cu    Cu3+1 0.669080 0.500000 0.500000 1.005419
H1    H     H_    0.190232 0.496479 0.893423 0.140950
H2    H     H_    0.809494 0.503754 0.106521 0.140937
H3    H     H_    0.268524 0.398216 0.120369 0.145401
H4    H     H_    0.731673 0.600239 0.879765 0.145285
H5    H     H_    0.741607 0.573871 0.739074 0.162561
H6    H     H_    0.258630 0.424942 0.261043 0.162591
H7    H     H_    0.802299 0.528785 0.248365 0.155599
H8    H     H_    0.197478 0.471806 0.751567 0.155586
N1    N     N_1   0.923170 0.500000 0.500010 -0.051362
N2    N     N_1   0.076830 0.500000 0.499990 -0.051365
O1    O     O_R   0.357240 0.711600 0.500000 -0.575102
O2    O     O_R   0.642760 0.288400 0.500000 -0.575115
O3    O     O_R   0.642760 0.711600 0.500000 -0.576881
O4    O     O_R   0.357240 0.288400 0.500000 -0.576905
O5    O     O_R   0.340660 0.500000 0.613590 -0.585533
O6    O     O_R   0.659340 0.500000 0.386410 -0.585505
O7    O     O_R   0.626230 0.500000 0.613600 -0.589739
O8    O     O_R   0.373770 0.500000 0.386400 -0.589729
C21   C     C_2   0.621687 0.315493 0.979588 0.404768
H9    H     H_    0.616005 0.299511 0.917605 0.084142
O9    O     O_2   0.695967 0.222955 0.016386 -0.516409
C22   C     C_2   0.377949 0.683632 0.020485 0.404718
H10   H     H_    0.383350 0.699470 0.082490 0.084148
O10   O     O_2   0.303777 0.776235 0.983685 -0.516490

loop_
_geom_bond_atom_site_label_1
_geom_bond_atom_site_label_2
_ccdc_geom_bond_type
C2    C4    S    
C6    O6    A    
C17   H8    S    
C5    O5    A    
C9    C11   A    
C21   H9    S    
C21   O9    D    
C19   C20   D    
C12   H3    S    
C2    O2    A    
C15   H1    S    
C20   C21   S    
C1    O1    A    
C16   H2    S    
C18   H7    S    
Cu1   Cu2   S    
C19   C22   S    
Cu2   O3    S    
C11   C13   A    
C9    H5    S    
Cu1   O8    S    
C10   C12   A    
Cu2   O7    S    
C8    C10   A    
C12   C14   A    
C6    O8    A    
C13   C15   A    
Cu2   O2    S    
Cu1   N2    S    
C14   C16   A    
Cu1   O1    S    
Cu2   N1    S    
C13   C19   S    
C10   H6    S    
C3    C4    T    
Cu2   O6    S    
C7    C9    A    
Cu1   O5    S    
C22   H10   S    
C1    O3    A    
C14   C20   S    
C15   C17   A    
C2    O4    A    
Cu1   O4    S    
C5    O7    A    
C5    C7    S    
C6    C8    S    
C11   H4    S    
C1    C3    S    
C16   C18   A    
C8    C18   A    
N1    N2    T    
C22   O10   D    
C7    C17   A    
