data_mof_unit_55883.cif
_audit_creation_date              2012-12-10T18:20:00-0500
_audit_creation_method            fapswitch 2.2
_symmetry_space_group_name_H-M    P1
_symmetry_Int_Tables_number       1
_space_group_crystal_system       triclinic
_cell_length_a                    10.618494
_cell_length_b                    10.620238
_cell_length_c                    9.420334
_cell_angle_alpha                 89.675004
_cell_angle_beta                  89.375818
_cell_angle_gamma                 89.715517
_cell_volume                      1062.2469594

loop_
_atom_site_label
_atom_site_type_symbol
_atom_type_description
_atom_site_fract_x
_atom_site_fract_y
_atom_site_fract_z
_atom_type_partial_charge
C1    C     C_R   0.501326 0.259649 0.500406 0.796481
C2    C     C_R   0.498673 0.740351 0.499593 0.796481
C3    C     C_3   0.408285 0.958569 0.590021 -0.247136
C4    C     C_3   0.591715 0.041431 0.409979 -0.247136
C5    C     C_3   0.473930 0.610866 0.050012 -0.041548
C6    C     C_3   0.526070 0.389134 0.949987 -0.041548
C7    C     C_3   0.391083 0.533329 0.950572 -0.045477
C8    C     C_3   0.608917 0.466671 0.049428 -0.045477
C9    C     C_3   0.582941 0.577491 0.947930 -0.027201
C10   C     C_3   0.417059 0.422509 0.052070 -0.027201
C11   C     C_R   0.259683 0.498045 0.500759 0.791472
C12   C     C_R   0.740317 0.501955 0.499241 0.791472
C13   C     C_3   0.036693 0.457718 0.624125 0.346995
C14   C     C_3   0.963307 0.542282 0.375875 0.346995
C15   C     C_3   0.955949 0.381717 0.521280 -0.263544
C16   C     C_3   0.044051 0.618283 0.478720 -0.263544
C17   C     C_3   0.876810 0.502059 0.498127 -0.077465
C18   C     C_3   0.123190 0.497941 0.501873 -0.077466
C19   C     C_3   0.956500 0.577199 0.603986 -0.210596
C20   C     C_3   0.043500 0.422801 0.396014 -0.210596
C21   C     C_3   0.522968 0.039608 0.634007 -0.191652
C22   C     C_3   0.477032 0.960391 0.365992 -0.191653
C23   C     C_3   0.609670 0.956997 0.541328 0.322555
C24   C     C_3   0.390330 0.043003 0.458672 0.322556
C25   C     C_3   0.497788 0.876919 0.498559 -0.081460
C26   C     C_3   0.502212 0.123081 0.501441 -0.081460
Cu1   Cu    Cu3+1 0.500030 0.499990 0.643150 0.931791
Cu2   Cu    Cu3+1 0.499970 0.500010 0.356850 0.931791
H1    H     H_    0.917742 0.285983 0.540689 0.136470
H2    H     H_    0.082258 0.714017 0.459311 0.136470
N1    N     N_3   0.500090 0.499970 0.858290 -0.155199
N2    N     N_3   0.499910 0.500030 0.141710 -0.155199
O1    O     O_R   0.500060 0.316850 0.620870 -0.595654
O2    O     O_R   0.499940 0.683150 0.379130 -0.595654
O3    O     O_R   0.500000 0.316860 0.379090 -0.571529
O4    O     O_R   0.500000 0.683140 0.620910 -0.571529
O5    O     O_R   0.316880 0.499960 0.620870 -0.582657
O6    O     O_R   0.683120 0.500040 0.379130 -0.582658
O7    O     O_R   0.316830 0.499970 0.379090 -0.579540
O8    O     O_R   0.683170 0.500030 0.620910 -0.579540
N3    N     N_2   0.080377 0.410513 0.759437 -0.428100
H3    H     H_    0.146767 0.339901 0.749052 0.247143
C27   C     C_3   0.981492 0.379221 0.860097 -0.712810
H4    H     H_    0.023846 0.351677 0.963000 0.225242
H5    H     H_    0.925109 0.299117 0.820468 0.219884
H6    H     H_    0.918704 0.461652 0.878240 0.242577
N4    N     N_2   0.919623 0.589487 0.240563 -0.428099
H7    H     H_    0.853233 0.660098 0.250948 0.247143
C28   C     C_3   0.018508 0.620778 0.139903 -0.712810
H8    H     H_    0.976154 0.648323 0.036999 0.225242
H9    H     H_    0.081296 0.538348 0.121760 0.242577
H10   H     H_    0.074891 0.700883 0.179532 0.219884
H11   H     H_    0.918858 0.638857 0.689449 0.145803
H12   H     H_    0.081142 0.361142 0.310551 0.145803
N5    N     N_2   0.728887 0.903892 0.585557 -0.426996
H13   H     H_    0.761925 0.834574 0.518363 0.233424
C29   C     C_3   0.823982 0.995222 0.620361 -0.728108
H14   H     H_    0.908160 0.945770 0.662493 0.226124
H15   H     H_    0.788114 0.060945 0.702918 0.231932
H16   H     H_    0.852326 0.049326 0.523996 0.215818
N6    N     N_2   0.271113 0.096107 0.414444 -0.426997
H17   H     H_    0.238075 0.165426 0.481637 0.233424
C30   C     C_3   0.176018 0.004778 0.379639 -0.728108
H18   H     H_    0.091840 0.054230 0.337506 0.226124
H19   H     H_    0.147674 0.950674 0.476004 0.215819
H20   H     H_    0.211886 0.939055 0.297082 0.231932
H21   H     H_    0.543921 0.073759 0.742343 0.139938
H22   H     H_    0.456079 0.926241 0.257657 0.139938
H23   H     H_    0.332300 0.922477 0.660929 0.141486
H24   H     H_    0.667700 0.077523 0.339071 0.141486
H25   H     H_    0.299251 0.561574 0.904667 0.138640
H26   H     H_    0.700749 0.438426 0.095333 0.138640
H27   H     H_    0.451601 0.704307 0.096376 0.112002
H28   H     H_    0.548399 0.295693 0.903624 0.112002
H29   H     H_    0.652868 0.642535 0.899223 0.120896
H30   H     H_    0.347132 0.357465 0.100777 0.120896

loop_
_geom_bond_atom_site_label_1
_geom_bond_atom_site_label_2
_ccdc_geom_bond_type
C7    C10   S    
C21   C26   S    
C30   H19   S    
C11   C18   S    
C24   N6    S    
N3    H3    S    
N5    H13   S    
C4    H24   S    
C1    O1    A    
N4    C28   S    
Cu1   O1    S    
C13   C18   S    
C3    H23   S    
C24   C26   S    
C7    H25   S    
C29   H15   S    
C16   H2    S    
C11   O5    A    
N6    C30   S    
C10   H30   S    
Cu2   O3    S    
C8    C9    S    
C28   H9    S    
C22   C25   S    
C12   C17   S    
C15   H1    S    
C18   C20   S    
C5    N2    S    
C19   H11   S    
C6    N1    S    
C30   H20   S    
Cu2   O2    S    
C21   H21   S    
C12   O6    A    
N3    C27   S    
C14   C17   S    
C3    C24   S    
Cu2   N2    S    
C13   N3    S    
C6    H28   S    
C21   C23   S    
C15   C20   S    
C8    H26   S    
C7    N1    S    
C13   C19   S    
Cu1   N1    S    
C8    N2    S    
C14   C20   S    
C3    C25   S    
C20   H12   S    
C5    C7    S    
C4    C23   S    
C29   H16   S    
C6    C8    S    
Cu2   O7    S    
C12   O8    A    
C27   H4    S    
C5    C9    S    
C4    C22   S    
N4    H7    S    
Cu2   O6    S    
Cu1   O8    S    
C28   H10   S    
C11   O7    A    
C27   H5    S    
C22   H22   S    
C13   C15   S    
C1    C26   S    
C14   C16   S    
C3    C21   S    
C1    O3    A    
C2    O4    A    
C15   C17   S    
C6    C10   S    
C4    C26   S    
C23   N5    S    
C14   N4    S    
Cu1   O4    S    
N5    C29   S    
C2    O2    A    
C29   H14   S    
Cu1   O5    S    
C16   C19   S    
C17   C19   S    
C2    C25   S    
C22   C24   S    
C23   C25   S    
C5    H27   S    
N6    H17   S    
C27   H6    S    
C9    N1    S    
C30   H18   S    
C10   N2    S    
C16   C18   S    
C28   H8    S    
Cu1   Cu2   S    
C9    H29   S    
