data_mof_unit_51208.cif
_audit_creation_date              2012-12-10T16:57:47-0500
_audit_creation_method            fapswitch 2.2
_symmetry_space_group_name_H-M    P1
_symmetry_Int_Tables_number       1
_space_group_crystal_system       triclinic
_cell_length_a                    7.745697
_cell_length_b                    8.573794
_cell_length_c                    19.186371
_cell_angle_alpha                 90.860106
_cell_angle_beta                  86.036956
_cell_angle_gamma                 93.670329
_cell_volume                      1268.44144012

loop_
_atom_site_label
_atom_site_type_symbol
_atom_type_description
_atom_site_fract_x
_atom_site_fract_y
_atom_site_fract_z
_atom_type_partial_charge
C1    C     C_R   0.545885 0.794829 0.498181 0.972703
C2    C     C_R   0.638876 0.486977 0.175808 -0.216898
C3    C     C_R   0.515803 0.485363 0.854486 0.077705
C4    C     C_R   0.483952 0.511340 0.145467 0.077670
C5    C     C_R   0.669407 0.461594 0.812393 0.126945
C6    C     C_R   0.330405 0.535782 0.187485 0.126938
C7    C     C_R   0.663126 0.467730 0.739928 -0.228789
C8    C     C_R   0.336760 0.530814 0.259979 -0.228849
C9    C     C_R   0.507699 0.494623 0.709998 -0.053432
C10   C     C_R   0.492212 0.504407 0.289990 -0.053427
C11   C     C_R   0.488718 0.507491 0.070027 0.276597
C12   C     C_R   0.454115 0.205171 0.501820 0.972650
C13   C     C_R   0.511210 0.488794 0.929924 0.276566
C14   C     C_3   0.838666 0.425538 0.842307 -0.449391
C15   C     C_3   0.827580 0.261577 0.874000 -0.335420
C16   C     C_3   0.997646 0.226642 0.904444 -0.845471
C17   C     C_3   0.161163 0.571405 0.157451 -0.449326
C18   C     C_3   0.172216 0.735022 0.125411 -0.335455
C19   C     C_3   0.002310 0.769376 0.094691 -0.845134
C20   C     C_2   0.570099 0.958270 0.497141 -0.383135
C21   C     C_2   0.429901 0.041730 0.502862 -0.383087
C22   C     C_R   0.502409 0.499166 0.634447 0.869518
C23   C     C_R   0.497577 0.500713 0.365552 0.869550
C24   C     C_R   0.356590 0.514795 0.752489 -0.201284
C25   C     C_R   0.643237 0.483475 0.247557 -0.201196
C26   C     C_R   0.360868 0.510118 0.824225 -0.216828
H1    H     H_    0.235152 0.535364 0.730441 0.157062
H2    H     H_    0.986047 0.617126 0.552464 0.189402
H3    H     H_    0.105287 0.231573 0.863010 0.266337
H4    H     H_    0.028214 0.312548 0.946438 0.273058
H5    H     H_    0.985709 0.107701 0.927098 0.250466
H6    H     H_    0.722403 0.250742 0.916290 0.233677
H7    H     H_    0.798195 0.172972 0.832871 0.226487
H8    H     H_    0.945847 0.431195 0.800569 0.193448
H9    H     H_    0.875577 0.515523 0.881602 0.216987
H10   H     H_    0.972137 0.682996 0.052835 0.273034
H11   H     H_    0.894431 0.764728 0.136023 0.266410
H12   H     H_    0.764683 0.463200 0.269662 0.157094
H13   H     H_    0.014228 0.888076 0.071791 0.250446
H14   H     H_    0.201214 0.824084 0.166396 0.226461
H15   H     H_    0.277628 0.745584 0.083208 0.233748
H16   H     H_    0.124332 0.480972 0.118338 0.217023
H17   H     H_    0.053953 0.566125 0.199177 0.193365
H18   H     H_    0.243259 0.528880 0.856418 0.154688
H19   H     H_    0.756452 0.467744 0.143674 0.154649
H20   H     H_    0.779316 0.449593 0.706780 0.154568
H21   H     H_    0.220623 0.549472 0.293075 0.154519
H22   H     H_    0.702480 0.009386 0.491686 0.179812
H23   H     H_    0.297520 0.990614 0.508317 0.179810
H24   H     H_    0.013953 0.382874 0.447536 0.189393
N1    N     N_R   0.625926 0.583438 0.963330 -0.184537
N2    N     N_R   0.373998 0.412831 0.036624 -0.184519
N3    N     N_R   0.615678 0.591700 0.032524 -0.190183
N4    N     N_R   0.384247 0.404570 0.967425 -0.190202
N5    N     N_2   0.950330 0.457950 0.481240 -0.177118
N6    N     N_2   0.049670 0.542050 0.518760 -0.177114
O1    O     O_R   0.389250 0.738570 0.504600 -0.611073
O2    O     O_R   0.610750 0.261430 0.495400 -0.611104
O3    O     O_R   0.678400 0.711620 0.492580 -0.628997
O4    O     O_R   0.321600 0.288380 0.507420 -0.629029
O5    O     O_R   0.355380 0.513500 0.607880 -0.621922
O6    O     O_R   0.644620 0.486500 0.392120 -0.621949
O7    O     O_R   0.644530 0.486550 0.595850 -0.630499
O8    O     O_R   0.355470 0.513450 0.404150 -0.630458
Zn1   Zn    Zn3+2 0.306930 0.517990 0.508030 0.938530
Zn2   Zn    Zn3+2 0.693070 0.482010 0.491970 0.938508

loop_
_geom_bond_atom_site_label_1
_geom_bond_atom_site_label_2
_ccdc_geom_bond_type
C14   H8    S    
C2    C4    A    
N5    N6    D    
C17   H17   S    
C9    C24   A    
C1    O1    A    
C10   C23   S    
C3    C26   A    
H24   N5    S    
C11   N3    A    
C24   H1    S    
C4    C11   S    
O8    Zn1   S    
C21   H23   S    
C17   C18   S    
H2    N6    S    
O7    Zn2   S    
C26   H18   S    
C15   H6    S    
C2    H19   S    
C13   N1    A    
C16   H5    S    
O2    Zn2   S    
C5    C14   S    
C20   H22   S    
C19   H13   S    
C12   O2    A    
C10   C25   A    
C4    C6    A    
C23   O8    A    
N2    N4    A    
O4    Zn1   S    
C18   C19   S    
C2    C25   A    
C5    C7    A    
C19   H10   S    
C1    O3    A    
O3    Zn2   S    
C25   H12   S    
C9    C22   S    
C8    H21   S    
O6    Zn2   S    
N1    N3    A    
C16   H4    S    
C15   C16   S    
C12   O4    A    
C7    H20   S    
O5    Zn1   S    
N5    Zn2   S    
C20   C21   D    
C16   H3    S    
C8    C10   A    
C13   N4    A    
C18   H15   S    
O1    Zn1   S    
C14   H9    S    
C7    C9    A    
C6    C17   S    
C18   H14   S    
C17   H16   S    
C1    C20   S    
C6    C8    A    
C11   N2    A    
C19   H11   S    
C3    C5    A    
C22   O7    A    
C14   C15   S    
C12   C21   S    
C15   H7    S    
C23   O6    A    
N6    Zn1   S    
C24   C26   A    
C22   O5    A    
C3    C13   S    
