data_mof_unit_49334.cif
_audit_creation_date              2012-12-11T14:23:14-0500
_audit_creation_method            fapswitch 2.2
_symmetry_space_group_name_H-M    P1
_symmetry_Int_Tables_number       1
_space_group_crystal_system       triclinic
_cell_length_a                    11.053249
_cell_length_b                    11.18847
_cell_length_c                    18.594381
_cell_angle_alpha                 89.40939
_cell_angle_beta                  87.956
_cell_angle_gamma                 60.313565
_cell_volume                      1996.3863347

loop_
_atom_site_label
_atom_site_type_symbol
_atom_type_description
_atom_site_fract_x
_atom_site_fract_y
_atom_site_fract_z
_atom_type_partial_charge
C1    C     C_R   0.221388 0.650667 0.603964 0.541310
C2    C     C_R   0.532946 0.252585 0.729568 -0.035022
C3    C     C_R   0.550177 0.246199 0.803131 -0.046652
C4    C     C_R   0.631079 0.592742 0.609247 0.559095
C5    C     C_R   0.918234 0.163144 0.805313 -0.171336
C6    C     C_R   0.023076 0.145522 0.753581 -0.136042
C7    C     C_R   0.008325 0.126906 0.680012 0.185799
C8    C     C_R   0.891784 0.122834 0.661077 -0.100795
C9    C     C_R   0.647761 0.201255 0.681623 0.009867
C10   C     C_R   0.101198 0.706792 0.819975 0.057292
C11   C     C_R   0.147984 0.575171 0.788122 0.060911
C12   C     C_3   0.723705 0.512845 0.807716 -0.249445
C13   C     C_R   0.144712 0.565747 0.712366 0.027464
C14   C     C_R   0.070961 0.803788 0.701052 -0.177074
C15   C     C_R   0.053892 0.819674 0.775133 -0.129186
C16   C     C_R   0.620835 0.237922 0.605531 0.533141
C17   C     C_R   0.193661 0.453156 0.828042 -0.095323
C18   C     C_R   0.203039 0.337250 0.796951 -0.155708
C19   C     C_R   0.181964 0.335396 0.724240 -0.112680
C20   C     C_R   0.154605 0.447477 0.681625 -0.105181
C21   C     C_R   0.132434 0.675464 0.669835 0.002580
C22   C     C_R   0.630325 0.666215 0.160898 0.026955
C23   C     C_3   0.688416 0.664694 0.817974 0.017878
C24   C     C_R   0.676646 0.530733 0.183067 0.017070
C25   C     C_R   0.698763 0.501585 0.257243 -0.024793
C26   C     C_R   0.559498 0.746938 0.282715 -0.118663
C27   C     C_R   0.568062 0.773954 0.210720 -0.176014
C28   C     C_R   0.223068 0.649965 0.401104 0.514706
C29   C     C_R   0.723809 0.421292 0.132590 0.288593
C30   C     C_R   0.829897 0.292521 0.151642 -0.075407
C31   C     C_R   0.870284 0.267617 0.222377 -0.197189
C32   C     C_R   0.797908 0.366155 0.275877 -0.127099
C33   C     C_R   0.628562 0.611559 0.308034 0.004156
C34   C     C_3   0.651832 0.620988 0.684473 -0.019513
C35   C     C_R   0.679292 0.074889 0.190197 0.006685
C36   C     C_R   0.549790 0.123587 0.228683 -0.021992
C37   C     C_R   0.552660 0.108762 0.304061 0.029682
C38   C     C_R   0.789280 0.068516 0.302347 -0.154152
C39   C     C_R   0.800352 0.034641 0.229485 -0.160077
C40   C     C_R   0.618696 0.589068 0.385841 0.550238
C41   C     C_R   0.417641 0.193201 0.196975 -0.109688
C42   C     C_R   0.296196 0.230266 0.237808 -0.205836
C43   C     C_R   0.303335 0.194198 0.309645 -0.112625
C44   C     C_R   0.431669 0.119044 0.340967 0.264319
C45   C     C_3   0.756526 0.675090 0.686292 -0.262032
C46   C     C_R   0.661523 0.118842 0.338691 0.047904
C47   C     C_R   0.165659 0.659425 0.179127 0.012593
C48   C     C_R   0.213286 0.740746 0.211417 0.024883
C49   C     C_R   0.181386 0.770630 0.284641 0.019613
C50   C     C_R   0.143374 0.575273 0.296548 -0.137733
C51   C     C_R   0.132883 0.574843 0.222199 -0.148732
C52   C     C_R   0.622678 0.215808 0.400355 0.557401
C53   C     C_R   0.265425 0.813751 0.170590 -0.059444
C54   C     C_R   0.250502 0.935964 0.197302 -0.133140
C55   C     C_R   0.193625 0.979303 0.266146 -0.132100
C56   C     C_3   0.712132 0.485688 0.728173 -0.242168
C57   C     C_R   0.161553 0.897482 0.310120 -0.071679
C58   C     C_R   0.167206 0.673995 0.328834 0.002471
C59   C     C_R   0.702160 0.107196 0.897787 0.562423
C60   C     C_R   0.721400 0.685714 0.890690 0.614763
C61   C     C_R   0.064059 0.736816 0.897045 0.545323
C62   C     C_R   0.697072 0.047368 0.111994 0.577202
C63   C     C_R   0.691844 0.689962 0.095678 0.605834
C64   C     C_3   0.529769 0.766279 0.799959 0.394282
C65   C     C_R   0.097324 0.706463 0.110632 0.544150
C66   C     C_3   0.512950 0.732286 0.720564 -0.076507
C67   C     C_R   0.683246 0.186964 0.830863 0.010391
C68   C     C_3   0.791771 0.681676 0.764775 -0.267408
C69   C     C_2   0.395469 0.705341 0.713591 0.324407
C70   C     C_R   0.795258 0.167228 0.783287 -0.021863
C71   C     C_R   0.779319 0.159306 0.708776 -0.036703
Cr1   Cr    Cr6+3 0.392940 0.397950 0.502230 1.112993
Cr2   Cr    Cr6+3 0.398400 0.708500 0.501260 1.136925
Cr3   Cr    Cr6+3 0.708640 0.393530 0.496460 1.072428
Cr4   Cr    Cr6+3 0.937880 0.938320 0.007620 1.044012
Cr5   Cr    Cr6+3 0.625560 0.937220 0.994510 1.114811
Cr6   Cr    Cr6+3 0.938080 0.625010 0.001190 1.027778
H1    H     H_    0.817625 0.412021 0.705605 0.163594
H2    H     H_    0.228245 0.441547 0.882424 0.148270
H3    H     H_    0.010581 0.918752 0.798747 0.169436
H4    H     H_    0.231577 0.247549 0.829197 0.167270
H5    H     H_    0.198805 0.242975 0.699810 0.242955
H6    H     H_    0.138875 0.442211 0.625047 0.188149
H7    H     H_    0.508202 0.833318 0.318971 0.205865
H8    H     H_    0.532716 0.879110 0.194651 0.133317
H9    H     H_    0.881562 0.211687 0.111854 0.168848
H10   H     H_    0.952268 0.168074 0.236419 0.119996
H11   H     H_    0.829609 0.335011 0.329918 0.179465
H12   H     H_    0.898189 0.594728 0.773026 0.136905
H13   H     H_    0.876709 0.063633 0.329041 0.113479
H14   H     H_    0.402543 0.231022 0.142755 0.186402
H15   H     H_    0.901828 0.990146 0.202416 0.149111
H16   H     H_    0.196102 0.283311 0.213089 0.116540
H17   H     H_    0.208442 0.222536 0.341034 0.143343
H18   H     H_    0.129193 0.501747 0.328840 0.147425
H19   H     H_    0.303571 0.784386 0.115537 0.190445
H20   H     H_    0.092473 0.514280 0.198785 0.136990
H21   H     H_    0.483844 0.823432 0.686328 0.180101
H22   H     H_    0.277056 0.999635 0.163595 0.125747
H23   H     H_    0.854142 0.606564 0.654919 0.157809
H24   H     H_    0.166644 0.079388 0.284750 0.121868
H25   H     H_    0.113273 0.938737 0.362366 0.169643
H26   H     H_    0.801629 0.773545 0.775014 0.168365
H27   H     H_    0.711652 0.778983 0.661834 0.164676
H28   H     H_    0.832388 0.440794 0.823295 0.150604
H29   H     H_    0.658114 0.486062 0.842717 0.223182
H30   H     H_    0.648627 0.435420 0.723847 0.186253
H31   H     H_    0.315256 0.044450 0.887738 0.348090
H32   H     H_    0.094333 0.963520 0.545806 0.330606
H33   H     H_    0.376629 0.587043 0.908321 0.373134
H34   H     H_    0.429637 0.299094 0.709718 0.180208
H35   H     H_    0.542447 0.348435 0.995013 0.351557
H36   H     H_    0.294359 0.794693 0.710264 0.173831
H37   H     H_    0.590221 0.895525 0.495403 0.379457
H38   H     H_    0.932683 0.175535 0.861451 0.169993
H39   H     H_    0.461153 0.273603 0.838760 0.149694
H40   H     H_    0.114746 0.142530 0.772346 0.174564
H41   H     H_    0.889826 0.088045 0.607538 0.147985
H42   H     H_    0.059800 0.885437 0.667932 0.128615
O1    O     O_R   0.507340 0.255690 0.581430 -0.462919
O2    O     O_R   0.837290 0.593240 0.915240 -0.513699
O3    O     O_R   0.065320 0.635310 0.931580 -0.538287
O4    O     O_R   0.280360 0.527380 0.578910 -0.501527
O5    O     O_R   0.068470 0.828620 0.091850 -0.538673
O6    O     O_R   0.799150 0.057200 0.079350 -0.480760
O7    O     O_R   0.585220 0.080180 0.076770 -0.515089
O8    O     O_R   0.627170 0.809480 0.067050 -0.503957
O9    O     O_R   0.816200 0.596410 0.076500 -0.494019
O10   O     O_R   0.045770 0.638240 0.081070 -0.509141
O11   O     O_3   0.833840 0.833520 0.001110 -0.331043
O12   O     O_R   0.524510 0.695820 0.424050 -0.435041
O13   O     O_R   0.260600 0.739610 0.584580 -0.524409
O14   O     O_R   0.532370 0.695050 0.573830 -0.482790
O15   O     O_R   0.744850 0.503430 0.576380 -0.491123
O16   O     O_R   0.699080 0.276500 0.571950 -0.515987
O17   O     O_R   0.498860 0.256520 0.419860 -0.468270
O18   O     O_R   0.272490 0.528150 0.429140 -0.504428
O19   O     O_R   0.252110 0.740440 0.423010 -0.512471
O20   O     O_2   0.593707 0.973964 0.779940 -0.325433
O21   O     O_2   0.361879 0.026076 0.752141 -0.349727
O22   O     O_3   0.414748 0.018940 0.885269 -0.459483
O23   O     O_R   0.736370 0.504260 0.414810 -0.515133
O24   O     O_2   0.098862 0.252360 0.587714 -0.280789
O25   O     O_2   0.273591 0.021110 0.624548 -0.246655
O26   O     O_3   0.092316 0.049669 0.531758 -0.481588
O27   O     O_2   0.432523 0.775961 0.940815 -0.225424
O28   O     O_2   0.264561 0.859649 0.846805 -0.315012
O29   O     O_3   0.416422 0.596353 0.861433 -0.541437
O30   O     O_2   0.521773 0.580328 0.041858 -0.297750
O31   O     O_2   0.752459 0.417724 0.988629 -0.296393
O32   O     O_3   0.596055 0.323062 0.039551 -0.507267
O33   O     O_2   0.410780 0.589717 0.715884 -0.522145
O34   O     O_R   0.691220 0.277270 0.422180 -0.534536
O35   O     O_2   0.365906 0.150036 0.483797 -0.192547
O36   O     O_2   0.350141 0.970056 0.421033 -0.269698
O37   O     O_3   0.598275 0.929061 0.446935 -0.546924
O38   O     O_3   0.499990 0.499990 0.499980 -0.315733
O39   O     O_R   0.089570 0.825450 0.930590 -0.435549
O40   O     O_R   0.818700 0.054260 0.929860 -0.511443
O41   O     O_R   0.606310 0.077010 0.915520 -0.432708
O42   O     O_R   0.646730 0.806540 0.917560 -0.392417
S1    S     S_3+6 0.476718 0.949601 0.802822 0.014394
S2    S     S_3+6 0.123929 0.111518 0.606737 0.022252
S3    S     S_3+6 0.408745 0.750244 0.864944 0.038800
S4    S     S_3+6 0.647378 0.440175 0.047967 0.000031
S5    S     S_3+6 0.433659 0.042126 0.425689 0.036832

loop_
_geom_bond_atom_site_label_1
_geom_bond_atom_site_label_2
_ccdc_geom_bond_type
C51   H20   S    
C56   H1    S    
Cr2   O12   S    
C34   C56   S    
C40   O23   A    
C42   H16   S    
Cr5   O7    S    
C41   C42   A    
C19   C20   A    
C68   H26   S    
C64   S3    S    
C1    O13   A    
C34   C66   S    
C36   C41   A    
C8    H41   S    
C7    C8    A    
C31   C32   A    
C53   C54   A    
C1    C21   S    
C57   H25   S    
C12   C23   S    
C69   H36   S    
C26   C27   A    
C29   C30   A    
C14   C21   A    
C36   C37   A    
C9    C16   S    
C3    H39   S    
C16   O1    A    
C12   H28   S    
C50   H18   S    
Cr1   O17   S    
C66   C69   S    
Cr2   O19   S    
O36   S5    D    
O21   S1    D    
C32   H11   S    
Cr2   O38   S    
C17   H2    S    
C18   H4    S    
C49   C57   A    
C17   C18   A    
C18   C19   A    
Cr6   O10   S    
C65   O5    A    
H37   O37   S    
C27   H8    S    
C24   C29   A    
Cr6   O3    S    
C59   C67   S    
C22   C63   S    
C59   O40   A    
Cr5   O41   S    
C35   C36   A    
C70   C71   A    
C30   H9    S    
C19   H5    S    
C6    H40   S    
C63   O9    A    
Cr3   O38   S    
Cr4   O11   S    
C25   C32   A    
Cr3   O23   S    
Cr2   O13   S    
O22   S1    S    
C5    H38   S    
C53   H19   S    
Cr5   O42   S    
C23   C60   S    
Cr5   O11   S    
H33   O29   S    
O24   S2    D    
H31   O22   S    
C50   C51   A    
C48   C53   A    
C4    C34   S    
C2    H34   S    
C33   C40   S    
C31   H10   S    
Cr4   O5    S    
C50   C58   A    
C23   C64   S    
O30   S4    D    
C24   C25   A    
C64   S1    S    
C62   O7    A    
C47   C51   A    
O26   S2    S    
C52   O34   A    
O32   S4    S    
O31   S4    D    
O27   S3    D    
Cr1   O38   S    
Cr3   O34   S    
C61   O3    A    
Cr4   O6    S    
O29   S3    S    
C23   C68   S    
C35   C39   A    
C43   C44   A    
C1    O4    A    
C56   H30   S    
C5    C70   A    
C45   H27   S    
C59   O41   A    
C26   C33   A    
C47   C48   A    
O37   S5    S    
C30   C31   A    
Cr3   O16   S    
Cr1   O1    S    
C45   C68   S    
C60   O42   A    
H35   O32   S    
C13   C21   A    
C34   C45   S    
C44   S5    S    
C12   C56   S    
Cr6   O9    S    
Cr4   O39   S    
Cr1   O18   S    
C41   H14   S    
C40   O12   A    
Cr2   O14   S    
H32   O26   S    
C22   C27   A    
C55   C57   A    
Cr1   O4    S    
C52   O17   A    
C22   C24   A    
C54   H22   S    
C10   C61   S    
C42   C43   A    
C28   O19   A    
C39   H15   S    
C4    O15   A    
C16   O16   A    
Cr4   O40   S    
C38   H13   S    
C54   C55   A    
C11   C17   A    
C8    C71   A    
C26   H7    S    
C13   C20   A    
C38   C39   A    
C69   O33   D    
O20   S1    D    
C3    C67   A    
C28   O18   A    
C9    C71   A    
C45   H23   S    
C62   O6    A    
C65   O10   A    
C6    C7    A    
C28   C58   S    
C55   H24   S    
C10   C15   A    
C67   C70   A    
C66   H21   S    
C37   C44   A    
C2    C3    A    
O25   S2    D    
C61   O39   A    
C46   C52   S    
C12   H29   S    
C11   C13   A    
C5    C6    A    
C7    S2    S    
C48   C49   A    
Cr3   O15   S    
O28   S3    D    
C35   C62   S    
C29   S4    S    
Cr6   O11   S    
C60   O2    A    
C15   H3    S    
C38   C46   A    
Cr6   O2    S    
C10   C11   A    
C49   C58   A    
C43   H17   S    
C14   H42   S    
C20   H6    S    
C25   C33   A    
Cr5   O8    S    
C14   C15   A    
O35   S5    D    
C68   H12   S    
C37   C46   A    
C2    C9    A    
C47   C65   S    
C63   O8    A    
C64   C66   S    
C4    O14   A    
