data_mof_unit_12507.cif
_audit_creation_date              2012-12-10T19:07:05-0500
_audit_creation_method            fapswitch 2.2
_symmetry_space_group_name_H-M    P1
_symmetry_Int_Tables_number       1
_space_group_crystal_system       triclinic
_cell_length_a                    27.736076
_cell_length_b                    10.810537
_cell_length_c                    9.544866
_cell_angle_alpha                 89.996802
_cell_angle_beta                  90.017957
_cell_angle_gamma                 90.095852
_cell_volume                      2861.9463762

loop_
_atom_site_label
_atom_site_type_symbol
_atom_type_description
_atom_site_fract_x
_atom_site_fract_y
_atom_site_fract_z
_atom_type_partial_charge
C1    C     C_R   0.501260 0.262347 0.499995 0.797291
C2    C     C_R   0.278064 0.508099 0.373960 0.480736
C3    C     C_R   0.253163 0.505784 0.502013 0.174814
C4    C     C_R   0.101320 0.504658 0.505158 -0.126099
C5    C     C_R   0.126716 0.392307 0.521488 -0.192866
C6    C     C_R   0.100639 0.280604 0.536795 0.417704
C7    C     C_R   0.126915 0.616445 0.488362 -0.071475
C8    C     C_R   0.354318 0.502444 0.500441 -0.155505
C9    C     C_R   0.644734 0.502359 0.499991 -0.210807
C10   C     C_R   0.974010 0.402657 0.554411 0.027075
C11   C     C_R   0.974518 0.611261 0.456242 -0.004919
C12   C     C_R   0.407410 0.500611 0.500015 0.862994
C13   C     C_R   0.948788 0.507171 0.505138 0.059009
C14   C     C_R   0.948232 0.310787 0.626893 -0.255971
C15   C     C_R   0.897923 0.313387 0.635382 0.495338
C16   C     C_R   0.872082 0.410555 0.570707 -0.102653
C17   C     C_R   0.897735 0.507408 0.504489 -0.187515
C18   C     C_R   0.872526 0.604374 0.437455 -0.102424
C19   C     C_R   0.821739 0.600068 0.434820 0.579284
C20   C     C_R   0.821314 0.414563 0.570710 0.578158
C21   C     C_R   0.720811 0.407805 0.436944 -0.206679
C22   C     C_R   0.670458 0.403857 0.439458 0.362886
C23   C     C_R   0.501049 0.737664 0.499964 0.838612
C24   C     C_R   0.669481 0.603049 0.559952 0.361432
C25   C     C_R   0.719871 0.603000 0.562111 -0.212391
C26   C     C_R   0.745661 0.506229 0.499757 0.203577
C27   C     C_R   0.024562 0.395578 0.533741 -0.086521
C28   C     C_R   0.050316 0.505703 0.505568 -0.041945
C29   C     C_R   0.025137 0.616974 0.477100 -0.006764
C30   C     C_R   0.049990 0.281908 0.534875 0.353264
C31   C     C_R   0.101724 0.728031 0.476191 -0.216956
C32   C     C_R   0.949137 0.703765 0.383858 -0.257474
C33   C     C_R   0.898826 0.701644 0.374148 0.497331
C34   C     C_R   0.592219 0.500390 0.500039 0.902515
C35   C     C_R   0.051451 0.729803 0.474769 0.456761
C36   C     C_R   0.506185 0.063832 0.625881 -0.078994
C37   C     C_R   0.506675 0.129381 0.500073 -0.097616
C38   C     C_R   0.514607 0.064540 0.374456 -0.184119
C39   C     C_R   0.514586 0.935489 0.374557 -0.226302
C40   C     C_R   0.506248 0.870706 0.500079 -0.036139
C41   C     C_R   0.505172 0.936516 0.625843 -0.034692
C42   C     C_3   0.471455 0.928685 0.748352 0.267828
C43   C     C_3   0.471977 0.070246 0.748296 0.287781
C44   C     C_R   0.536866 0.448044 0.073612 0.137123
C45   C     C_R   0.177603 0.395473 0.518868 0.644023
C46   C     C_R   0.461831 0.546327 0.074233 -0.053182
C47   C     C_R   0.461840 0.546266 0.925512 -0.068620
C48   C     C_R   0.536587 0.446415 0.926372 0.193557
C49   C     C_3   0.588950 0.478004 0.918539 0.182163
C50   C     C_3   0.588995 0.483422 0.078377 0.193438
C51   C     C_R   0.177410 0.614603 0.488188 0.625054
C52   C     C_R   0.278512 0.502624 0.629290 0.476228
C53   C     C_R   0.328987 0.498070 0.627708 -0.303971
C54   C     C_R   0.328596 0.509209 0.373955 -0.306751
Cu1   Cu    Cu3+1 0.500000 0.499980 0.640670 0.993167
Cu2   Cu    Cu3+1 0.500000 0.500020 0.359330 0.991829
H1    H     H_    0.968030 0.775747 0.327575 0.202863
H2    H     H_    0.518499 0.112785 0.275631 0.175319
H3    H     H_    0.488762 0.882749 0.840040 0.104945
H4    H     H_    0.436802 0.111702 0.717892 0.131693
H5    H     H_    0.431436 0.584942 0.870032 0.140751
H6    H     H_    0.595553 0.567833 0.864386 0.168259
H7    H     H_    0.610896 0.411588 0.132652 0.151810
H8    H     H_    0.740661 0.333348 0.387753 0.174628
H9    H     H_    0.966864 0.238756 0.683696 0.196429
H10   H     H_    0.348210 0.490896 0.726143 0.175015
N1    N     N_R   0.201479 0.505330 0.502855 -0.430649
N2    N     N_R   0.797475 0.507042 0.501808 -0.451255
N3    N     N_R   0.500300 0.500930 0.147930 -0.158034
N4    N     N_R   0.500310 0.500890 0.852020 -0.199070
O1    O     O_R   0.500000 0.319640 0.618810 -0.564087
O2    O     O_2   0.795689 0.327170 0.638994 -0.507481
O3    O     O_2   0.202387 0.721100 0.473659 -0.539726
O4    O     O_2   0.796541 0.687525 0.365646 -0.502004
O5    O     O_R   0.500010 0.319680 0.381230 -0.582518
O6    O     O_R   0.430260 0.500000 0.618780 -0.587423
O7    O     O_R   0.430270 0.500040 0.381190 -0.596781
O8    O     O_R   0.499990 0.680320 0.618770 -0.566712
O9    O     O_R   0.500000 0.680360 0.381190 -0.582146
O10   O     O_R   0.569730 0.499960 0.618810 -0.564360
O11   O     O_R   0.569740 0.500000 0.381220 -0.542816
O12   O     O_2   0.203293 0.290250 0.531827 -0.495863
H11   H     H_    0.347544 0.515312 0.274999 0.172216
O13   O     O_3   0.253292 0.495335 0.754066 -0.573496
C55   C     C_3   0.259433 0.606874 0.828745 -0.304669
H12   H     H_    0.249949 0.688879 0.763578 0.180195
H13   H     H_    0.296810 0.615681 0.869838 0.153777
H14   H     H_    0.234726 0.606112 0.920101 0.212941
H15   H     H_    0.120836 0.815439 0.471087 0.213300
O14   O     O_3   0.644583 0.697875 0.624572 -0.581782
C56   C     C_3   0.637339 0.793142 0.525977 -0.323057
H16   H     H_    0.614524 0.761060 0.437182 0.163448
H17   H     H_    0.672210 0.830421 0.486470 0.175920
H18   H     H_    0.617980 0.870173 0.578061 0.184549
O15   O     O_3   0.875961 0.790821 0.294352 -0.528749
C57   C     C_3   0.874507 0.901938 0.371424 -0.270023
H19   H     H_    0.911266 0.940665 0.387650 0.134761
H20   H     H_    0.855979 0.888580 0.473825 0.153510
H21   H     H_    0.853518 0.971006 0.310992 0.196422
H22   H     H_    0.738986 0.678396 0.612270 0.175127
O16   O     O_3   0.028826 0.843477 0.480531 -0.596964
C58   C     C_3   0.017150 0.868698 0.621587 -0.288911
H23   H     H_    0.050344 0.880339 0.685805 0.165240
H24   H     H_    0.993642 0.795681 0.667603 0.151771
H25   H     H_    0.996638 0.956452 0.626252 0.213294
H26   H     H_    0.518608 0.887203 0.275828 0.178142
O17   O     O_3   0.426396 0.878902 0.707958 -0.573302
C59   C     C_3   0.396726 0.867688 0.827158 -0.298349
H27   H     H_    0.389128 0.959731 0.874255 0.175094
H28   H     H_    0.413000 0.805233 0.906712 0.142551
H29   H     H_    0.361803 0.826473 0.794724 0.188603
O18   O     O_3   0.252484 0.517694 0.250007 -0.570415
C60   C     C_3   0.256205 0.405217 0.176006 -0.293083
H30   H     H_    0.244935 0.324998 0.241658 0.186525
H31   H     H_    0.293334 0.391224 0.135152 0.163384
H32   H     H_    0.231568 0.408863 0.084539 0.208218
O19   O     O_3   0.489313 0.122634 0.876153 -0.586931
C61   C     C_3   0.539921 0.116342 0.892949 -0.256866
H33   H     H_    0.558469 0.177125 0.816095 0.213461
H34   H     H_    0.553428 0.019940 0.884824 0.138392
H35   H     H_    0.549215 0.150748 0.999087 0.182331
H36   H     H_    0.431465 0.585555 0.129444 0.129354
O20   O     O_3   0.615083 0.376553 0.864462 -0.605873
C62   C     C_3   0.664865 0.403215 0.866280 -0.301287
H37   H     H_    0.679302 0.397323 0.974640 0.169986
H38   H     H_    0.673239 0.495332 0.820746 0.176672
H39   H     H_    0.683797 0.332987 0.801941 0.210905
O21   O     O_3   0.594717 0.605461 0.129289 -0.559882
C63   C     C_3   0.644192 0.634812 0.136747 -0.296251
H40   H     H_    0.660440 0.639490 0.030498 0.164288
H41   H     H_    0.664276 0.568073 0.203285 0.168916
H42   H     H_    0.648106 0.727515 0.185224 0.187755
O22   O     O_3   0.124192 0.167863 0.539957 -0.514403
C64   C     C_3   0.125038 0.124721 0.679446 -0.173805
H43   H     H_    0.088097 0.105457 0.719234 0.148044
H44   H     H_    0.143818 0.191346 0.749853 0.152256
H45   H     H_    0.145363 0.036468 0.682473 0.184805
O23   O     O_3   0.646482 0.305722 0.377899 -0.587437
C65   C     C_3   0.640734 0.211828 0.479130 -0.313632
H46   H     H_    0.618440 0.244042 0.568970 0.173371
H47   H     H_    0.676223 0.177304 0.516968 0.178049
H48   H     H_    0.621563 0.132780 0.430074 0.185066
O24   O     O_3   0.874576 0.224721 0.715002 -0.529110
C66   C     C_3   0.873398 0.112984 0.639007 -0.268568
H49   H     H_    0.910174 0.073900 0.625428 0.134887
H50   H     H_    0.855604 0.125593 0.535386 0.153338
H51   H     H_    0.851839 0.044540 0.698877 0.196389
O25   O     O_3   0.026000 0.170000 0.524952 -0.596150
C67   C     C_3   0.015316 0.147508 0.382656 -0.238767
H52   H     H_    0.048907 0.136710 0.320120 0.188644
H53   H     H_    0.992318 0.221663 0.337219 0.141435
H54   H     H_    0.994702 0.059860 0.374763 0.202022

loop_
_geom_bond_atom_site_label_1
_geom_bond_atom_site_label_2
_ccdc_geom_bond_type
C10   C27   A    
C39   H26   S    
C21   C26   A    
C40   C41   A    
O16   C58   S    
C11   C13   A    
C41   C42   S    
O15   C57   S    
Cu1   Cu2   S    
O21   C63   S    
C64   H45   S    
O22   C64   S    
O20   C62   S    
C55   H12   S    
C63   H41   S    
C2    O18   S    
C1    O1    A    
Cu2   O9    S    
C36   C37   A    
C63   H40   S    
C6    O22   S    
C4    C7    A    
C38   C39   A    
C65   H48   S    
C9    C22   A    
O24   C66   S    
C49   O20   S    
C57   H21   S    
C59   H27   S    
C58   H25   S    
C18   C19   A    
C52   O13   S    
C61   H33   S    
C54   H11   S    
C46   N3    A    
C34   O10   A    
C38   H2    S    
C20   O2    S    
O13   C55   S    
C45   O12   S    
C16   C17   A    
C31   H15   S    
C57   H20   S    
C45   N1    A    
O17   C59   S    
C34   O11   A    
C42   O17   S    
C16   C20   A    
C60   H32   S    
Cu2   O5    S    
C21   C22   A    
C57   H19   S    
C27   C30   A    
C50   H7    S    
C36   C41   A    
C32   H1    S    
C66   H51   S    
C33   O15   S    
O18   C60   S    
C4    C28   A    
C55   H13   S    
C7    C31   A    
C15   C16   A    
C1    O5    A    
Cu2   O11   S    
C24   C25   A    
C66   H50   S    
C10   C14   A    
C67   H54   S    
C8    C54   A    
C39   C40   A    
Cu1   O8    S    
C66   H49   S    
C64   H44   S    
C25   C26   A    
C5    C45   A    
Cu2   O7    S    
C61   H35   S    
C42   H3    S    
C21   H8    S    
C47   N4    A    
C37   C38   A    
C56   H17   S    
C25   H22   S    
C8    C12   S    
C12   O7    A    
C17   C18   A    
C19   N2    A    
C51   N1    A    
O25   C67   S    
C58   H24   S    
C53   H10   S    
C43   H4    S    
C43   O19   S    
C62   H39   S    
C15   O24   S    
Cu1   O6    S    
C48   C49   S    
C6    C30   A    
C11   C32   A    
C49   C50   S    
C12   O6    A    
C2    C54   A    
C9    C34   S    
C31   C35   A    
C50   O21   S    
C42   C43   S    
C56   H16   S    
C52   C53   A    
C62   H38   S    
C60   H30   S    
C55   H14   S    
C44   C50   S    
C22   O23   S    
C46   C47   A    
C28   C29   A    
C49   H6    S    
C20   N2    A    
C19   O4    S    
C3    N1    S    
C51   O3    S    
C48   N4    A    
C4    C5    A    
C35   O16   S    
C10   C13   A    
C24   O14   S    
C8    C53   A    
C47   H5    S    
C65   H46   S    
C9    C24   A    
C30   O25   S    
C64   H43   S    
C1    C37   S    
C29   C35   A    
C59   H29   S    
C13   C17   A    
C26   N2    S    
C32   C33   A    
C63   H42   S    
C67   H53   S    
C2    C3    A    
C7    C51   A    
C67   H52   S    
C3    C52   A    
C56   H18   S    
Cu1   O10   S    
C65   H47   S    
O14   C56   S    
C5    C6    A    
C14   H9    S    
C59   H28   S    
C23   O8    A    
C58   H23   S    
C18   C33   A    
C61   H34   S    
Cu1   N4    S    
O23   C65   S    
C44   C48   A    
C11   C29   A    
Cu2   N3    S    
C27   C28   A    
C44   N3    A    
C14   C15   A    
C46   H36   S    
C36   C43   S    
C23   O9    A    
O19   C61   S    
Cu1   O1    S    
C23   C40   S    
C62   H37   S    
C60   H31   S    
