data_mof_unit_25484.cif
_audit_creation_date              2012-12-10T17:24:53-0500
_audit_creation_method            fapswitch 2.2
_symmetry_space_group_name_H-M    P1
_symmetry_Int_Tables_number       1
_space_group_crystal_system       triclinic
_cell_length_a                    10.116527
_cell_length_b                    10.993572
_cell_length_c                    19.198422
_cell_angle_alpha                 89.850077
_cell_angle_beta                  81.612656
_cell_angle_gamma                 94.30622
_cell_volume                      2106.18726901

loop_
_atom_site_label
_atom_site_type_symbol
_atom_type_description
_atom_site_fract_x
_atom_site_fract_y
_atom_site_fract_z
_atom_type_partial_charge
C1    C     C_R   0.554473 0.731878 0.495326 0.943463
C2    C     C_R   0.445223 0.269000 0.507934 0.943800
C3    C     C_2   0.581712 0.862187 0.496591 -0.486265
C4    C     C_2   0.414619 0.140459 0.517251 -0.475958
C5    C     C_2   0.480359 0.935931 0.509984 0.433932
C6    C     C_2   0.512067 0.064829 0.519603 0.453255
C7    C     C_2   0.926465 0.508874 0.505616 0.062521
C8    C     C_2   0.073391 0.489332 0.495152 0.044542
C9    C     C_R   0.499601 0.496516 0.635038 0.871026
C10   C     C_R   0.499053 0.499811 0.365708 0.900577
C11   C     C_R   0.371562 0.444066 0.753590 0.102163
C12   C     C_R   0.524202 0.398359 0.248874 0.097632
C13   C     C_R   0.348313 0.473252 0.825397 0.102360
C14   C     C_R   0.513019 0.403098 0.176331 0.128398
C15   C     C_R   0.457230 0.517286 0.858830 -0.061729
C16   C     C_R   0.445164 0.499286 0.150979 -0.069176
C17   C     C_R   0.587303 0.543172 0.820259 0.123182
C18   C     C_R   0.400175 0.594611 0.195603 0.131205
C19   C     C_R   0.605511 0.532906 0.745844 0.085996
C20   C     C_R   0.445535 0.605387 0.261316 0.137631
C21   C     C_R   0.494659 0.488489 0.712385 -0.163072
C22   C     C_R   0.494323 0.502167 0.290151 -0.147466
C23   C     C_R   0.433405 0.507911 0.076167 0.280416
C24   C     C_R   0.438136 0.518522 0.935729 0.312352
H1    H     H_    0.310327 0.107804 0.519657 0.160930
H2    H     H_    0.685936 0.897933 0.489213 0.172327
H3    H     H_    0.109820 0.415344 0.462207 0.134275
H4    H     H_    0.886420 0.568466 0.546980 0.141248
N1    N     N_R   0.476557 0.618594 0.970780 -0.186917
N2    N     N_R   0.388935 0.409710 0.041511 -0.175120
N3    N     N_R   0.475803 0.612990 0.039875 -0.191513
N4    N     N_R   0.393258 0.414437 0.972215 -0.166229
N5    N     N_2   0.842710 0.448880 0.471430 0.066003
N6    N     N_2   0.157290 0.551120 0.528570 0.047954
O1    O     O_R   0.431050 0.692470 0.505750 -0.551893
O2    O     O_R   0.568950 0.307530 0.494250 -0.559773
O3    O     O_R   0.651120 0.659650 0.487410 -0.630814
O4    O     O_R   0.348880 0.340350 0.512590 -0.645688
O5    O     O_R   0.389930 0.516430 0.611030 -0.649544
O6    O     O_R   0.610070 0.483570 0.388970 -0.596322
O7    O     O_R   0.610000 0.483610 0.592700 -0.631404
O8    O     O_R   0.390000 0.516390 0.407300 -0.635524
Zn1   Zn    Zn3+2 0.353060 0.521920 0.512240 0.951449
Zn2   Zn    Zn3+2 0.646940 0.478080 0.487760 0.982062
C25   C     C_3   0.269818 0.356400 0.722971 -0.386763
C26   C     C_3   0.331222 0.238412 0.698552 -0.862394
H5    H     H_    0.254650 0.175416 0.678617 0.247821
H6    H     H_    0.415576 0.257288 0.655540 0.246109
H7    H     H_    0.367969 0.193108 0.743044 0.254846
H8    H     H_    0.180923 0.328303 0.761574 0.219739
H9    H     H_    0.226586 0.397813 0.679883 0.220615
C27   C     C_3   0.563914 0.283404 0.283081 -0.388170
C28   C     C_3   0.441617 0.210923 0.323484 -0.883693
H10   H     H_    0.388946 0.266539 0.365247 0.257601
H11   H     H_    0.370225 0.180642 0.287112 0.262527
H12   H     H_    0.473918 0.129156 0.348506 0.237154
H13   H     H_    0.615666 0.220985 0.245370 0.207510
H14   H     H_    0.638344 0.306981 0.318452 0.219255
C29   C     C_3   0.205185 0.468673 0.864828 -0.397425
C30   C     C_3   0.155582 0.343231 0.898105 -0.832031
H15   H     H_    0.223555 0.271773 0.878860 0.268148
H16   H     H_    0.147535 0.347102 0.956319 0.265609
H17   H     H_    0.054078 0.315756 0.885283 0.228427
H18   H     H_    0.196390 0.539126 0.906331 0.203644
H19   H     H_    0.136234 0.495686 0.828369 0.180209
C31   C     C_3   0.579593 0.311001 0.125731 -0.376744
C32   C     C_3   0.490193 0.193128 0.121750 -0.823461
H20   H     H_    0.484234 0.136277 0.169942 0.248940
H21   H     H_    0.387000 0.212949 0.114783 0.271471
H22   H     H_    0.532751 0.138856 0.076353 0.243660
H23   H     H_    0.608296 0.350660 0.072013 0.207226
H24   H     H_    0.677853 0.290197 0.140108 0.181912
C33   C     C_3   0.706751 0.577824 0.858916 -0.378051
C34   C     C_3   0.732638 0.716403 0.864599 -0.859461
H25   H     H_    0.755674 0.761379 0.812081 0.237623
H26   H     H_    0.644322 0.757498 0.893411 0.277190
H27   H     H_    0.819080 0.736892 0.893374 0.246291
H28   H     H_    0.692816 0.536071 0.912366 0.208551
H29   H     H_    0.799000 0.538517 0.833333 0.197731
C35   C     C_3   0.299652 0.680329 0.174631 -0.407033
C36   C     C_3   0.168049 0.668687 0.225732 -0.854513
H30   H     H_    0.122997 0.573235 0.226849 0.273587
H31   H     H_    0.183061 0.694613 0.279946 0.256856
H32   H     H_    0.096426 0.729547 0.207934 0.247148
H33   H     H_    0.343282 0.776151 0.170579 0.202378
H34   H     H_    0.270799 0.659321 0.122274 0.222734
C37   C     C_3   0.744232 0.562644 0.703241 -0.354029
C38   C     C_3   0.818607 0.446891 0.688732 -0.873922
H35   H     H_    0.763605 0.380375 0.658020 0.274675
H36   H     H_    0.919595 0.470653 0.658833 0.236222
H37   H     H_    0.831278 0.401968 0.738917 0.240236
H38   H     H_    0.738413 0.613897 0.654265 0.205187
H39   H     H_    0.808378 0.627161 0.729878 0.198932
C39   C     C_3   0.447455 0.726973 0.299831 -0.432063
C40   C     C_3   0.590894 0.780207 0.301520 -0.885359
H40   H     H_    0.646389 0.719330 0.330973 0.270380
H41   H     H_    0.644686 0.793729 0.247018 0.265344
H42   H     H_    0.589217 0.869947 0.327938 0.242486
H43   H     H_    0.396439 0.797445 0.275209 0.213870
H44   H     H_    0.393809 0.715647 0.354047 0.220253
O9    O     O_3   0.644546 0.107381 0.520865 -0.623159
C41   C     C_3   0.671391 0.101673 0.590769 -0.344690
H45   H     H_    0.650030 0.007889 0.613681 0.153933
H46   H     H_    0.614199 0.167570 0.624327 0.172467
H47   H     H_    0.779420 0.127807 0.590873 0.183733
O10   O     O_3   0.345919 0.892295 0.518779 -0.598102
C42   C     C_3   0.296013 0.893836 0.453513 -0.249304
H48   H     H_    0.372188 0.921217 0.407016 0.115278
H49   H     H_    0.214837 0.956883 0.456607 0.157745
H50   H     H_    0.249945 0.801749 0.444161 0.221420
O11   O     O_3   0.111869 0.654471 0.557923 -0.561291
C43   C     C_3   0.161647 0.670702 0.622021 -0.070834
H51   H     H_    0.268042 0.706132 0.613428 0.218009
H52   H     H_    0.146418 0.585757 0.654600 0.101191
H53   H     H_    0.104711 0.740334 0.652488 0.122596
O12   O     O_3   0.897689 0.402092 0.410025 -0.554142
C44   C     C_3   0.861822 0.276125 0.412985 -0.140281
H54   H     H_    0.922690 0.232626 0.368500 0.128953
H55   H     H_    0.755415 0.257133 0.406782 0.207098
H56   H     H_    0.883159 0.233963 0.462565 0.158103

loop_
_geom_bond_atom_site_label_1
_geom_bond_atom_site_label_2
_ccdc_geom_bond_type
C37   C38   S    
O9    C41   S    
C10   O8    A    
C42   H49   S    
C33   C34   S    
O11   C43   S    
C43   H52   S    
C4    H1    S    
C40   H42   S    
C7    C8    S    
C25   C26   S    
C10   C22   S    
C26   H7    S    
C29   H18   S    
C34   H26   S    
C30   H17   S    
C25   H8    S    
C30   H16   S    
C42   H50   S    
C19   C21   A    
C19   C37   S    
C44   H55   S    
C5    C6    S    
O10   C42   S    
C25   H9    S    
C12   C22   A    
C9    O5    A    
O12   C44   S    
C41   H47   S    
C10   O6    A    
C6    O9    S    
C24   N1    A    
C35   H34   S    
C12   C27   S    
C31   H24   S    
C40   H40   S    
C34   H27   S    
C33   H28   S    
O1    Zn1   S    
C1    O3    A    
C31   C32   S    
C29   C30   S    
C37   H38   S    
C17   C33   S    
N6    O11   S    
C7    N5    D    
C41   H45   S    
C43   H51   S    
C36   H31   S    
C36   H30   S    
C5    O10   S    
C28   H11   S    
C14   C31   S    
C26   H6    S    
C34   H25   S    
C32   H20   S    
C23   N2    A    
C4    C6    D    
C44   H56   S    
O5    Zn1   S    
C28   H10   S    
C11   C21   A    
C7    H4    S    
C30   H15   S    
C32   H21   S    
C23   N3    A    
C2    C4    S    
C24   N4    A    
C35   H33   S    
C2    O4    A    
C31   H23   S    
C38   H37   S    
C39   H44   S    
C42   H48   S    
C33   H29   S    
C8    N6    D    
C41   H46   S    
C27   H14   S    
C18   C35   S    
C15   C24   S    
C38   H36   S    
C16   C23   S    
C13   C15   A    
O7    Zn2   S    
C14   C16   A    
C11   C25   S    
O8    Zn1   S    
C36   H32   S    
C27   C28   S    
C1    O1    A    
C28   H12   S    
C2    O2    A    
C15   C17   A    
C20   C39   S    
C26   H5    S    
N5    O12   S    
N5    Zn2   S    
C3    H2    S    
N6    Zn1   S    
C20   C22   A    
C35   C36   S    
C3    C5    D    
C40   H41   S    
C13   C29   S    
C9    O7    A    
C32   H22   S    
O3    Zn2   S    
C12   C14   A    
O4    Zn1   S    
N1    N3    A    
C44   H54   S    
C29   H19   S    
N2    N4    A    
C11   C13   A    
C9    C21   S    
C39   H43   S    
C37   H39   S    
C17   C19   A    
C18   C20   A    
C39   C40   S    
O2    Zn2   S    
C27   H13   S    
O6    Zn2   S    
C38   H35   S    
C16   C18   A    
C8    H3    S    
C1    C3    S    
C43   H53   S    
