data_mof_unit_52918.cif
_audit_creation_date              2012-12-11T15:29:53-0500
_audit_creation_method            fapswitch 2.2
_symmetry_space_group_name_H-M    P1
_symmetry_Int_Tables_number       1
_space_group_crystal_system       triclinic
_cell_length_a                    8.357041
_cell_length_b                    15.219344
_cell_length_c                    19.026143
_cell_angle_alpha                 96.299066
_cell_angle_beta                  95.736046
_cell_angle_gamma                 98.634552
_cell_volume                      2361.29243902

loop_
_atom_site_label
_atom_site_type_symbol
_atom_type_description
_atom_site_fract_x
_atom_site_fract_y
_atom_site_fract_z
_atom_type_partial_charge
Ba1   Ba    Ba6+2 0.161760 0.544680 0.467770 1.660791
Ba2   Ba    Ba6+2 0.648420 0.455310 0.532170 1.662949
C1    C     C_3   0.371840 0.856774 0.202876 -0.165804
C2    C     C_R   0.082362 0.081085 0.553109 -0.031411
C3    C     C_R   0.943389 0.893922 0.536996 -0.017107
C4    C     C_3   0.959966 0.782284 0.314610 0.493999
C5    C     C_R   0.094242 0.927268 0.577454 -0.068588
C6    C     C_R   0.158590 0.019001 0.587947 -0.136675
C7    C     C_R   0.876946 0.800059 0.527829 -0.029298
C8    C     C_R   0.713776 0.775362 0.495690 -0.246994
C9    C     C_R   0.917106 0.205296 0.484166 0.041342
C10   C     C_R   0.847822 0.111735 0.476662 -0.084765
C11   C     C_R   0.926496 0.050643 0.513948 0.018967
C12   C     C_3   0.404295 0.797911 0.265932 0.402243
C13   C     C_R   0.704172 0.076035 0.431506 -0.004302
C14   C     C_R   0.615526 0.993155 0.439678 0.080346
C15   C     C_R   0.692936 0.928831 0.471966 -0.060320
C16   C     C_3   0.999016 0.873534 0.288075 -0.249204
C17   C     C_R   0.853962 0.957406 0.507728 -0.000713
C18   C     C_R   0.620645 0.836439 0.465757 0.049738
C19   C     C_R   0.069343 0.232883 0.524469 -0.264784
C20   C     C_R   0.635818 0.506736 0.296515 -0.302668
C21   C     C_R   0.472329 0.472777 0.273337 0.051508
C22   C     C_R   0.421920 0.455068 0.199871 -0.135164
C23   C     C_3   0.450448 0.736286 0.670243 0.297000
C24   C     C_R   0.531883 0.478245 0.150318 -0.021413
C25   C     C_R   0.694399 0.517215 0.175674 -0.138468
C26   C     C_R   0.746748 0.531517 0.248622 -0.009737
C27   C     C_R   0.523879 0.539901 0.033509 -0.084575
C28   C     C_3   0.745010 0.330568 0.309922 0.276019
C29   C     C_R   0.466906 0.534818 0.961531 -0.073180
C30   C     C_R   0.360264 0.458966 0.926343 0.056361
C31   C     C_R   0.309919 0.388841 0.965848 -0.078012
C32   C     C_R   0.365939 0.394415 0.038419 -0.069941
C33   C     C_R   0.474207 0.469944 0.072960 0.046376
C34   C     C_3   0.455814 0.825585 0.717229 -0.052128
C35   C     C_R   0.140982 0.413876 0.821732 -0.150147
C36   C     C_R   0.085689 0.412379 0.749564 -0.010362
C37   C     C_R   0.348125 0.494295 0.731064 0.036756
C38   C     C_R   0.404439 0.494341 0.802740 -0.142325
C39   C     C_R   0.301905 0.454089 0.849072 -0.009689
C40   C     C_3   0.706299 0.292931 0.230874 -0.297729
C41   C     C_R   0.191013 0.450897 0.704384 -0.259269
C42   C     C_3   0.909604 0.734457 0.692058 0.480947
C43   C     C_3   0.924760 0.835553 0.711916 -0.369059
C44   C     C_3   0.233837 0.275466 0.377506 0.288904
C45   C     C_3   0.876487 0.201387 0.706080 0.337613
C46   C     C_3   0.165669 0.178132 0.350397 -0.312649
C47   C     C_3   0.393665 0.664895 0.172802 -0.210200
C48   C     C_2   0.856528 0.276497 0.196826 0.913254
C49   C     C_3   0.004483 0.620333 0.762878 -0.109491
C50   C     C_2   0.212304 0.832945 0.153506 0.845281
C51   C     C_3   0.575651 0.940718 0.648402 -0.226603
C52   C     C_2   0.412051 0.957184 0.219559 0.862095
C53   C     C_3   0.083865 0.047999 0.813983 -0.243734
C54   C     C_3   0.620959 0.237913 0.899720 -0.210524
C55   C     C_3   0.338799 0.013213 0.448805 -0.104867
C56   C     C_3   0.939966 0.163348 0.772473 -0.072531
C57   C     C_2   0.684916 0.099726 0.359102 0.865297
C58   C     C_3   0.693508 0.702851 0.334261 -0.150587
C59   C     C_3   0.384041 0.259192 0.724483 0.462169
C60   C     C_3   0.410985 0.233546 0.799960 -0.021442
C61   C     C_R   0.158243 0.172008 0.554592 -0.033388
H1    H     H_    0.618131 0.229582 0.225694 0.130309
H2    H     H_    0.111544 0.143128 0.392387 0.042012
H3    H     H_    0.263712 0.143090 0.332110 0.198003
H4    H     H_    0.537315 0.812851 0.277380 -0.015702
H5    H     H_    0.463807 0.841869 0.166762 0.014892
H6    H     H_    0.526063 0.744597 0.625950 -0.008499
H7    H     H_    0.323492 0.709732 0.648847 0.094667
H8    H     H_    0.572334 0.843282 0.753112 0.095697
H9    H     H_    0.356868 0.816301 0.752107 0.077828
H10   H     H_    0.909638 0.879133 0.242111 0.149960
H11   H     H_    0.797836 0.146320 0.669463 0.065473
H12   H     H_    0.645961 0.339431 0.201201 0.007304
H13   H     H_    0.978565 0.226857 0.676661 -0.060435
H14   H     H_    0.834409 0.137549 0.799913 0.119112
H15   H     H_    0.019870 0.217918 0.809089 0.061008
H16   H     H_    0.251723 0.258941 0.711190 -0.193520
H17   H     H_    0.450054 0.327709 0.722721 0.064403
H18   H     H_    0.318850 0.257974 0.831958 0.022791
H19   H     H_    0.058682 0.776422 0.356105 0.119227
H20   H     H_    0.393710 0.159296 0.797039 0.096715
H21   H     H_    0.161878 0.882303 0.602817 0.120945
H22   H     H_    0.273833 0.040395 0.620744 0.092237
H23   H     H_    0.789861 0.707743 0.660336 0.015923
H24   H     H_    0.659299 0.705757 0.492260 0.071359
H25   H     H_    0.124441 0.302504 0.528382 0.058045
H26   H     H_    0.527078 0.527528 0.822262 0.083388
H27   H     H_    0.504384 0.591570 0.933935 0.067159
H28   H     H_    0.603966 0.600060 0.058726 0.077043
H29   H     H_    0.296709 0.425502 0.181496 0.128139
H30   H     H_    0.228696 0.329118 0.940629 0.062817
H31   H     H_    0.326111 0.339240 0.067333 0.095558
H32   H     H_    0.056860 0.386806 0.856644 0.064155
H33   H     H_    0.779127 0.538720 0.139084 0.093098
H34   H     H_    0.054541 0.865149 0.727968 0.122495
H35   H     H_    0.146538 0.453221 0.649327 0.068894
H36   H     H_    0.677736 0.513582 0.352785 0.064203
H37   H     H_    0.996928 0.928914 0.331066 0.081982
H38   H     H_    0.120657 0.882950 0.272380 0.155392
H39   H     H_    0.629609 0.342356 0.330471 0.045379
H40   H     H_    0.835694 0.392932 0.316962 0.007319
H41   H     H_    0.353363 0.661044 0.278313 0.221506
H42   H     H_    0.323703 0.596635 0.158667 0.142135
H43   H     H_    0.526036 0.664332 0.176014 0.074463
H44   H     H_    0.359509 0.700148 0.127371 0.117238
H45   H     H_    0.854680 0.851376 0.756896 0.091917
H46   H     H_    0.951613 0.407465 0.206707 0.266348
H47   H     H_    0.808213 0.687195 0.780350 0.197095
H48   H     H_    0.137355 0.644234 0.764934 0.082409
H49   H     H_    0.963646 0.569474 0.715752 0.122903
H50   H     H_    0.982649 0.589828 0.812187 0.080203
H51   H     H_    0.075333 0.862433 0.068348 0.317250
H52   H     H_    0.373668 0.944614 0.702036 0.192171
H53   H     H_    0.542768 0.993135 0.616053 0.124436
H54   H     H_    0.625578 0.891089 0.613708 0.097570
H55   H     H_    0.669939 0.972877 0.692826 0.116093
H56   H     H_    0.876489 0.867076 0.666784 0.052963
H57   H     H_    0.547784 0.067862 0.195354 0.333724
H58   H     H_    0.121059 0.108603 0.723132 0.200440
H59   H     H_    0.164578 0.000067 0.797073 0.101253
H60   H     H_    0.977162 0.010875 0.834498 0.130942
H61   H     H_    0.153995 0.098078 0.857313 0.110714
H62   H     H_    0.594097 0.341468 0.839714 0.211627
H63   H     H_    0.540820 0.254792 0.940705 0.107327
H64   H     H_    0.748780 0.268324 0.919904 0.112929
H65   H     H_    0.614574 0.164080 0.889981 0.114398
H66   H     H_    0.433815 0.980266 0.356336 0.237040
H67   H     H_    0.134648 0.309622 0.395485 0.019644
H68   H     H_    0.213081 0.977700 0.430857 0.108615
H69   H     H_    0.345114 0.084223 0.440179 0.108557
H70   H     H_    0.370009 0.007707 0.505701 0.118386
H71   H     H_    0.786096 0.105738 0.267613 0.357341
H72   H     H_    0.763146 0.841128 0.350607 0.155630
H73   H     H_    0.671883 0.678369 0.277497 0.089205
H74   H     H_    0.712795 0.658447 0.374733 0.097115
H75   H     H_    0.579132 0.714489 0.340794 0.039287
H76   H     H_    0.331015 0.278729 0.422438 0.060576
H77   H     H_    0.072104 0.175119 0.304274 0.196045
N1    N     N_2   0.348609 0.703299 0.239931 -0.371116
N2    N     N_2   0.916434 0.694591 0.758225 -0.425686
N3    N     N_2   0.432505 0.898162 0.675944 -0.446906
N4    N     N_2   0.029847 0.091509 0.754127 -0.447749
N5    N     N_2   0.572482 0.272394 0.834433 -0.387782
N6    N     N_2   0.451344 0.972887 0.408939 -0.410218
N7    N     N_2   0.811276 0.782548 0.347514 -0.478864
O1    O     O_2   0.165020 0.721890 0.541560 -0.446994
O2    O     O_2   0.759206 0.435263 0.746393 -0.500043
O3    O     O_3   0.779383 0.265485 0.726587 -0.561160
O4    O     O_3   0.893030 0.608480 0.539180 -0.472587
O5    O     O_3   0.426670 0.454500 0.415370 -0.493447
O6    O     O_2   0.638230 0.542350 0.670940 -0.438458
O7    O     O_3   0.510808 0.678164 0.714012 -0.683778
O8    O     O_2   0.498043 0.176594 0.544327 -0.488939
O9    O     O_3   0.439529 0.197329 0.676131 -0.589961
O10   O     O_3   0.389120 0.667500 0.413900 -0.494575
O11   O     O_2   0.288338 0.816122 0.463378 -0.464853
O12   O     O_3   0.297823 0.313427 0.320820 -0.601355
O13   O     O_3   0.040404 0.715571 0.654499 -0.643545
O14   O     O_3   0.333553 0.820896 0.330156 -0.626435
O15   O     O_2   0.172060 0.457600 0.329040 -0.458059
O16   O     O_3   0.964390 0.622060 0.377370 -0.495257
O17   O     O_2   0.092209 0.570908 0.256797 -0.477659
O18   O     O_2   0.870018 0.200459 0.173251 -0.564310
O19   O     O_R   0.978907 0.346945 0.189456 -0.728377
O20   O     O_2   0.112420 0.767595 0.158808 -0.566378
O21   O     O_R   0.183828 0.884736 0.098552 -0.728700
O22   O     O_2   0.313781 0.000480 0.243885 -0.609550
O23   O     O_3   0.946340 0.712797 0.256289 -0.542841
O24   O     O_R   0.550247 0.001485 0.195060 -0.720146
O25   O     O_2   0.565491 0.130677 0.337165 -0.611332
O26   O     O_R   0.803103 0.082468 0.314951 -0.766030
O27   O     O_2   0.645270 0.278050 0.458420 -0.455429
O28   O     O_3   0.917270 0.391510 0.460760 -0.498472
O29   O     O_3   0.421180 0.332490 0.586040 -0.473456
O30   O     O_3   0.810486 0.267477 0.345648 -0.634489
O31   O     O_3   0.383630 0.545490 0.584580 -0.476771
O32   O     O_3   0.845910 0.377930 0.622570 -0.457942
P1    P     P_3+3 0.990700 0.707490 0.561920 0.976101
P2    P     P_3+3 0.340130 0.430100 0.338870 1.016706
P3    P     P_3+3 0.942493 0.605092 0.284159 1.005979
P4    P     P_3+3 0.819590 0.292500 0.438020 1.001706
P5    P     P_3+3 0.869944 0.372940 0.713770 0.968293
P6    P     P_3+3 0.411561 0.786253 0.414629 0.957099
P7    P     P_3+3 0.463042 0.566356 0.675160 0.934510
P8    P     P_3+3 0.376873 0.217169 0.589464 0.944878

loop_
_geom_bond_atom_site_label_1
_geom_bond_atom_site_label_2
_ccdc_geom_bond_type
C60   H20   S    
O11   P6    D    
C49   H49   S    
C4    H19   S    
H71   O26   S    
C51   H53   S    
C55   H69   S    
C1    H5    S    
C52   O22   D    
C41   H35   S    
C2    C6    A    
O3    P5    S    
C5    C6    A    
C47   H44   S    
O7    P7    S    
C2    C61   A    
C40   H12   S    
C49   H50   S    
C6    H22   S    
C34   N3    S    
O10   P6    S    
C45   H13   S    
C32   C33   A    
C50   O20   D    
C1    C52   S    
C51   H54   S    
C49   N2    S    
O6    P7    D    
C59   H17   S    
C13   C14   A    
C2    C11   A    
C15   C18   A    
C36   P5    S    
C35   H32   S    
Ba1   O5    S    
C14   N6    S    
Ba1   Ba2   S    
C54   H64   S    
C29   H27   S    
C54   N5    S    
H47   N2    S    
C26   P3    S    
O13   P1    S    
O14   P6    S    
C56   H14   S    
Ba2   O29   S    
C18   P6    S    
C37   P7    S    
C8    C18   A    
C14   C15   A    
C60   N5    S    
C47   N1    S    
C28   H40   S    
C48   O19   S    
O2    P5    D    
C30   C39   S    
C10   C13   A    
C53   N4    S    
C58   N7    S    
C54   H63   S    
C38   H26   S    
C7    C8    A    
C58   H73   S    
C43   H45   S    
C58   H74   S    
C43   H56   S    
C5    H21   S    
C19   H25   S    
O1    P1    D    
C20   C26   A    
C55   N6    S    
O23   P3    S    
O16   P3    S    
H58   N4    S    
C55   H70   S    
C25   H33   S    
C16   H37   S    
C21   P2    S    
C42   H23   S    
C22   H29   S    
C44   C46   S    
Ba2   O5    S    
C4    C16   S    
H52   N3    S    
C8    H24   S    
C19   C61   A    
C11   C17   A    
C9    P4    S    
O15   P2    D    
C37   C38   A    
C3    C5    A    
Ba1   P2    S    
C51   H55   S    
C15   C17   A    
C37   C41   A    
C23   C34   S    
C57   O26   S    
O30   P4    S    
C9    C19   A    
C53   H59   S    
C51   N3    S    
C16   H38   S    
C3    C7    A    
C35   C36   A    
Ba2   O28   S    
Ba1   O31   S    
C29   C30   A    
C43   H34   S    
C45   O3    S    
C12   H4    S    
C46   H77   S    
C28   H39   S    
C48   O18   D    
C31   C32   A    
C24   C25   A    
O12   P2    S    
C1    C12   S    
H66   N6    S    
C7    P1    S    
C40   C48   S    
C38   C39   A    
C60   H18   S    
Ba1   O15   S    
Ba2   O6    S    
C61   P8    S    
C46   H2    S    
C23   H6    S    
Ba2   O32   S    
C57   O25   D    
C59   O9    S    
C40   H1    S    
C27   H28   S    
C42   C43   S    
O29   P8    S    
O28   P4    S    
O32   P5    S    
C4    O23   S    
O9    P8    S    
Ba2   O4    S    
C53   H61   S    
Ba1   O28   S    
C49   H48   S    
C20   H36   S    
C23   O7    S    
H41   N1    S    
C13   C57   S    
C52   O24   S    
C55   H68   S    
C32   H31   S    
C45   H11   S    
C22   C24   A    
C53   H60   S    
C31   H30   S    
O27   P4    D    
C44   H67   S    
C47   H42   S    
C1    C50   S    
C34   H8    S    
H57   O24   S    
H51   O21   S    
C47   H43   S    
C3    C17   A    
C16   H10   S    
C27   C33   A    
H72   N7    S    
C30   C31   A    
C12   O14   S    
Ba1   O10   S    
C36   C41   A    
C27   C29   A    
O8    P8    D    
C50   O21   S    
C45   C56   S    
C4    N7    S    
O4    P1    S    
C59   H16   S    
C42   O13   S    
C44   O12   S    
Ba1   P1    S    
C28   O30   S    
Ba1   O4    S    
Ba2   P4    S    
C54   H65   S    
C35   C39   A    
C59   C60   S    
C12   N1    S    
O17   P3    D    
H46   O19   S    
C56   H15   S    
C21   C22   A    
O31   P7    S    
C56   N4    S    
C24   C33   S    
C10   C11   A    
Ba1   O16   S    
C42   N2    S    
C25   C26   A    
C20   C21   A    
C28   C40   S    
Ba1   O1    S    
H62   N5    S    
C23   H7    S    
Ba2   O31   S    
C46   H3    S    
O5    P2    S    
Ba2   O27   S    
C34   H9    S    
C9    C10   A    
C58   H75   S    
C44   H76   S    
