data_mof_unit_22254.cif
_audit_creation_date              2012-12-10T16:44:17-0500
_audit_creation_method            fapswitch 2.2
_symmetry_space_group_name_H-M    P1
_symmetry_Int_Tables_number       1
_space_group_crystal_system       triclinic
_cell_length_a                    7.426768
_cell_length_b                    8.691148
_cell_length_c                    13.459295
_cell_angle_alpha                 94.098743
_cell_angle_beta                  77.489919
_cell_angle_gamma                 103.114557
_cell_volume                      825.784372152

loop_
_atom_site_label
_atom_site_type_symbol
_atom_type_description
_atom_site_fract_x
_atom_site_fract_y
_atom_site_fract_z
_atom_type_partial_charge
C1    C     C_R   0.545291 0.800215 0.503084 0.879662
C2    C     C_R   0.426033 0.463264 0.969971 0.020144
C3    C     C_R   0.468998 0.528057 0.871202 0.080156
C4    C     C_R   0.565115 0.508159 0.031667 0.062757
C5    C     C_R   0.750188 0.592103 0.988961 0.164556
C6    C     C_R   0.786976 0.655507 0.892981 -0.238322
C7    C     C_R   0.644286 0.633968 0.838677 -0.189841
C8    C     C_R   0.521821 0.486182 0.136706 -0.227886
C9    C     C_R   0.848827 0.584940 0.148640 -0.188071
C10   C     C_R   0.338102 0.482323 0.805800 -0.111201
C11   C     C_2   0.570848 0.968071 0.504619 -0.366995
C12   C     C_R   0.399641 0.496825 0.694403 0.778840
C13   C     C_2   0.429041 0.031929 0.495585 -0.367053
C14   C     C_R   0.454651 0.199789 0.497021 0.896607
C15   C     C_R   0.601321 0.509879 0.306015 0.807624
C16   C     C_R   0.892350 0.623294 0.046192 -0.172408
C17   C     C_R   0.661133 0.523097 0.195293 -0.057769
C18   C     C_R   0.156602 0.394533 0.844101 -0.219401
C19   C     C_R   0.113514 0.329882 0.939708 -0.171712
C20   C     C_R   0.249298 0.353120 0.999798 -0.011260
Cu1   Cu    Cu3+1 0.321300 0.483160 0.488710 0.956379
Cu2   Cu    Cu3+1 0.678700 0.516840 0.511290 0.950481
H1    H     H_    0.958558 0.614315 0.192640 0.162214
H2    H     H_    0.292351 0.960547 0.487053 0.180100
H3    H     H_    0.011020 0.617497 0.579296 0.222517
H4    H     H_    0.988923 0.382447 0.420752 0.231194
H5    H     H_    0.923512 0.729766 0.862202 0.143147
H6    H     H_    0.035350 0.682803 0.012704 0.148683
H7    H     H_    0.376633 0.453369 0.175686 0.171258
H8    H     H_    0.053112 0.362014 0.796319 0.172909
H9    H     H_    0.977366 0.250392 0.963469 0.155537
H10   H     H_    0.674461 0.701301 0.770311 0.160794
H11   H     H_    0.707533 0.039451 0.513162 0.180076
N1    N     N_2   0.947230 0.542220 0.528320 -0.218900
N2    N     N_2   0.052770 0.457780 0.471680 -0.215557
O1    O     O_R   0.383920 0.714220 0.492660 -0.583390
O2    O     O_R   0.685730 0.742660 0.511730 -0.590014
O3    O     O_R   0.275440 0.478800 0.636790 -0.589277
O4    O     O_R   0.577250 0.507240 0.655860 -0.581192
O5    O     O_R   0.314270 0.257340 0.488270 -0.580460
O6    O     O_R   0.616080 0.285780 0.507340 -0.580945
O7    O     O_R   0.422750 0.492760 0.344140 -0.581567
O8    O     O_R   0.724560 0.521200 0.363210 -0.589288
C21   C     C_1   0.209130 0.243991 0.081969 0.196276
N3    N     N_1   0.176159 0.155821 0.147388 -0.289399

loop_
_geom_bond_atom_site_label_1
_geom_bond_atom_site_label_2
_ccdc_geom_bond_type
C16   H6    S    
C2    C4    A    
C6    C7    A    
C18   H8    S    
C15   O7    A    
C8    C17   A    
C1    C11   S    
C6    H5    S    
C1    O2    A    
H3    N1    S    
C4    C8    A    
C19   H9    S    
C12   O4    A    
C2    C3    A    
C15   O8    A    
C3    C10   A    
C13   C14   S    
C11   C13   D    
Cu1   O5    S    
C10   C12   S    
C10   C18   A    
C14   O6    A    
Cu1   N2    S    
C8    H7    S    
C9    C17   A    
C20   C21   S    
C9    C16   A    
C18   C19   A    
C3    C7    A    
C12   O3    A    
C5    C6    A    
Cu2   N1    S    
Cu2   O6    S    
Cu2   O4    S    
C14   O5    A    
Cu1   O7    S    
H4    N2    S    
C11   H11   S    
C21   N3    T    
C13   H2    S    
C15   C17   S    
N1    N2    D    
Cu1   O1    S    
C9    H1    S    
C5    C16   A    
C7    H10   S    
Cu1   Cu2   S    
Cu2   O2    S    
C2    C20   A    
Cu2   O8    S    
Cu1   O3    S    
C19   C20   A    
C1    O1    A    
C4    C5    A    
