data_mof_unit_17353.cif
_audit_creation_date              2012-12-10T17:21:40-0500
_audit_creation_method            fapswitch 2.2
_symmetry_space_group_name_H-M    P1
_symmetry_Int_Tables_number       1
_space_group_crystal_system       triclinic
_cell_length_a                    10.769253
_cell_length_b                    10.845798
_cell_length_c                    9.621369
_cell_angle_alpha                 88.659185
_cell_angle_beta                  91.04927
_cell_angle_gamma                 92.982648
_cell_volume                      1121.7927801

loop_
_atom_site_label
_atom_site_type_symbol
_atom_type_description
_atom_site_fract_x
_atom_site_fract_y
_atom_site_fract_z
_atom_type_partial_charge
C1    C     C_R   0.509578 0.263588 0.503194 0.840414
C2    C     C_3   0.877678 0.498159 0.501329 0.016655
C3    C     C_3   0.931114 0.597593 0.396916 -0.436351
C4    C     C_3   0.919180 0.369447 0.458435 -0.327615
C5    C     C_R   0.711288 0.121040 0.656988 0.170718
C6    C     C_R   0.821956 0.061556 0.675699 -0.143035
C7    C     C_R   0.833165 0.943386 0.628549 0.260694
C8    C     C_R   0.729658 0.878508 0.572281 -0.241111
C9    C     C_R   0.617040 0.937546 0.547968 0.002465
C10   C     C_R   0.612198 0.065507 0.575066 0.049538
C11   C     C_R   0.512650 0.129857 0.512089 -0.171765
C12   C     C_R   0.259896 0.497809 0.499306 0.809192
C13   C     C_R   0.416460 0.065987 0.441341 -0.138314
C14   C     C_R   0.413801 0.939303 0.430150 0.412297
C15   C     C_R   0.511341 0.872869 0.490658 -0.182888
C16   C     C_R   0.664106 0.665437 0.143799 -0.137249
C17   C     C_R   0.746400 0.744774 0.071928 -0.184506
C18   C     C_R   0.748497 0.742931 0.928967 -0.172624
C19   C     C_R   0.667833 0.662419 0.856652 -0.119305
C20   C     C_R   0.582108 0.580106 0.925397 0.213331
C21   C     C_R   0.581234 0.580839 0.074731 0.162494
C22   C     C_R   0.421457 0.423497 0.072412 0.346846
C23   C     C_R   0.501632 0.737757 0.497653 0.783878
C24   C     C_R   0.421942 0.424078 0.925239 -0.029598
C25   C     C_R   0.739874 0.499533 0.500866 0.765504
C26   C     C_3   0.074649 0.529799 0.645667 -0.326951
C27   C     C_3   0.932367 0.526187 0.647808 -0.349476
C28   C     C_3   0.072703 0.587830 0.385406 0.212066
C29   C     C_3   0.063341 0.365355 0.463829 0.189308
C30   C     C_3   0.121415 0.496008 0.499107 -0.043715
Cu1   Cu    Cu3+1 0.499990 0.499990 0.640660 0.985986
Cu2   Cu    Cu3+1 0.500010 0.500010 0.359340 0.984794
H1    H     H_    0.113037 0.622149 0.677097 0.196889
H2    H     H_    0.884548 0.349332 0.351198 0.149170
H3    H     H_    0.090798 0.549716 0.281604 0.164663
H4    H     H_    0.888255 0.584794 0.291855 0.172355
H5    H     H_    0.341506 0.115666 0.393178 0.198257
H6    H     H_    0.898818 0.105618 0.733212 0.221173
H7    H     H_    0.739192 0.783946 0.542714 0.119137
H8    H     H_    0.107648 0.463230 0.726289 0.225166
H9    H     H_    0.669885 0.674465 0.253242 0.194056
H10   H     H_    0.809166 0.808049 0.127880 0.179540
H11   H     H_    0.813027 0.804839 0.873947 0.197272
H12   H     H_    0.676267 0.668477 0.747256 0.190624
H13   H     H_    0.358128 0.361998 0.869252 0.176136
H14   H     H_    0.898827 0.453862 0.724071 0.230210
H15   H     H_    0.900898 0.615708 0.683866 0.194037
H16   H     H_    0.908738 0.691044 0.430548 0.215273
H17   H     H_    0.094363 0.338360 0.359345 0.136416
H18   H     H_    0.876758 0.296597 0.528180 0.212633
N1    N     N_R   0.501200 0.501210 0.147910 -0.222297
N2    N     N_R   0.501250 0.501290 0.852040 -0.210689
O1    O     O_R   0.499990 0.319640 0.618810 -0.532294
O2    O     O_R   0.500000 0.319660 0.381240 -0.541795
O3    O     O_R   0.317680 0.499970 0.618790 -0.586039
O4    O     O_R   0.317700 0.499990 0.381210 -0.545894
O5    O     O_R   0.500000 0.680340 0.618760 -0.578704
O6    O     O_R   0.500010 0.680360 0.381190 -0.614726
O7    O     O_R   0.682300 0.500010 0.618790 -0.579145
O8    O     O_R   0.682320 0.500030 0.381210 -0.607615
Br1   Br    Br    0.698812 0.252424 0.785102 -0.507525
Br2   Br    Br    0.989037 0.870354 0.654782 -0.581747
O9    O     O_3   0.314631 0.885820 0.357257 -0.661372
H19   H     H_    0.338987 0.807510 0.318391 0.369007
Br3   Br    Br    0.303216 0.310125 0.158812 -0.520125
O10   O     O_3   0.134003 0.705002 0.387653 -0.670399
H20   H     H_    0.134468 0.734623 0.483870 0.380232
O11   O     O_3   0.098671 0.276334 0.563634 -0.692549
H21   H     H_    0.182981 0.251990 0.539081 0.328993

loop_
_geom_bond_atom_site_label_1
_geom_bond_atom_site_label_2
_ccdc_geom_bond_type
C17   C18   A    
C24   N2    A    
C23   O6    A    
C28   O10   S    
C1    O2    A    
C6    H6    S    
C7    Br2   S    
C29   C30   S    
C8    H7    S    
C29   O11   S    
C9    C10   A    
C13   H5    S    
C26   H1    S    
C2    C4    S    
C4    C29   S    
C1    C11   S    
Cu2   O6    S    
Cu1   N2    S    
C2    C27   S    
C12   C30   S    
Cu1   O5    S    
C19   C20   A    
C15   C23   S    
C2    C3    S    
C9    C15   A    
C5    Br1   S    
C5    C10   A    
C22   Br3   S    
C29   H17   S    
C13   C14   A    
Cu1   O1    S    
C11   C13   A    
C26   H8    S    
C26   C27   S    
C6    C7    A    
C3    H4    S    
C14   O9    S    
C27   H14   S    
Cu2   O2    S    
C3    C28   S    
C12   O4    A    
C28   C30   S    
C26   C30   S    
C2    C25   S    
C4    H2    S    
C21   N1    A    
C17   H10   S    
C5    C6    A    
C22   C24   A    
C22   N1    A    
C12   O3    A    
C16   C17   A    
C10   C11   A    
C24   H13   S    
Cu1   O7    S    
O9    H19   S    
C19   H12   S    
C3    H16   S    
C7    C8    A    
O10   H20   S    
C20   C21   A    
C20   N2    A    
C18   C19   A    
Cu2   N1    S    
C27   H15   S    
C23   O5    A    
Cu2   O8    S    
C14   C15   A    
O11   H21   S    
C1    O1    A    
C25   O7    A    
Cu1   O3    S    
C18   H11   S    
C16   C21   A    
C16   H9    S    
Cu2   O4    S    
C25   O8    A    
Cu1   Cu2   S    
C28   H3    S    
C4    H18   S    
C8    C9    A    
