data_mof_unit_58521.cif
_audit_creation_date              2012-12-10T17:08:37-0500
_audit_creation_method            fapswitch 2.2
_symmetry_space_group_name_H-M    P1
_symmetry_Int_Tables_number       1
_space_group_crystal_system       triclinic
_cell_length_a                    15.752437
_cell_length_b                    10.706079
_cell_length_c                    10.094222
_cell_angle_alpha                 86.801869
_cell_angle_beta                  89.840096
_cell_angle_gamma                 90.560469
_cell_volume                      1699.61650077

loop_
_atom_site_label
_atom_site_type_symbol
_atom_type_description
_atom_site_fract_x
_atom_site_fract_y
_atom_site_fract_z
_atom_type_partial_charge
C1    C     C_R   0.499363 0.263407 0.504528 0.755540
C2    C     C_2   0.499690 0.869629 0.476923 0.441894
C3    C     C_2   0.568962 0.068077 0.497651 0.001946
C4    C     C_R   0.338635 0.499981 0.500258 0.852444
C5    C     C_2   0.497357 0.130686 0.522198 0.425679
C6    C     C_2   0.541496 0.581085 0.922625 0.043037
C7    C     C_2   0.555422 0.560076 0.070496 0.660046
C8    C     C_R   0.499301 0.736747 0.495325 0.805440
C9    C     C_R   0.661393 0.499698 0.499724 0.895662
C10   C     C_3   0.049421 0.413917 0.626845 0.452908
C11   C     C_3   0.052684 0.426432 0.365073 0.879175
C12   C     C_3   0.947968 0.404708 0.616815 0.140429
C13   C     C_3   0.950919 0.440262 0.354685 0.412147
C14   C     C_1   0.750023 0.496628 0.498554 -0.238546
C15   C     C_3   0.083026 0.492880 0.496545 -0.142952
C16   C     C_3   0.362113 0.874245 0.391484 -0.313304
C17   C     C_3   0.352940 0.128038 0.574332 -0.319951
C18   C     C_3   0.699730 0.564817 0.083427 -0.345883
C19   C     C_3   0.150530 0.258245 0.714798 -0.338422
C20   C     C_3   0.401903 0.354313 0.126523 -0.177839
C21   C     C_3   0.083304 0.423613 0.131871 -0.344824
C22   C     C_3   0.157025 0.261124 0.352129 -0.238178
C23   C     C_3   0.917203 0.492807 0.492390 -0.024355
C24   C     C_3   0.832223 0.307029 0.294491 -0.285162
C25   C     C_3   0.147009 0.761372 0.345435 -0.210897
C26   C     C_3   0.950042 0.634681 0.503679 0.047765
C27   C     C_3   0.051081 0.635450 0.489138 0.484460
C28   C     C_1   0.825218 0.493651 0.495030 0.095560
C29   C     C_1   0.174763 0.495709 0.499529 0.099207
C30   C     C_1   0.250022 0.498159 0.500739 -0.253178
C31   C     C_2   0.567512 0.932604 0.519472 0.040128
H1    H     H_    0.487306 0.415488 0.898328 0.178600
H2    H     H_    0.692149 0.888834 0.527156 0.203019
H3    H     H_    0.646473 0.908581 0.675953 0.198810
H4    H     H_    0.340284 0.853110 0.495461 0.153132
H5    H     H_    0.359669 0.788610 0.334371 0.188864
H6    H     H_    0.316786 0.941681 0.344429 0.169331
H7    H     H_    0.664831 0.193639 0.519385 0.166701
H8    H     H_    0.634498 0.176494 0.359874 0.189154
H9    H     H_    0.341476 0.149741 0.466696 0.141068
H10   H     H_    0.347428 0.213875 0.630543 0.170106
H11   H     H_    0.302388 0.061861 0.610689 0.176363
H12   H     H_    0.924359 0.219300 0.686629 0.184938
H13   H     H_    0.528087 0.751655 0.828859 0.232077
H14   H     H_    0.615839 0.670480 0.782071 0.232271
H15   H     H_    0.713756 0.596943 0.979081 0.174572
H16   H     H_    0.697966 0.460650 0.093622 0.128331
H17   H     H_    0.752886 0.597190 0.145128 0.211931
H18   H     H_    0.129485 0.250045 0.819899 0.162175
H19   H     H_    0.205162 0.323426 0.700089 0.165181
H20   H     H_    0.173497 0.164344 0.691924 0.175384
H21   H     H_    0.372467 0.343469 0.226060 0.195038
H22   H     H_    0.456842 0.290132 0.119679 0.132316
H23   H     H_    0.957280 0.227675 0.532393 0.300048
H24   H     H_    0.353636 0.324639 0.054565 0.132829
H25   H     H_    0.038098 0.343053 0.139405 0.202120
H26   H     H_    0.145514 0.390103 0.097154 0.176948
H27   H     H_    0.060098 0.492358 0.054448 0.171287
H28   H     H_    0.184869 0.218483 0.444256 0.177742
H29   H     H_    0.199693 0.337977 0.314394 0.173496
H30   H     H_    0.157106 0.188613 0.277817 0.147789
H31   H     H_    0.828396 0.246161 0.209295 0.175223
H32   H     H_    0.800990 0.396184 0.264237 0.161537
H33   H     H_    0.795698 0.260443 0.377539 0.194337
H34   H     H_    0.057213 0.422078 0.833333 0.165823
H35   H     H_    0.968684 0.598532 0.219700 0.264617
H36   H     H_    0.920458 0.477915 0.153738 0.174974
H37   H     H_    0.070171 0.688433 0.687600 0.199795
H38   H     H_    0.077322 0.804713 0.573600 0.179114
H39   H     H_    0.199153 0.725816 0.409806 0.155015
H40   H     H_    0.134565 0.860628 0.364698 0.140426
H41   H     H_    0.169329 0.758730 0.241341 0.193225
H42   H     H_    0.936853 0.780589 0.630510 0.174794
H43   H     H_    0.857179 0.678557 0.640694 0.200437
H44   H     H_    0.138857 0.496453 0.751974 0.191934
H45   H     H_    0.930077 0.519072 0.782601 0.210238
H46   H     H_    0.909685 0.370056 0.815378 0.166702
H47   H     H_    0.847072 0.724886 0.410488 0.184875
H48   H     H_    0.937264 0.808261 0.402371 0.215957
N1    N     N_2   0.500900 0.501330 0.852150 -0.202419
N2    N     N_3   0.925644 0.525828 0.240817 -0.475619
N3    N     N_3   0.092038 0.710289 0.591858 -0.481738
N4    N     N_3   0.923169 0.684806 0.630442 -0.498811
N5    N     N_2   0.500920 0.501360 0.147810 0.030829
N6    N     N_3   0.919441 0.274077 0.597972 -0.395691
N7    N     N_3   0.073855 0.476851 0.748243 -0.514086
N8    N     N_3   0.904672 0.440870 0.740261 -0.449289
N9    N     N_3   0.912649 0.717500 0.397211 -0.416251
N10   N     N_3   0.637578 0.869799 0.584179 -0.509425
N11   N     N_3   0.646167 0.128814 0.451105 -0.492493
N12   N     N_3   0.577396 0.693281 0.861368 -0.433319
O1    O     O_R   0.499990 0.319060 0.613040 -0.609558
O2    O     O_3   0.432456 0.070927 0.597622 -0.602037
O3    O     O_3   0.623943 0.617244 0.128813 -0.585976
O4    O     O_3   0.082167 0.288564 0.628539 -0.583801
O5    O     O_3   0.424311 0.479963 0.093527 -0.576749
O6    O     O_3   0.094815 0.485586 0.251400 -0.608442
O7    O     O_3   0.071599 0.294886 0.376440 -0.571296
O8    O     O_3   0.918385 0.317209 0.332755 -0.592130
O9    O     O_3   0.070732 0.690483 0.359174 -0.582742
O10   O     O_R   0.500010 0.319100 0.386900 -0.655388
O11   O     O_R   0.377130 0.499990 0.613120 -0.600993
O12   O     O_R   0.377160 0.500030 0.386980 -0.593228
O13   O     O_R   0.499990 0.680900 0.613100 -0.636888
O14   O     O_R   0.500010 0.680940 0.386960 -0.573384
O15   O     O_R   0.622840 0.499970 0.613020 -0.621445
O16   O     O_R   0.622870 0.500010 0.386880 -0.578769
O17   O     O_3   0.444270 0.928813 0.385528 -0.601700
Zn1   Zn    Zn3+2 0.499980 0.499970 0.650990 0.938699
Zn2   Zn    Zn3+2 0.500020 0.500030 0.349010 1.013516

loop_
_geom_bond_atom_site_label_1
_geom_bond_atom_site_label_2
_ccdc_geom_bond_type
O14   Zn2   S    
C26   N4    S    
C22   O7    S    
C24   O8    S    
H43   N4    S    
C18   H16   S    
H34   N7    S    
C12   C23   S    
C26   C27   S    
C12   N6    S    
C3    N11   S    
C1    C5    S    
C10   C15   S    
C16   H4    S    
C22   H29   S    
O13   Zn1   S    
O1    Zn1   S    
C6    N12   S    
C4    O12   A    
C13   N2    S    
C13   C23   S    
N5    O5    S    
C23   C26   S    
C17   H11   S    
H38   N3    S    
H44   N7    S    
C6    N1    D    
C31   N10   S    
C4    O11   A    
N1    Zn1   S    
C25   H40   S    
H8    N11   S    
C16   H6    S    
C7    N5    D    
C20   O5    S    
C24   H33   S    
C8    O14   A    
C11   C15   S    
C20   H24   S    
C18   H15   S    
H48   N9    S    
C15   C29   S    
C27   O9    S    
C11   O7    S    
H12   N6    S    
C22   H28   S    
C9    O15   A    
N5    Zn2   S    
C2    C31   D    
C17   H9    S    
C13   O8    S    
C9    C14   S    
C21   H26   S    
C29   C30   T    
H2    N10   S    
H1    N1    S    
C21   O6    S    
C19   H18   S    
C25   O9    S    
C15   C27   S    
C25   H41   S    
C23   C28   S    
C3    C31   S    
C8    O13   A    
H45   N8    S    
H13   N12   S    
C10   C12   S    
H23   N6    S    
H36   N2    S    
C24   H32   S    
O12   Zn2   S    
C18   O3    S    
O16   Zn2   S    
C17   O2    S    
C1    O10   A    
C19   O4    S    
H47   N9    S    
C7    O3    S    
C10   N7    S    
C24   H31   S    
C12   N8    S    
C27   N3    S    
C2    C8    S    
C20   H22   S    
C3    C5    D    
C18   H17   S    
C21   H25   S    
C5    O2    S    
C6    C7    S    
C1    O1    A    
H7    N11   S    
C11   O6    S    
H37   N3    S    
O10   Zn2   S    
H3    N10   S    
C21   H27   S    
C20   H21   S    
C16   H5    S    
H35   N2    S    
C11   C13   S    
C19   H19   S    
C10   O4    S    
C2    O17   S    
H14   N12   S    
C17   H10   S    
C16   O17   S    
C19   H20   S    
H46   N8    S    
C26   N9    S    
C9    O16   A    
O11   Zn1   S    
C25   H39   S    
C14   C28   T    
H42   N4    S    
C4    C30   S    
C22   H30   S    
O15   Zn1   S    
