data_mof_unit_50885.cif
_audit_creation_date              2012-12-10T18:32:01-0500
_audit_creation_method            fapswitch 2.2
_symmetry_space_group_name_H-M    P1
_symmetry_Int_Tables_number       1
_space_group_crystal_system       triclinic
_cell_length_a                    10.699148
_cell_length_b                    14.935729
_cell_length_c                    15.54882
_cell_angle_alpha                 80.723041
_cell_angle_beta                  92.530834
_cell_angle_gamma                 102.757023
_cell_volume                      2391.57017023

loop_
_atom_site_label
_atom_site_type_symbol
_atom_type_description
_atom_site_fract_x
_atom_site_fract_y
_atom_site_fract_z
_atom_type_partial_charge
Br1   Br    Br    0.845229 0.367258 0.375789 -0.478046
Br2   Br    Br    0.344795 0.564867 0.770077 -0.513058
Br3   Br    Br    0.276274 0.346136 0.303324 -0.453158
Br4   Br    Br    0.734466 0.837225 0.771501 -0.573745
Br5   Br    Br    0.076964 0.287447 0.475507 -0.462309
Br6   Br    Br    0.870769 0.453876 0.691075 -0.562644
C1    C     C_R   0.473643 0.441555 0.661504 0.909806
C2    C     C_R   0.461620 0.443710 0.899540 0.039954
C3    C     C_R   0.446443 0.347810 0.934282 0.090789
C4    C     C_R   0.741932 0.500696 0.498811 0.901168
C5    C     C_R   0.498815 0.511996 0.954652 0.067206
C6    C     C_R   0.500380 0.483809 0.045713 0.052422
C7    C     C_R   0.467674 0.387800 0.079206 -0.228302
C8    C     C_R   0.445173 0.320084 0.025152 -0.007129
C9    C     C_R   0.541225 0.607391 0.921121 -0.115867
C10   C     C_R   0.560461 0.674773 0.975307 -0.190545
C11   C     C_R   0.550156 0.648338 0.065112 0.147107
C12   C     C_3   0.120650 0.495407 0.503798 -0.009731
C13   C     C_R   0.529940 0.552906 0.100634 0.100444
C14   C     C_R   0.562612 0.715682 0.120407 -0.178725
C15   C     C_R   0.552495 0.688282 0.210572 -0.205529
C16   C     C_R   0.521477 0.558673 0.338238 0.878317
C17   C     C_R   0.538945 0.529473 0.190521 -0.196229
C18   C     C_R   0.638203 0.822956 0.665465 0.170290
C19   C     C_R   0.641505 0.745903 0.626810 0.007270
C20   C     C_R   0.505427 0.791975 0.511159 -0.063301
C21   C     C_R   0.498467 0.871924 0.545946 -0.040044
C22   C     C_R   0.563529 0.885536 0.626317 0.096647
C23   C     C_3   0.085221 0.553260 0.417085 -0.373958
C24   C     C_R   0.431679 0.939365 0.503316 0.098497
C25   C     C_R   0.443285 0.023096 0.537511 0.092150
C26   C     C_R   0.485448 0.025607 0.623997 -0.215449
C27   C     C_R   0.548646 0.959512 0.666899 -0.146585
C28   C     C_R   0.257936 0.497868 0.503270 0.888852
C29   C     C_R   0.355497 0.927763 0.427755 -0.239163
C30   C     C_R   0.302163 0.999879 0.384676 -0.175844
C31   C     C_R   0.334936 0.087841 0.410014 0.106090
C32   C     C_R   0.412303 0.102064 0.484092 -0.042126
C33   C     C_R   0.297985 0.162692 0.358958 -0.301094
C34   C     C_3   0.089871 0.541825 0.580843 -0.455653
C35   C     C_R   0.340562 0.251696 0.379517 0.456099
C36   C     C_R   0.471169 0.195450 0.494763 0.007418
C37   C     C_3   0.896531 0.400544 0.492803 0.137273
C38   C     C_3   0.034010 0.393695 0.518059 0.123374
C39   C     C_3   0.947887 0.568732 0.421904 -0.442123
C40   C     C_3   0.943597 0.533629 0.584862 0.031653
C41   C     C_3   0.878818 0.500318 0.499819 -0.034319
C42   C     C_R   0.414905 0.221163 0.066959 0.106610
C43   C     C_R   0.502215 0.186176 0.126122 -0.141690
C44   C     C_R   0.472192 0.094036 0.167979 -0.122968
C45   C     C_R   0.447452 0.405716 0.753814 -0.093222
C46   C     C_R   0.354823 0.036304 0.151372 -0.129997
C47   C     C_R   0.266579 0.070929 0.093757 -0.130384
C48   C     C_R   0.295983 0.163145 0.052022 -0.142478
C49   C     C_R   0.602536 0.210400 0.534092 0.146420
C50   C     C_R   0.625450 0.234790 0.617614 -0.150932
C51   C     C_R   0.732856 0.217347 0.666519 -0.169282
C52   C     C_R   0.819807 0.175722 0.632034 -0.113268
C53   C     C_R   0.800204 0.152866 0.548201 -0.069418
C54   C     C_R   0.694125 0.171842 0.498842 -0.106735
C55   C     C_R   0.539397 0.594222 0.245484 -0.059132
C56   C     C_R   0.431270 0.282355 0.876866 -0.191968
C57   C     C_R   0.435146 0.311513 0.787450 -0.224632
C58   C     C_R   0.438262 0.467907 0.810223 0.191402
H1    H     H_    0.138892 0.616650 0.571571 0.214071
H2    H     H_    0.456252 0.362251 0.147803 0.175153
H3    H     H_    0.560320 0.631090 0.852662 0.208487
H4    H     H_    0.576483 0.788816 0.093824 0.145159
H5    H     H_    0.586848 0.967839 0.731387 0.192645
H6    H     H_    0.242088 0.988484 0.327808 0.145893
H7    H     H_    0.691411 0.693837 0.658664 0.173244
H8    H     H_    0.453742 0.773738 0.453245 0.128273
H9    H     H_    0.035338 0.367919 0.589369 0.132141
H10   H     H_    0.471381 0.079879 0.658270 0.151678
H11   H     H_    0.333292 0.863401 0.401623 0.132877
H12   H     H_    0.952022 0.641705 0.431203 0.182003
H13   H     H_    0.236619 0.152305 0.302405 0.187325
H14   H     H_    0.896220 0.559767 0.359216 0.215870
H15   H     H_    0.092376 0.515870 0.361750 0.246290
H16   H     H_    0.927271 0.603762 0.589522 0.181781
H17   H     H_    0.126092 0.508721 0.643364 0.240427
H18   H     H_    0.593437 0.230256 0.139687 0.151806
H19   H     H_    0.539829 0.067410 0.213382 0.140489
H20   H     H_    0.331943 0.964892 0.183564 0.126891
H21   H     H_    0.175160 0.026388 0.081665 0.144535
H22   H     H_    0.226137 0.189457 0.008332 0.148841
H23   H     H_    0.152879 0.622131 0.404106 0.166685
H24   H     H_    0.554111 0.256864 0.648849 0.158458
H25   H     H_    0.746304 0.233387 0.732183 0.187432
H26   H     H_    0.901779 0.160763 0.670316 0.167605
H27   H     H_    0.865965 0.118865 0.521887 0.178850
H28   H     H_    0.677753 0.149512 0.435586 0.148734
H29   H     H_    0.545412 0.460309 0.219623 0.176506
H30   H     H_    0.555696 0.740039 0.252506 0.154743
H31   H     H_    0.584743 0.747544 0.946984 0.189768
H32   H     H_    0.421601 0.208933 0.900202 0.158618
H33   H     H_    0.424266 0.259579 0.745529 0.154079
H34   H     H_    0.833798 0.349422 0.539951 0.166824
N1    N     N_R   0.573860 0.731700 0.552730 -0.125701
N2    N     N_R   0.426060 0.268290 0.447230 -0.132169
O1    O     O_R   0.462770 0.383110 0.605620 -0.639503
O2    O     O_R   0.510160 0.531900 0.639510 -0.572326
O3    O     O_R   0.661510 0.425600 0.483070 -0.590538
O4    O     O_R   0.708900 0.574390 0.516960 -0.626947
O5    O     O_R   0.489840 0.468100 0.360490 -0.576722
O6    O     O_R   0.537230 0.616890 0.394380 -0.635663
O7    O     O_R   0.291100 0.425610 0.483040 -0.542309
O8    O     O_R   0.338490 0.574400 0.516930 -0.619783
Zn1   Zn    Zn3+2 0.468350 0.400660 0.477370 1.021580
Zn2   Zn    Zn3+2 0.531650 0.599340 0.522630 0.969425

loop_
_geom_bond_atom_site_label_1
_geom_bond_atom_site_label_2
_ccdc_geom_bond_type
O4    Zn2   S    
C49   C50   A    
C56   H32   S    
C20   H8    S    
C29   C30   A    
C37   H34   S    
C37   C38   S    
C33   C35   A    
C47   C48   A    
C42   C48   A    
C29   H11   S    
C20   C21   A    
C56   C57   A    
C51   H25   S    
C24   C29   A    
C39   H12   S    
C28   O7    A    
C33   H13   S    
C4    O3    A    
C32   C36   A    
C36   N2    A    
C26   H10   S    
C24   C25   A    
Br4   C18   S    
C50   H24   S    
C15   H30   S    
O1    Zn1   S    
C9    C10   A    
C11   C14   A    
C50   C51   A    
C46   H20   S    
C12   C34   S    
C5    C9    A    
Br1   C37   S    
C30   H6    S    
C10   C11   A    
C1    O2    A    
C44   C46   A    
C39   H14   S    
C19   H7    S    
C15   C55   A    
C27   H5    S    
C20   N1    A    
C54   H28   S    
C53   C54   A    
C7    C8    A    
C21   C24   A    
O7    Zn1   S    
Br2   C58   S    
C44   H19   S    
C7    H2    S    
C39   C41   S    
C31   C33   A    
C3    C56   A    
N2    Zn1   S    
C45   C57   A    
C18   C19   A    
C48   H22   S    
C2    C3    A    
C8    C42   S    
C52   C53   A    
C16   O6    A    
N1    Zn2   S    
C17   H29   S    
C23   C39   S    
C43   H18   S    
C13   C17   A    
C3    C8    A    
C31   C32   A    
C12   C38   S    
C36   C49   S    
C52   H26   S    
C25   C26   A    
C23   H15   S    
C9    H3    S    
C35   N2    A    
C12   C23   S    
C53   H27   S    
C6    C7    A    
C12   C28   S    
C2    C58   A    
C42   C43   A    
Br5   C38   S    
C22   C27   A    
C34   H1    S    
O2    Zn2   S    
C34   C40   S    
C4    C41   S    
C46   C47   A    
O6    Zn2   S    
O5    Zn1   S    
C40   C41   S    
Br3   C35   S    
C10   H31   S    
Br6   C40   S    
C34   H17   S    
C14   H4    S    
C45   C58   A    
C18   C22   A    
C5    C6    A    
C16   O5    A    
C25   C32   A    
O3    Zn1   S    
C28   O8    A    
C26   C27   A    
C19   N1    A    
C1    C45   S    
C57   H33   S    
C16   C55   S    
C40   H16   S    
C51   C52   A    
C2    C5    A    
C6    C13   A    
C4    O4    A    
C11   C13   A    
O8    Zn2   S    
C38   H9    S    
C23   H23   S    
C17   C55   A    
C14   C15   A    
C30   C31   A    
C43   C44   A    
C1    O1    A    
C21   C22   A    
C47   H21   S    
C49   C54   A    
C37   C41   S    
