data_mof_unit_53004.cif
_audit_creation_date              2013-03-05T15:43:38-0500
_audit_creation_method            fapswitch 2.2
_symmetry_space_group_name_H-M    P1
_symmetry_Int_Tables_number       1
_space_group_crystal_system       triclinic
_cell_length_a                    8.266382
_cell_length_b                    15.066503
_cell_length_c                    18.753603
_cell_angle_alpha                 99.79514
_cell_angle_beta                  91.295695
_cell_angle_gamma                 99.472319
_cell_volume                      2267.16582769

loop_
_atom_site_label
_atom_site_type_symbol
_atom_site_description
_atom_site_fract_x
_atom_site_fract_y
_atom_site_fract_z
_atom_type_partial_charge
P1    P     P_3+3 0.038110 0.412300 0.335300 0.461467
O1    O     O_2   0.871030 0.438240 0.324420 -0.368569
O2    O     O_3   0.120590 0.445310 0.413740 -0.402638
O3    O     O_3   0.663040 0.605930 0.370050 -0.366628
O4    O     O_2   0.761710 0.529716 0.242637 -0.431320
O5    O     O_3   0.997159 0.292951 0.317304 -0.564363
O6    O     O_3   0.714699 0.697122 0.245714 -0.625149
H1    H     H_    0.736548 0.766034 0.352347 0.083446
C1    C     C_3   0.779899 0.861790 0.279629 -0.191119
H2    H     H_    0.913110 0.861601 0.278339 0.152639
H3    H     H_    0.737547 0.871319 0.225170 0.166927
P2    P     P_3+3 0.679950 0.711710 0.558590 0.471665
P3    P     P_3+3 0.131208 0.772504 0.409466 0.513522
O7    O     O_2   0.855660 0.723510 0.537160 -0.365967
O8    O     O_3   0.086340 0.654970 0.406630 -0.408159
O9    O     O_2   0.985204 0.814592 0.442441 -0.382695
O10   O     O_3   0.698465 0.740073 0.653365 -0.562654
O11   O     O_3   0.134437 0.790115 0.318828 -0.491103
C2    C     C_3   0.086829 0.705076 0.272100 0.522650
H4    H     H_    0.969510 0.670123 0.287497 0.139065
H5    H     H_    0.175515 0.658587 0.275478 0.111933
C3    C     C_3   0.071467 0.716431 0.192963 -0.875746
H6    H     H_    0.017703 0.649593 0.159321 0.227201
C4    C     C_3   0.253348 0.746866 0.632129 0.424539
H7    H     H_    0.372892 0.725072 0.621054 0.093940
H8    H     H_    0.169571 0.728214 0.582743 0.107454
C5    C     C_3   0.281258 0.850191 0.656128 -0.988512
H9    H     H_    0.339016 0.884905 0.613404 0.211878
H10   H     H_    0.162140 0.873363 0.667462 0.270462
Ba1   Ba    Ba6+2 0.854120 0.540280 0.465540 1.569309
C6    C     C_3   0.952088 0.260064 0.380511 0.335537
H11   H     H_    0.833313 0.279376 0.396302 0.097593
H12   H     H_    0.045532 0.286423 0.425728 0.148480
C7    C     C_3   0.935481 0.156961 0.364936 -0.776510
H13   H     H_    0.845216 0.128563 0.318725 0.282299
H14   H     H_    0.893449 0.128825 0.413339 0.248059
H15   H     H_    0.056028 0.137003 0.351124 0.253812
C8    C     C_3   0.729830 0.664909 0.682837 0.400882
H16   H     H_    0.846205 0.645397 0.663320 0.095881
H17   H     H_    0.628385 0.605866 0.668269 0.136267
C9    C     C_3   0.744642 0.691648 0.765022 -0.911142
H18   H     H_    0.850388 0.747920 0.781568 0.266354
H19   H     H_    0.763633 0.632464 0.790176 0.229309
H20   H     H_    0.630322 0.714621 0.785113 0.263518
P4    P     P_3+3 0.151600 0.587780 0.664700 0.458680
O12   O     O_2   0.318670 0.561790 0.675630 -0.376354
O13   O     O_3   0.069120 0.554770 0.586270 -0.405699
O14   O     O_3   0.526680 0.394150 0.629950 -0.379530
O15   O     O_3   0.183953 0.706975 0.688505 -0.572676
P5    P     P_3+3 0.056727 0.226810 0.592155 0.472651
O16   O     O_3   0.607620 0.388570 0.462320 -0.400867
O17   O     O_3   0.103380 0.345110 0.593380 -0.350830
O18   O     O_2   0.168222 0.181666 0.537247 -0.368710
O19   O     O_3   0.128308 0.203481 0.674132 -0.505738
Ba2   Ba    Ba6+2 0.335710 0.459790 0.534460 1.573046
P6    P     P_3+3 0.642542 0.592757 0.274947 0.446951
C10   C     C_3   0.688561 0.771761 0.297809 0.637799
O20   O     O_3   0.582100 0.611510 0.537680 -0.405964
C11   C     C_3   0.457577 0.310896 0.312791 0.422053
H21   H     H_    0.336853 0.326372 0.330924 0.092815
H22   H     H_    0.552581 0.373420 0.326351 0.117253
C12   C     C_3   0.444843 0.281613 0.230866 -0.943458
H23   H     H_    0.348765 0.219967 0.215239 0.278502
H24   H     H_    0.411772 0.337372 0.204699 0.208608
H25   H     H_    0.564533 0.265870 0.211291 0.262546
P7    P     P_3+3 0.514214 0.273974 0.438922 0.449674
O21   O     O_2   0.334040 0.276520 0.462890 -0.364438
O22   O     O_3   0.500523 0.239645 0.344688 -0.542980
H26   H     H_    0.193339 0.739204 0.172669 0.284445
C13   C     C_3   0.010497 0.214694 0.725987 0.171289
H27   H     H_    0.990784 0.286994 0.737054 0.083087
H28   H     H_    0.893199 0.167884 0.707410 0.069565
C14   C     C_3   0.074389 0.189111 0.795496 -0.063496
H29   H     H_    0.195777 0.232319 0.813150 0.175085
H30   H     H_    0.091617 0.116490 0.784612 0.123091
P8    P     P_3+3 0.548020 0.396951 0.722476 0.482501
C15   C     C_3   0.534215 0.223609 0.691422 0.494217
H31   H     H_    0.670356 0.241504 0.695465 -0.017223
O23   O     O_2   0.433298 0.461067 0.758397 -0.334401
O24   O     O_3   0.463037 0.288059 0.737994 -0.515177
H32   H     H_    0.488467 0.219530 0.634592 0.126103
H33   H     H_    0.550960 0.079816 0.678612 0.215228
C16   C     C_3   0.486456 0.129792 0.712139 -0.940127
H34   H     H_    0.352159 0.105954 0.702876 0.272744
H35   H     H_    0.520902 0.132876 0.770146 0.290679
C17   C     C_R   0.997522 0.443530 0.044526 0.087864
C18   C     C_R   0.901263 0.399201 0.093840 -0.169302
C19   C     C_R   0.786612 0.389452 0.942779 -0.037961
C20   C     C_R   0.940186 0.440297 0.971458 0.081690
C21   C     C_R   0.730716 0.388426 0.872229 -0.026895
C22   C     C_R   0.824125 0.438112 0.826359 -0.023439
C23   C     C_R   0.980480 0.488303 0.852314 0.016004
C24   C     C_R   0.038491 0.489731 0.925206 0.055924
C25   C     C_R   0.765624 0.438992 0.755193 0.132317
C26   C     C_R   0.871703 0.478577 0.707580 -0.502937
C27   C     C_R   0.026142 0.529890 0.731629 0.274923
C28   C     C_R   0.077157 0.538907 0.806072 -0.028866
C29   C     C_R   0.157788 0.490579 0.069011 0.026260
C30   C     C_R   0.215342 0.493187 0.142157 -0.005821
C31   C     C_R   0.111528 0.452056 0.191391 -0.045390
C32   C     C_R   0.957978 0.402239 0.164711 -0.042385
H36   H     H_    0.828940 0.474673 0.652018 0.173171
H37   H     H_    0.611930 0.348185 0.854707 0.169508
H38   H     H_    0.877993 0.364913 0.198214 0.166786
C33   C     C_R   0.218200 0.599360 0.836752 -0.085326
C34   C     C_R   0.270992 0.603182 0.908542 -0.081362
C35   C     C_R   0.193481 0.541657 0.951418 0.074953
C36   C     C_R   0.261320 0.534254 0.020796 -0.106218
C37   C     C_R   0.430076 0.566161 0.043586 0.314008
C38   C     C_R   0.377672 0.535525 0.165784 -0.087186
C39   C     C_R   0.483179 0.568473 0.115314 -0.216327
C40   C     C_R   0.432026 0.540649 0.238777 0.305804
C41   C     C_R   0.323921 0.506590 0.287675 -0.483709
C42   C     C_R   0.165191 0.461583 0.265548 0.207857
H39   H     H_    0.288074 0.645754 0.806255 0.161180
H40   H     H_    0.611874 0.592446 0.129891 0.217030
H41   H     H_    0.366069 0.512632 0.343622 0.184608
H42   H     H_    0.705377 0.348401 0.973074 0.120154
H43   H     H_    0.373134 0.656109 0.930009 0.158360
C43   C     C_R   0.753401 0.237113 0.531028 -0.509916
C44   C     C_R   0.842216 0.179791 0.560067 0.193118
C45   C     C_R   0.776921 0.086430 0.553849 -0.265430
C46   C     C_R   0.624327 0.048488 0.514802 0.134444
C47   C     C_R   0.545171 0.108138 0.481193 -0.186850
C48   C     C_R   0.608807 0.200916 0.489601 0.265202
C49   C     C_R   0.392097 0.913189 0.472238 -0.256456
C50   C     C_R   0.327969 0.819855 0.461206 0.337666
C51   C     C_R   0.576197 0.790716 0.517053 0.274400
C52   C     C_R   0.642192 0.883920 0.527278 -0.213026
C53   C     C_R   0.552326 0.947724 0.504888 0.102332
C54   C     C_R   0.420302 0.759297 0.483954 -0.430562
H44   H     H_    0.313036 0.956579 0.455276 0.156470
H45   H     H_    0.849666 0.045346 0.578167 0.140430
H46   H     H_    0.763068 0.904476 0.553395 0.150195
H47   H     H_    0.437101 0.084372 0.445636 0.158505
H48   H     H_    0.369796 0.687148 0.476209 0.174876
H49   H     H_    0.804209 0.308858 0.535160 0.170281
H50   H     H_    0.363516 0.870183 0.705939 0.277644
N1    N     N_R   0.514258 0.774493 0.299351 0.226866
O25   O     O_R   0.442439 0.808773 0.250617 -0.375109
O26   O     O_R   0.426587 0.719904 0.335218 -0.492190
N2    N     N_R   0.753182 0.938238 0.334345 0.244805
O27   O     O_R   0.836012 0.955343 0.396301 -0.402555
O28   O     O_R   0.635153 0.983080 0.324612 -0.365397
N3    N     N_R   0.960450 0.201186 0.853120 0.240574
O29   O     O_R   0.811597 0.155264 0.844753 -0.412876
O30   O     O_R   0.014724 0.246522 0.916780 -0.397475
H51   H     H_    0.779206 0.361589 0.079979 0.126329
N4    N     N_R   0.554735 0.585635 0.993503 0.218260
O31   O     O_R   0.554102 0.531238 0.931719 -0.422100
O32   O     O_R   0.681716 0.649451 0.013531 -0.402910
H52   H     H_    0.990850 0.766227 0.185509 0.260424

loop_
_geom_bond_atom_site_label_1
_geom_bond_atom_site_label_2
_geom_bond_distance
_ccdc_geom_bond_type
O14   Ba2   2.768685 S    
P7    O22   1.750457 S    
Ba1   O16   2.791915 S    
C49   C50   1.397131 A    
C34   H43   1.079199 S    
C5    H10   1.110864 S    
C7    H15   1.110990 S    
C14   H30   1.111623 S    
C14   H29   1.112170 S    
O14   P8    1.732807 S    
O4    P6    1.542339 D    
C2    H4    1.094320 S    
P8    O23   1.547668 D    
C51   C52   1.399216 A    
N3    O29   1.300588 A    
C46   C47   1.414486 A    
C15   H31   1.110976 S    
P5    O19   1.745958 S    
P3    O11   1.764532 S    
C16   H34   1.109243 S    
C23   C24   1.433884 A    
C2    H5    1.101840 S    
C4    H8    1.111200 S    
P1    O1    1.514595 D    
N4    O32   1.301713 A    
C8    H16   1.103733 S    
H1    C10   1.110774 S    
C34   C35   1.413436 A    
C49   C53   1.424105 A    
C29   C36   1.426576 A    
C36   C37   1.429062 A    
C10   N1    1.448990 S    
C7    H13   1.109223 S    
C9    H18   1.110622 S    
C38   C39   1.399157 A    
C31   C32   1.398130 A    
C12   H24   1.109550 S    
P8    C25   1.859073 S    
C18   C32   1.390114 A    
O2    Ba2   2.803108 S    
C26   C27   1.400494 A    
O12   Ba2   2.845048 S    
P5    O17   1.756554 S    
C35   C36   1.434109 A    
C6    H12   1.108281 S    
C13   H27   1.113203 S    
C49   H44   1.075939 S    
C1    H2    1.102449 S    
C3    H26   1.107029 S    
C7    H14   1.105039 S    
C47   H47   1.075856 S    
C26   H36   1.081579 S    
C28   C33   1.400641 A    
P7    O21   1.570030 D    
C11   H21   1.109453 S    
O3    P6    1.761784 S    
C9    H19   1.108213 S    
P5    C44   1.844326 S    
O6    P6    1.768679 S    
O7    Ba1   2.855051 S    
C40   C41   1.396091 A    
N3    O30   1.300235 A    
C23   C28   1.423993 A    
C50   C54   1.394251 A    
P4    O13   1.571539 S    
C3    H52   1.105684 S    
C11   H22   1.111209 S    
C5    H50   1.110776 S    
C18   H51   1.075432 S    
P1    O5    1.746403 S    
P5    O18   1.543816 D    
Ba1   O13   2.802632 S    
C2    C3    1.527418 S    
C31   C42   1.426424 A    
C4    H7    1.104701 S    
C8    C9    1.522088 S    
C54   H48   1.082222 S    
C22   C23   1.415590 A    
C43   C48   1.388866 A    
O11   C2    1.414493 S    
O16   Ba2   2.910556 S    
P4    O12   1.514991 D    
C30   C38   1.413889 A    
C14   N3    1.457238 S    
P1    O2    1.571703 S    
O16   P7    1.748670 S    
P2    O10   1.752955 S    
O2    Ba1   2.916226 S    
C37   N4    1.438115 S    
C45   H45   1.076524 S    
C12   H23   1.110584 S    
C11   O22   1.403769 S    
C6    H11   1.101916 S    
O19   C13   1.401340 S    
P7    C48   1.825367 S    
C15   H32   1.111073 S    
C1    N2    1.456080 S    
C4    C5    1.522481 S    
C27   C28   1.426643 A    
C13   C14   1.527605 S    
P4    O15   1.749182 S    
C6    C7    1.513544 S    
C1    H3    1.111984 S    
C44   C45   1.405329 A    
C39   H40   1.078767 S    
C41   H41   1.082142 S    
C16   H35   1.109549 S    
P2    O7    1.506171 D    
H33   C16   1.110323 S    
C32   H38   1.079272 S    
P3    O8    1.739862 S    
C46   C53   1.514990 S    
C9    H20   1.110941 S    
N2    O28   1.300989 A    
Ba2   O20   2.791479 S    
P1    C42   1.871338 S    
C19   H42   1.075354 S    
C51   C54   1.390379 A    
C43   C44   1.390022 A    
O8    Ba1   2.746824 S    
O13   Ba2   2.917196 S    
C41   C42   1.393006 A    
Ba1   Ba2   4.569385 S    
C15   O24   1.405231 S    
C4    O15   1.392209 S    
C11   C12   1.520853 S    
C12   H25   1.110850 S    
P2    Ba1   3.404871 S    
C17   C18   1.415283 A    
C33   H39   1.080458 S    
P8    O24   1.749913 S    
C19   C21   1.388268 A    
C17   C20   1.430056 A    
Ba2   O21   2.855119 S    
N1    O25   1.300564 A    
O17   Ba2   2.747385 S    
P2    C51   1.838646 S    
C33   C34   1.394673 A    
C30   C31   1.424235 A    
O1    Ba1   2.844324 S    
C37   C39   1.398444 A    
C52   C53   1.417934 A    
P2    O20   1.571443 S    
N4    O31   1.299786 A    
C24   C35   1.416308 A    
C22   C25   1.412168 A    
C8    H17   1.109331 S    
N1    O26   1.291596 A    
C21   C22   1.398385 A    
Ba1   O20   2.911387 S    
P1    Ba1   3.395247 S    
P6    C40   1.849467 S    
O5    C6    1.395876 S    
C1    C10   1.535608 S    
O10   C8    1.399398 S    
C20   C24   1.421245 A    
C25   C26   1.402289 A    
C17   C29   1.421658 A    
C38   C40   1.416507 A    
C21   H37   1.077695 S    
C52   H46   1.076397 S    
P3    C50   1.845845 S    
C19   C20   1.413004 A    
P4    Ba2   3.395879 S    
C29   C30   1.433741 A    
P3    O9    1.547068 D    
C5    H9    1.105053 S    
N2    O27   1.299732 A    
C15   C16   1.521476 S    
C3    H6    1.110624 S    
C13   H28   1.111301 S    
C43   H49   1.082335 S    
C45   C46   1.425688 A    
P4    C27   1.882917 S    
O6    C10   1.407651 S    
O3    Ba1   2.769330 S    
C47   C48   1.390955 A    
