data_mof_unit_18812.cif
_audit_creation_date              2012-12-10T20:52:59-0500
_audit_creation_method            fapswitch 2.2
_symmetry_space_group_name_H-M    P1
_symmetry_Int_Tables_number       1
_space_group_crystal_system       triclinic
_cell_length_a                    18.33106
_cell_length_b                    18.350213
_cell_length_c                    18.366494
_cell_angle_alpha                 59.85337
_cell_angle_beta                  59.968104
_cell_angle_gamma                 59.944727
_cell_volume                      4360.84401387

loop_
_atom_site_label
_atom_site_type_symbol
_atom_type_description
_atom_site_fract_x
_atom_site_fract_y
_atom_site_fract_z
_atom_type_partial_charge
C1    C     C_R   0.389941 0.110017 0.110237 0.784091
C2    C     C_R   0.332485 0.820408 0.837104 -0.198109
C3    C     C_R   0.034072 0.554747 0.911323 0.072502
C4    C     C_R   0.440456 0.968127 0.086200 0.074122
C5    C     C_R   0.559544 0.031872 0.913801 0.074125
C6    C     C_R   0.945941 0.945935 0.554276 -0.128918
C7    C     C_R   0.054060 0.054064 0.445731 -0.128872
C8    C     C_R   0.945964 0.553828 0.945947 -0.152038
C9    C     C_R   0.054036 0.446173 0.054053 -0.152039
C10   C     C_R   0.553813 0.946143 0.945833 -0.155116
C11   C     C_R   0.446187 0.053856 0.054168 -0.155115
C12   C     C_R   0.168879 0.038648 0.687646 -0.186018
C13   C     C_R   0.830950 0.961688 0.311852 -0.186145
C14   C     C_R   0.173372 0.579468 0.280469 -0.207595
C15   C     C_R   0.826631 0.420529 0.719526 -0.207605
C16   C     C_R   0.621082 0.271242 0.134633 -0.195230
C17   C     C_R   0.378960 0.728711 0.865265 -0.195388
C18   C     C_R   0.255557 0.042527 0.645282 -0.200960
C19   C     C_R   0.744270 0.957807 0.354326 -0.202198
C20   C     C_R   0.082818 0.588180 0.313684 0.159075
C21   C     C_R   0.610059 0.889982 0.889763 0.784081
C22   C     C_R   0.917184 0.411820 0.686315 0.159085
C23   C     C_R   0.591550 0.310002 0.061850 0.185770
C24   C     C_R   0.408453 0.689998 0.938067 0.185750
C25   C     C_R   0.318535 0.999300 0.582196 0.131907
C26   C     C_R   0.681502 0.000663 0.417750 0.131861
C27   C     C_R   0.031192 0.644731 0.257095 -0.242758
C28   C     C_R   0.968810 0.355267 0.742904 -0.242842
C29   C     C_R   0.610111 0.256410 0.016676 -0.171099
C30   C     C_R   0.389858 0.743635 0.983210 -0.170877
C31   C     C_R   0.294230 0.951125 0.562928 -0.249334
C32   C     C_R   0.110215 0.110153 0.389801 0.779868
C33   C     C_R   0.706027 0.048473 0.437251 -0.248336
C34   C     C_R   0.070009 0.691210 0.167962 -0.186683
C35   C     C_R   0.929993 0.308782 0.832035 -0.186690
C36   C     C_R   0.656002 0.164627 0.045409 -0.142062
C37   C     C_R   0.343976 0.835416 0.954425 -0.142049
C38   C     C_R   0.207717 0.946668 0.606166 -0.225844
C39   C     C_R   0.792548 0.052920 0.393917 -0.225529
C40   C     C_R   0.160210 0.682217 0.135099 0.700009
C41   C     C_R   0.839794 0.317772 0.864895 0.700003
C42   C     C_R   0.684645 0.126172 0.118469 0.729545
C43   C     C_R   0.889786 0.889847 0.610199 0.779841
C44   C     C_R   0.315374 0.873823 0.881346 0.729558
C45   C     C_R   0.144939 0.990784 0.668064 0.712093
C46   C     C_R   0.855110 0.009178 0.331675 0.711768
C47   C     C_R   0.984510 0.591818 0.464193 -0.254974
C48   C     C_R   0.015492 0.408182 0.535807 -0.255020
C49   C     C_R   0.592490 0.463424 0.980498 -0.253966
C50   C     C_R   0.407508 0.536578 0.019478 -0.253954
C51   C     C_R   0.465788 0.952889 0.590123 -0.246215
C52   C     C_R   0.534208 0.047147 0.409876 -0.246475
C53   C     C_R   0.943883 0.552270 0.555261 -0.065828
C54   C     C_R   0.110250 0.389915 0.110075 0.781795
C55   C     C_R   0.056119 0.447730 0.444738 -0.065811
C56   C     C_R   0.551795 0.555747 0.947268 -0.080973
C57   C     C_R   0.448203 0.444255 0.052712 -0.080978
C58   C     C_R   0.554822 0.949220 0.552735 -0.062720
C59   C     C_R   0.445179 0.050810 0.447263 -0.062670
C60   C     C_R   0.959133 0.459118 0.591518 0.016856
C61   C     C_R   0.040869 0.540882 0.408482 0.016835
C62   C     C_R   0.457698 0.593050 0.967892 0.001694
C63   C     C_R   0.542301 0.406953 0.032073 0.001691
C64   C     C_R   0.589431 0.997608 0.461503 0.022013
C65   C     C_R   0.889751 0.610085 0.889924 0.781794
C66   C     C_R   0.410576 0.002416 0.538489 0.021910
C67   C     C_R   0.111115 0.390517 0.389681 0.793435
C68   C     C_R   0.888885 0.609483 0.610318 0.793437
C69   C     C_R   0.390584 0.389604 0.109562 0.786282
C70   C     C_R   0.609415 0.610397 0.890433 0.786288
C71   C     C_R   0.389790 0.108383 0.390344 0.796328
C72   C     C_R   0.610211 0.891623 0.609655 0.796205
C73   C     C_R   0.919406 0.188192 0.455207 -0.135358
C74   C     C_R   0.080596 0.811807 0.544807 -0.135339
C75   C     C_R   0.930029 0.392581 0.177648 -0.132766
C76   C     C_R   0.211840 0.626532 0.191362 -0.235101
C77   C     C_R   0.069970 0.607422 0.822352 -0.132753
C78   C     C_R   0.383115 0.934085 0.172868 -0.132856
C79   C     C_R   0.616887 0.065913 0.827134 -0.132852
C80   C     C_R   0.826821 0.226846 0.486865 -0.144419
C81   C     C_R   0.173182 0.773153 0.513159 -0.144484
C82   C     C_R   0.842949 0.392809 0.211003 -0.130177
C83   C     C_R   0.157050 0.607196 0.788998 -0.130176
C84   C     C_R   0.378183 0.849639 0.203495 -0.124214
C85   C     C_R   0.621818 0.150360 0.796507 -0.124212
C86   C     C_R   0.773266 0.173131 0.541699 -0.166230
C87   C     C_R   0.788165 0.373459 0.808632 -0.235127
C88   C     C_R   0.226738 0.826867 0.458336 -0.166408
C89   C     C_R   0.789430 0.446031 0.157337 -0.135144
C90   C     C_R   0.210569 0.553972 0.842664 -0.135149
C91   C     C_R   0.431328 0.796424 0.149862 -0.158545
C92   C     C_R   0.568668 0.203577 0.850138 -0.158591
C93   C     C_R   0.811973 0.080469 0.565098 -0.166466
C94   C     C_R   0.188030 0.919529 0.434939 -0.166277
C95   C     C_R   0.822698 0.499338 0.070087 -0.138441
C96   C     C_R   0.177302 0.500664 0.929913 -0.138438
C97   C     C_R   0.489663 0.827388 0.065293 -0.163528
C98   C     C_R   0.667564 0.179543 0.162745 -0.197992
C99   C     C_R   0.510332 0.172613 0.934706 -0.163551
C100  C     C_R   0.905830 0.039657 0.532948 0.088068
C101  C     C_R   0.094172 0.960342 0.467072 0.088224
C102  C     C_R   0.911468 0.499463 0.034149 0.073283
C103  C     C_R   0.088533 0.500537 0.965850 0.073280
C104  C     C_R   0.494603 0.913914 0.031597 0.080784
C105  C     C_R   0.505395 0.086086 0.968403 0.080791
C106  C     C_R   0.960313 0.094218 0.477749 0.094580
C107  C     C_R   0.039689 0.905781 0.522264 0.094602
C108  C     C_R   0.965928 0.445254 0.088677 0.072510
F1    F     F_    0.197323 0.727874 0.048773 -0.683791
F2    F     F_    0.802681 0.272110 0.951219 -0.683797
F3    F     F_    0.729249 0.037201 0.146184 -0.679082
F4    F     F_    0.270783 0.962793 0.853577 -0.678906
F5    F     F_    0.060984 0.986759 0.709405 -0.652872
F6    F     F_    0.939065 0.013209 0.290229 -0.652820
H1    H     H_    0.298641 0.796620 0.434092 0.128720
H2    H     H_    0.335751 0.565502 0.033973 0.206539
H3    H     H_    0.439382 0.914974 0.659649 0.175344
H4    H     H_    0.560609 0.085063 0.340347 0.175294
H5    H     H_    0.958339 0.232694 0.412641 0.108677
H6    H     H_    0.041662 0.767306 0.587365 0.108682
H7    H     H_    0.968249 0.351240 0.222744 0.127364
H8    H     H_    0.031751 0.648763 0.777256 0.127369
H9    H     H_    0.342013 0.971558 0.218415 0.131597
H10   H     H_    0.657992 0.028439 0.781589 0.131596
H11   H     H_    0.796528 0.298809 0.468680 0.128081
H12   H     H_    0.701364 0.203378 0.565950 0.128695
H13   H     H_    0.203475 0.701189 0.531344 0.128102
H14   H     H_    0.816722 0.351978 0.279015 0.135872
H15   H     H_    0.183277 0.648027 0.720986 0.135859
H16   H     H_    0.333499 0.825048 0.269474 0.142523
H17   H     H_    0.666504 0.174950 0.730530 0.142524
H18   H     H_    0.767561 0.041446 0.607553 0.112943
H19   H     H_    0.232443 0.958551 0.392492 0.112985
H20   H     H_    0.777715 0.540732 0.031743 0.128292
H21   H     H_    0.222284 0.459270 0.968257 0.128290
H22   H     H_    0.531078 0.782147 0.027479 0.133988
H23   H     H_    0.278436 0.553421 0.816395 0.130141
H24   H     H_    0.468914 0.217856 0.972519 0.133992
H25   H     H_    0.281560 0.619960 0.166099 0.146578
H26   H     H_    0.718446 0.380028 0.833892 0.146589
H27   H     H_    0.690175 0.149916 0.218945 0.152548
H28   H     H_    0.309905 0.850000 0.780888 0.152586
H29   H     H_    0.120433 0.072494 0.735876 0.185783
H30   H     H_    0.879222 0.928144 0.263347 0.186259
H31   H     H_    0.213767 0.536678 0.323624 0.136349
H32   H     H_    0.786237 0.463319 0.676371 0.136355
H33   H     H_    0.607839 0.311955 0.169581 0.139663
H34   H     H_    0.721563 0.446583 0.183607 0.130147
H35   H     H_    0.392229 0.687963 0.830342 0.139684
H36   H     H_    0.273564 0.079397 0.661267 0.187691
H37   H     H_    0.726089 0.921240 0.338143 0.188228
H38   H     H_    0.961100 0.652573 0.282036 0.160140
H39   H     H_    0.038901 0.347427 0.717965 0.160134
H40   H     H_    0.588295 0.285652 0.959974 0.123596
H41   H     H_    0.411643 0.714431 0.039926 0.123603
H42   H     H_    0.342331 0.916717 0.515050 0.143296
H43   H     H_    0.658093 0.082605 0.485381 0.142995
H44   H     H_    0.030008 0.734491 0.124493 0.179331
H45   H     H_    0.571945 0.269571 0.825790 0.128753
H46   H     H_    0.969994 0.265501 0.875504 0.179351
H47   H     H_    0.669379 0.123430 0.010942 0.164264
H48   H     H_    0.330575 0.876648 0.988866 0.164244
H49   H     H_    0.189413 0.908619 0.592144 0.171759
H50   H     H_    0.811027 0.090681 0.408124 0.171681
H51   H     H_    0.428049 0.730432 0.174209 0.128755
H52   H     H_    0.973934 0.662935 0.436018 0.182069
H53   H     H_    0.026069 0.337065 0.563981 0.182018
H54   H     H_    0.664247 0.434499 0.966001 0.206529
O1    O     O_3   0.250000 0.250000 0.250000 -0.488547
O2    O     O_R   0.865800 0.694910 0.573470 -0.645779
O3    O     O_R   0.305090 0.426530 0.134200 -0.644348
O4    O     O_R   0.694910 0.573470 0.865800 -0.644344
O5    O     O_R   0.426530 0.134200 0.305090 -0.645243
O6    O     O_R   0.573470 0.865800 0.694910 -0.645232
O7    O     O_R   0.134190 0.426530 0.134200 -0.638404
O8    O     O_R   0.865810 0.573470 0.865800 -0.638403
O9    O     O_R   0.426530 0.134200 0.134190 -0.643918
O10   O     O_R   0.573470 0.865800 0.865810 -0.643930
O11   O     O_R   0.134200 0.134190 0.426530 -0.633092
O12   O     O_3   0.750000 0.750000 0.750000 -0.488556
O13   O     O_R   0.865800 0.865810 0.573470 -0.633138
O14   O     O_R   0.426530 0.305080 0.134210 -0.647822
O15   O     O_R   0.573470 0.694920 0.865790 -0.647832
O16   O     O_R   0.305080 0.134210 0.426530 -0.632110
O17   O     O_R   0.694920 0.865790 0.573470 -0.632035
O18   O     O_R   0.134210 0.426530 0.305080 -0.631919
O19   O     O_R   0.865790 0.573470 0.694920 -0.631922
O20   O     O_R   0.305080 0.134200 0.134200 -0.630458
O21   O     O_R   0.694920 0.865800 0.865800 -0.630456
O22   O     O_R   0.134200 0.134200 0.305080 -0.627177
O23   O     O_R   0.865800 0.865800 0.694920 -0.627113
O24   O     O_R   0.134200 0.305080 0.134200 -0.628673
O25   O     O_R   0.865800 0.694920 0.865800 -0.628671
O26   O     O_R   0.134200 0.305090 0.426530 -0.645836
Zn1   Zn    Zn3+2 0.206620 0.206630 0.380140 0.967464
Zn2   Zn    Zn3+2 0.793380 0.793370 0.619860 0.967505
Zn3   Zn    Zn3+2 0.206630 0.380140 0.206620 0.965173
Zn4   Zn    Zn3+2 0.793370 0.619860 0.793380 0.965182
Zn5   Zn    Zn3+2 0.380140 0.206620 0.206630 0.953213
Zn6   Zn    Zn3+2 0.619860 0.793380 0.793370 0.953196
Zn7   Zn    Zn3+2 0.206620 0.206620 0.206620 0.980963
Zn8   Zn    Zn3+2 0.793380 0.793380 0.793380 0.980973

loop_
_geom_bond_atom_site_label_1
_geom_bond_atom_site_label_2
_ccdc_geom_bond_type
C25   C31   A    
C89   H34   S    
C101  C107  A    
C27   H38   S    
C73   H5    S    
C86   H12   S    
C36   C42   A    
C1    C11   S    
C75   C82   A    
C87   H26   S    
C71   O5    A    
C31   H42   S    
O1    Zn1   S    
O11   Zn1   S    
C9    C108  A    
C29   C36   A    
C33   C39   A    
C82   C89   A    
C54   O24   A    
C92   H45   S    
C34   C40   A    
C23   C29   A    
O1    Zn3   S    
C86   C93   A    
C83   H15   S    
O12   Zn8   S    
C42   C98   A    
C59   C66   A    
C22   C60   S    
C13   C46   A    
C1    O20   A    
O5    Zn5   S    
C80   H11   S    
C77   C83   A    
C4    C104  A    
O20   Zn7   S    
C94   H19   S    
C69   O3    A    
C13   H30   S    
C20   C61   S    
C19   C26   A    
C53   C68   S    
C70   O4    A    
C35   H46   S    
O7    Zn3   S    
C38   C45   A    
C26   C64   S    
C77   H8    S    
C74   C107  A    
C25   C66   S    
C68   O2    A    
C85   C92   A    
C15   C22   A    
C94   C101  A    
C2    C44   A    
C11   C105  A    
C19   H37   S    
O24   Zn7   S    
C32   O11   A    
O4    Zn4   S    
O23   Zn8   S    
C72   O6    A    
C5    C79   A    
C93   H18   S    
O12   Zn2   S    
C95   C102  A    
C9    C103  A    
C69   O14   A    
O1    Zn5   S    
C48   C60   A    
C23   C63   S    
O26   Zn1   S    
C48   C55   A    
C43   O23   A    
C8    C65   S    
C27   C34   A    
C22   C28   A    
C81   H13   S    
C2    C17   A    
C18   C25   A    
C1    O9    A    
C12   H29   S    
C99   C105  A    
C53   C60   A    
C33   H43   S    
C57   C63   A    
C96   H21   S    
C65   O25   A    
C49   C63   A    
C10   C21   S    
C58   C64   A    
C41   C87   A    
C88   C94   A    
O18   Zn3   S    
C46   F6    S    
O19   Zn4   S    
C17   C24   A    
C14   C20   A    
C28   C35   A    
C49   H54   S    
C3    C8    A    
C52   C64   A    
C47   H52   S    
C13   C19   A    
C5    C105  A    
C43   O13   A    
C95   H20   S    
O25   Zn8   S    
C40   C76   A    
C30   C37   A    
C51   C66   A    
C6    C100  A    
C54   O7    A    
C89   C95   A    
C42   F3    S    
C4    C78   A    
O12   Zn6   S    
C52   C59   A    
C45   F5    S    
C58   C72   S    
C70   O15   A    
C26   C33   A    
C21   O21   A    
C14   H31   S    
C6    C107  A    
C7    C106  A    
C32   O22   A    
C99   H24   S    
C51   C58   A    
C91   C97   A    
C4    C11   A    
C102  C108  A    
C78   H9    S    
C93   C100  A    
C82   H14   S    
C39   C46   A    
C21   O10   A    
C34   H44   S    
C30   H41   S    
C84   C91   A    
C16   C23   A    
C56   C70   S    
C41   F2    S    
C16   H33   S    
C65   O8    A    
O9    Zn5   S    
C28   H39   S    
C2    H28   S    
C56   C62   A    
C74   C81   A    
C67   O26   A    
C44   F4    S    
C79   C85   A    
C90   H23   S    
C15   C87   A    
C76   H25   S    
C3    C103  A    
C83   C90   A    
O10   Zn6   S    
C38   H49   S    
C24   C62   S    
C7    C32   S    
C14   C76   A    
C75   H7    S    
C50   C57   A    
C100  C106  A    
C71   O16   A    
C91   H51   S    
C17   H35   S    
O14   Zn5   S    
C52   H4    S    
O8    Zn4   S    
C12   C45   A    
C47   C61   A    
C15   H32   S    
C55   C67   S    
C67   O18   A    
O22   Zn7   S    
C90   C96   A    
C40   F1    S    
C20   C27   A    
O21   Zn8   S    
O13   Zn2   S    
O16   Zn1   S    
C74   H6    S    
C79   H10   S    
O6    Zn6   S    
O15   Zn6   S    
C31   C38   A    
C47   C53   A    
C97   C104  A    
C6    C43   S    
C37   C44   A    
C10   C104  A    
C5    C10   A    
C98   H27   S    
C49   C56   A    
C85   H17   S    
O2    Zn2   S    
C16   C98   A    
C73   C106  A    
C36   H47   S    
C48   H53   S    
C88   H1    S    
C50   C62   A    
C55   C61   A    
C84   H16   S    
C51   H3    S    
C73   C80   A    
C50   H2    S    
C35   C41   A    
C24   C30   A    
C72   O17   A    
C81   C88   A    
O12   Zn4   S    
O1    Zn7   S    
C68   O19   A    
C78   C84   A    
C80   C86   A    
C75   C108  A    
O3    Zn3   S    
C7    C101  A    
C96   C103  A    
C12   C18   A    
C29   H40   S    
C9    C54   S    
O17   Zn2   S    
C97   H22   S    
C57   C69   S    
C39   H50   S    
C18   H36   S    
C8    C102  A    
C92   C99   A    
C59   C71   S    
C37   H48   S    
C3    C77   A    
