data_mof_unit_26322.cif
_audit_creation_date              2012-12-10T20:50:55-0500
_audit_creation_method            fapswitch 2.2
_symmetry_space_group_name_H-M    P1
_symmetry_Int_Tables_number       1
_space_group_crystal_system       triclinic
_cell_length_a                    27.776685
_cell_length_b                    8.908932
_cell_length_c                    8.10485
_cell_angle_alpha                 89.877892
_cell_angle_beta                  89.978205
_cell_angle_gamma                 90.002184
_cell_volume                      2005.62632512

loop_
_atom_site_label
_atom_site_type_symbol
_atom_type_description
_atom_site_fract_x
_atom_site_fract_y
_atom_site_fract_z
_atom_type_partial_charge
C1    C     C_R   0.500000 0.218036 0.500112 0.944461
C2    C     C_R   0.050714 0.500229 0.499476 0.070034
C3    C     C_R   0.947394 0.233225 0.433667 -0.221387
C4    C     C_R   0.052611 0.766874 0.567155 -0.221742
C5    C     C_R   0.947400 0.767523 0.564323 -0.221350
C6    C     C_R   0.052616 0.233624 0.431772 -0.221826
C7    C     C_1   0.500000 0.065243 0.500161 -0.182981
C8    C     C_1   0.500000 0.934757 0.499839 -0.182978
C9    C     C_R   0.405810 0.499992 0.500031 0.893491
C10   C     C_R   0.594190 0.500020 0.499965 0.893513
C11   C     C_R   0.177720 0.369968 0.465195 0.503416
C12   C     C_R   0.500000 0.781964 0.499888 0.944445
C13   C     C_R   0.822291 0.630547 0.533347 0.503418
C14   C     C_R   0.177717 0.629922 0.535227 0.503484
C15   C     C_R   0.822290 0.370148 0.465173 0.503387
C16   C     C_R   0.277942 0.540992 0.355986 0.200876
C17   C     C_R   0.722085 0.459302 0.643875 0.201024
C18   C     C_R   0.277944 0.458865 0.644441 0.200983
C19   C     C_R   0.722031 0.541220 0.355367 0.201019
C20   C     C_R   0.328140 0.539568 0.356725 -0.206125
C21   C     C_R   0.671885 0.460691 0.643223 -0.206173
C22   C     C_R   0.328143 0.460344 0.643566 -0.206184
C23   C     C_R   0.353282 0.499970 0.500110 -0.125442
C24   C     C_R   0.671834 0.539658 0.356326 -0.206132
C25   C     C_R   0.252913 0.499913 0.500245 0.311491
C26   C     C_R   0.747092 0.500298 0.499540 0.311360
C27   C     C_R   0.101776 0.500113 0.499786 -0.048647
C28   C     C_R   0.898234 0.500362 0.499113 -0.048822
C29   C     C_R   0.127393 0.367353 0.465283 -0.021515
C30   C     C_R   0.872619 0.633305 0.532729 -0.021385
C31   C     C_R   0.127390 0.632752 0.534605 -0.021476
C32   C     C_R   0.872617 0.367423 0.465526 -0.021371
C33   C     C_R   0.102468 0.235294 0.431654 -0.142564
C34   C     C_R   0.646719 0.500121 0.499847 -0.125467
C35   C     C_R   0.897547 0.765761 0.564705 -0.142206
C36   C     C_R   0.102461 0.764961 0.567889 -0.142406
C37   C     C_R   0.897543 0.235000 0.433328 -0.142214
C38   C     C_3   0.251229 0.413576 0.798271 -0.875489
C39   C     C_3   0.748711 0.586421 0.201431 -0.875709
C40   C     C_3   0.251223 0.586241 0.202208 -0.875647
C41   C     C_3   0.748824 0.414189 0.797645 -0.875726
C42   C     C_R   0.974470 0.364778 0.465696 0.048097
C43   C     C_R   0.025539 0.635726 0.533307 0.047974
C44   C     C_R   0.974474 0.635906 0.532563 0.048105
C45   C     C_R   0.025538 0.364838 0.465353 0.047952
C46   C     C_R   0.949297 0.500351 0.499113 0.069871
H1    H     H_    0.347633 0.428891 0.754191 0.171551
H2    H     H_    0.036726 0.874050 0.594430 0.138223
H3    H     H_    0.963285 0.875060 0.589683 0.137384
H4    H     H_    0.036731 0.126600 0.404272 0.138303
H5    H     H_    0.276253 0.385770 0.900717 0.242103
H6    H     H_    0.227547 0.506882 0.838706 0.248677
H7    H     H_    0.228844 0.312981 0.773246 0.267310
H8    H     H_    0.723662 0.614065 0.099003 0.242036
H9    H     H_    0.771069 0.687110 0.226259 0.267591
H10   H     H_    0.772413 0.493132 0.161076 0.248501
H11   H     H_    0.276244 0.614082 0.099704 0.242162
H12   H     H_    0.652327 0.570970 0.245699 0.171575
H13   H     H_    0.227553 0.492899 0.161830 0.248634
H14   H     H_    0.228826 0.686805 0.227280 0.267246
H15   H     H_    0.723814 0.386440 0.900215 0.242064
H16   H     H_    0.771210 0.313585 0.772674 0.267550
H17   H     H_    0.772504 0.507563 0.837868 0.248514
H18   H     H_    0.347626 0.571029 0.246038 0.171552
H19   H     H_    0.652416 0.429320 0.753965 0.171543
H20   H     H_    0.121433 0.131819 0.405044 0.191676
H21   H     H_    0.878585 0.869503 0.590111 0.191243
H22   H     H_    0.121420 0.868380 0.594697 0.191691
H23   H     H_    0.878579 0.131288 0.407817 0.191227
H24   H     H_    0.963280 0.125728 0.408090 0.137406
N1    N     N_R   0.201549 0.499908 0.500296 -0.345973
N2    N     N_R   0.798457 0.500332 0.499358 -0.346016
N3    N     N_1   0.500000 0.500000 0.073640 -0.035054
N4    N     N_1   0.500000 0.500000 0.926360 -0.035052
O1    O     O_R   0.500000 0.285350 0.636850 -0.616117
O2    O     O_2   0.797226 0.756588 0.567377 -0.544625
O3    O     O_2   0.202784 0.755709 0.570149 -0.544878
O4    O     O_2   0.797223 0.244100 0.431229 -0.544625
O5    O     O_R   0.500000 0.714650 0.363150 -0.616125
O6    O     O_R   0.500000 0.714650 0.636850 -0.613277
O7    O     O_R   0.500000 0.285350 0.363150 -0.613271
O8    O     O_R   0.428760 0.500000 0.636860 -0.623131
O9    O     O_R   0.571240 0.500000 0.363140 -0.623156
O10   O     O_R   0.571240 0.500000 0.636860 -0.623106
O11   O     O_R   0.428760 0.500000 0.363140 -0.623110
O12   O     O_2   0.202789 0.244075 0.430544 -0.544887
Zn1   Zn    Zn3+2 0.500000 0.500000 0.682780 0.995607
Zn2   Zn    Zn3+2 0.500000 0.500000 0.317220 0.995598

loop_
_geom_bond_atom_site_label_1
_geom_bond_atom_site_label_2
_ccdc_geom_bond_type
C4    C36   A    
C3    C42   A    
C40   H14   S    
C6    C45   A    
C37   H23   S    
C27   C29   A    
C26   N2    S    
C14   N1    A    
O10   Zn1   S    
C41   H15   S    
C14   C31   A    
C7    C8    T    
C15   N2    A    
C28   C46   A    
C30   C35   A    
C17   C26   A    
O6    Zn1   S    
C31   C36   A    
C42   C46   A    
C11   N1    A    
C39   H8    S    
C38   H6    S    
C11   O12   S    
C1    O7    A    
O8    Zn1   S    
C12   O5    A    
C29   C33   A    
C10   O9    A    
N3    N4    T    
C14   O3    S    
C19   C26   A    
C9    O11   A    
C39   H9    S    
C20   C23   A    
C2    C27   A    
C25   N1    S    
N4    Zn1   S    
C8    C12   S    
C9    O8    A    
O9    Zn2   S    
C40   H13   S    
C18   C22   A    
C5    H3    S    
C18   C25   A    
C41   H16   S    
C28   C32   A    
O5    Zn2   S    
C44   C46   A    
C33   H20   S    
C2    C45   A    
C27   C31   A    
C1    O1    A    
C13   C30   A    
C15   C32   A    
C3    H24   S    
C9    C23   S    
C38   H5    S    
C24   C34   A    
C42   C45   A    
C20   H18   S    
C43   C44   A    
N3    Zn2   S    
C39   H10   S    
C13   O2    S    
C35   H21   S    
C2    C43   A    
C16   C20   A    
C10   C34   S    
C32   C37   A    
C6    H4    S    
C11   C29   A    
C19   C39   S    
C16   C40   S    
O1    Zn1   S    
C13   N2    A    
C5    C44   A    
C41   H17   S    
C4    H2    S    
O11   Zn2   S    
C16   C25   A    
C40   H11   S    
C21   H19   S    
C1    C7    S    
C36   H22   S    
C21   C34   A    
C4    C43   A    
C5    C35   A    
C6    C33   A    
C28   C30   A    
C19   C24   A    
C18   C38   S    
C38   H7    S    
C12   O6    A    
C10   O10   A    
C22   H1    S    
C17   C41   S    
O7    Zn2   S    
C15   O4    S    
C3    C37   A    
C24   H12   S    
C22   C23   A    
C17   C21   A    
