data_mof_unit_14151.cif
_audit_creation_date              2012-12-10T18:26:23-0500
_audit_creation_method            fapswitch 2.2
_symmetry_space_group_name_H-M    P1
_symmetry_Int_Tables_number       1
_space_group_crystal_system       triclinic
_cell_length_a                    15.112584
_cell_length_b                    13.970791
_cell_length_c                    23.415269
_cell_angle_alpha                 90.384059
_cell_angle_beta                  89.807879
_cell_angle_gamma                 89.682117
_cell_volume                      4943.56146038

loop_
_atom_site_label
_atom_site_type_symbol
_atom_type_description
_atom_site_fract_x
_atom_site_fract_y
_atom_site_fract_z
_atom_type_partial_charge
C1    C     C_R   0.326431 0.499960 0.500471 0.975576
C2    C     C_R   0.499569 0.586510 0.703675 -0.342571
C3    C     C_R   0.474351 0.581857 0.237545 0.464586
C4    C     C_R   0.494177 0.586356 0.763008 0.479526
C5    C     C_R   0.483360 0.494305 0.208537 0.156426
C6    C     C_R   0.487480 0.498969 0.791801 0.109238
C7    C     C_R   0.816366 0.419067 0.480040 0.393451
C8    C     C_R   0.184254 0.579364 0.523117 0.387466
C9    C     C_R   0.769740 0.500149 0.500199 -0.303478
C10   C     C_R   0.230515 0.499064 0.501688 -0.297561
C11   C     C_R   0.815120 0.581571 0.520449 0.379312
C12   C     C_R   0.673652 0.499929 0.499955 0.974568
C13   C     C_R   0.185004 0.417164 0.482226 0.370839
C14   C     C_R   0.907386 0.583545 0.516864 -0.012571
C15   C     C_R   0.092942 0.414646 0.487031 -0.006209
C16   C     C_R   0.499279 0.499673 0.389185 0.907735
C17   C     C_R   0.499128 0.500184 0.610817 0.908314
C18   C     C_R   0.953909 0.499262 0.501892 -0.002198
C19   C     C_R   0.046459 0.498812 0.502315 0.001123
C20   C     C_R   0.908205 0.415613 0.486041 -0.012812
C21   C     C_R   0.092233 0.582476 0.518118 -0.015278
C22   C     C_R   0.953827 0.667938 0.528773 -0.185524
C23   C     C_R   0.495955 0.408510 0.237998 0.474498
C24   C     C_R   0.046599 0.329995 0.475739 -0.210169
C25   C     C_R   0.045370 0.667344 0.529536 -0.197448
C26   C     C_R   0.955062 0.330496 0.475210 -0.194629
C27   C     C_R   0.558550 0.796963 0.466116 0.028919
C28   C     C_R   0.440442 0.202991 0.533016 0.026458
C29   C     C_R   0.441051 0.798743 0.533532 0.006123
C30   C     C_R   0.556870 0.201514 0.464886 -0.002003
C31   C     C_R   0.438604 0.899582 0.533885 -0.113874
C32   C     C_R   0.555668 0.100652 0.461611 -0.137815
C33   C     C_R   0.557706 0.897826 0.463101 -0.133829
C34   C     C_R   0.484397 0.412200 0.761576 0.475408
C35   C     C_R   0.437358 0.102226 0.532747 -0.121043
C36   C     C_R   0.497190 0.949404 0.497744 -0.049563
C37   C     C_R   0.496792 0.050674 0.497372 -0.046008
C38   C     C_R   0.379531 0.951421 0.569453 0.357447
C39   C     C_R   0.611941 0.048826 0.423957 0.391507
C40   C     C_R   0.615178 0.947834 0.426148 0.384249
C41   C     C_R   0.376183 0.052379 0.566800 0.342948
C42   C     C_R   0.563962 0.512647 0.881099 0.557643
C43   C     C_R   0.406045 0.477842 0.119520 0.578043
C44   C     C_R   0.408364 0.481859 0.880399 0.554868
C45   C     C_R   0.502957 0.411281 0.297357 -0.359440
C46   C     C_R   0.561715 0.508275 0.119939 0.561254
C47   C     C_R   0.406089 0.480140 0.940006 -0.030935
C48   C     C_R   0.563948 0.509415 0.060398 -0.027478
C49   C     C_R   0.485269 0.495358 0.970248 -0.021375
C50   C     C_R   0.484705 0.494212 0.030220 -0.019627
C51   C     C_R   0.565043 0.511752 0.940664 -0.031436
C52   C     C_R   0.404929 0.477948 0.059874 -0.032822
C53   C     C_R   0.327002 0.463765 0.969904 -0.158232
C54   C     C_R   0.643079 0.525493 0.030538 -0.162746
C55   C     C_R   0.326428 0.462672 0.029368 -0.162135
C56   C     C_R   0.486884 0.413227 0.702147 -0.321759
C57   C     C_R   0.643620 0.526659 0.971133 -0.160322
C58   C     C_3   0.358055 0.904983 0.661461 0.134636
C59   C     C_3   0.283708 0.892518 0.704674 -0.820939
C60   C     C_3   0.614355 0.122169 0.337371 0.063701
C61   C     C_3   0.675050 0.142075 0.286924 -0.782009
C62   C     C_3   0.648262 0.864362 0.344243 0.077811
C63   C     C_3   0.709136 0.784709 0.322784 -0.793307
C64   C     C_3   0.237255 0.114507 0.568436 0.107580
C65   C     C_3   0.176090 0.183597 0.600118 -0.777075
C66   C     C_3   0.441570 0.258210 0.221568 0.088689
C67   C     C_R   0.494515 0.498369 0.327010 -0.134783
C68   C     C_3   0.441426 0.177989 0.177362 -0.799813
C69   C     C_3   0.556461 0.279559 0.792703 0.084722
C70   C     C_3   0.547680 0.191123 0.829749 -0.784194
C71   C     C_3   0.524032 0.730179 0.212583 0.089294
C72   C     C_3   0.512599 0.808320 0.168296 -0.799157
C73   C     C_3   0.415967 0.712228 0.798407 0.069991
C74   C     C_3   0.421264 0.800907 0.836201 -0.798501
C75   C     C_3   0.786749 0.339338 0.396004 0.078866
C76   C     C_3   0.714204 0.392670 0.364224 -0.837230
C77   C     C_3   0.214191 0.658862 0.607333 0.085499
C78   C     C_R   0.495662 0.500102 0.673039 -0.156374
C79   C     C_3   0.291050 0.614080 0.639593 -0.834607
C80   C     C_3   0.778724 0.669295 0.601105 0.076289
C81   C     C_3   0.692562 0.644336 0.630880 -0.772569
C82   C     C_3   0.220087 0.329277 0.401318 0.077257
C83   C     C_3   0.305721 0.354097 0.370749 -0.790694
C84   C     C_R   0.478671 0.583297 0.297131 -0.341427
H1    H     H_    0.265409 0.451861 0.947502 0.190633
H2    H     H_    0.392148 0.973387 0.672372 0.162267
H3    H     H_    0.309787 0.902344 0.748534 0.209431
H4    H     H_    0.231002 0.946740 0.697328 0.276016
H5    H     H_    0.255161 0.819814 0.701078 0.228696
H6    H     H_    0.575752 0.188212 0.346886 0.127267
H7    H     H_    0.567138 0.065156 0.324046 0.104213
H8    H     H_    0.714732 0.077239 0.276244 0.250468
H9    H     H_    0.634949 0.162250 0.249195 0.231146
H10   H     H_    0.720410 0.201793 0.297170 0.249502
H11   H     H_    0.648001 0.922260 0.312058 0.163489
H12   H     H_    0.704699 0.537340 0.052924 0.190587
H13   H     H_    0.580085 0.834818 0.347992 0.096663
H14   H     H_    0.707974 0.723651 0.352927 0.249665
H15   H     H_    0.687163 0.759372 0.280200 0.191902
H16   H     H_    0.777958 0.811512 0.319010 0.271742
H17   H     H_    0.202740 0.044785 0.563316 0.170800
H18   H     H_    0.250705 0.145167 0.525400 0.148851
H19   H     H_    0.208449 0.254436 0.604709 0.258823
H20   H     H_    0.113630 0.192781 0.575862 0.206909
H21   H     H_    0.160317 0.155270 0.643151 0.258206
H22   H     H_    0.264414 0.449988 0.051293 0.190146
H23   H     H_    0.079247 0.733496 0.539422 0.177950
H24   H     H_    0.705655 0.539327 0.949228 0.190770
H25   H     H_    0.374666 0.292416 0.221607 0.166182
H26   H     H_    0.454425 0.226067 0.264077 0.122503
H27   H     H_    0.506642 0.140962 0.176709 0.249564
H28   H     H_    0.389316 0.125274 0.188083 0.204263
H29   H     H_    0.427871 0.207671 0.134354 0.265234
H30   H     H_    0.608159 0.326335 0.811908 0.160585
H31   H     H_    0.577984 0.256311 0.749218 0.142385
H32   H     H_    0.497468 0.142095 0.811388 0.258845
H33   H     H_    0.612225 0.152960 0.831837 0.206150
H34   H     H_    0.921187 0.264279 0.465471 0.181555
H35   H     H_    0.527141 0.212258 0.873673 0.259109
H36   H     H_    0.515531 0.345572 0.320126 0.163378
H37   H     H_    0.482048 0.346005 0.679065 0.190772
H38   H     H_    0.468680 0.650213 0.319910 0.177115
H39   H     H_    0.506299 0.654218 0.681867 0.179112
H40   H     H_    0.589906 0.695760 0.205309 0.170299
H41   H     H_    0.522145 0.764295 0.255580 0.128341
H42   H     H_    0.448021 0.845301 0.174613 0.258976
H43   H     H_    0.566560 0.861495 0.172640 0.200836
H44   H     H_    0.515052 0.776663 0.124665 0.261928
H45   H     H_    0.604715 0.754942 0.440871 0.173226
H46   H     H_    0.368549 0.661703 0.818550 0.166247
H47   H     H_    0.390457 0.733608 0.755786 0.138834
H48   H     H_    0.464781 0.854978 0.816061 0.254003
H49   H     H_    0.354192 0.832257 0.842227 0.205696
H50   H     H_    0.448388 0.781594 0.878654 0.265065
H51   H     H_    0.785719 0.263166 0.382391 0.199430
H52   H     H_    0.852275 0.367806 0.382452 0.131761
H53   H     H_    0.713203 0.469393 0.376851 0.234752
H54   H     H_    0.725940 0.387359 0.317476 0.229990
H55   H     H_    0.649505 0.360158 0.374116 0.261964
H56   H     H_    0.395795 0.244687 0.559647 0.176181
H57   H     H_    0.151658 0.623985 0.621454 0.127481
H58   H     H_    0.208464 0.735175 0.620113 0.193193
H59   H     H_    0.352617 0.654047 0.630917 0.256593
H60   H     H_    0.277658 0.617149 0.686231 0.210335
H61   H     H_    0.299874 0.538095 0.626515 0.242472
H62   H     H_    0.794454 0.745054 0.611289 0.162295
H63   H     H_    0.832983 0.624678 0.619554 0.126060
H64   H     H_    0.677244 0.567697 0.623434 0.233458
H65   H     H_    0.698778 0.657018 0.677557 0.220426
H66   H     H_    0.638057 0.689738 0.614202 0.269508
H67   H     H_    0.395941 0.758561 0.559798 0.189566
H68   H     H_    0.165436 0.373811 0.383283 0.134788
H69   H     H_    0.204154 0.253481 0.391380 0.150416
H70   H     H_    0.360731 0.308912 0.386970 0.264801
H71   H     H_    0.298567 0.341183 0.324155 0.196306
H72   H     H_    0.321082 0.430791 0.377887 0.242913
H73   H     H_    0.919766 0.734685 0.537927 0.176867
H74   H     H_    0.080740 0.263275 0.466602 0.166906
H75   H     H_    0.603248 0.242069 0.439757 0.184574
H76   H     H_    0.406239 0.845054 0.665981 0.118583
N1    N     N_R   0.486429 0.498089 0.852563 -0.325027
N2    N     N_R   0.483568 0.493189 0.147851 -0.313665
N3    N     N_R   0.500000 0.750030 0.500000 -0.130231
N4    N     N_R   0.500000 0.249970 0.500000 -0.127615
O1    O     O_R   0.367850 0.580280 0.500010 -0.577803
O2    O     O_2   0.330642 0.462903 0.149108 -0.575066
O3    O     O_2   0.333440 0.467848 0.850338 -0.562482
O4    O     O_2   0.636771 0.522072 0.149919 -0.583325
O5    O     O_3   0.322364 0.903944 0.605669 -0.613125
O6    O     O_3   0.665779 0.095627 0.385295 -0.584390
O7    O     O_3   0.681378 0.899444 0.396655 -0.568101
O8    O     O_3   0.315744 0.102263 0.600216 -0.604833
O9    O     O_3   0.508538 0.324240 0.207452 -0.599871
O10   O     O_3   0.473929 0.327102 0.790500 -0.580122
O11   O     O_3   0.454641 0.663623 0.206867 -0.592907
O12   O     O_R   0.632150 0.419720 0.499990 -0.576738
O13   O     O_3   0.501096 0.671100 0.793281 -0.584715
O14   O     O_3   0.771437 0.342541 0.455832 -0.592166
O15   O     O_3   0.229768 0.655362 0.547513 -0.590948
O16   O     O_3   0.768672 0.660708 0.541043 -0.582500
O17   O     O_3   0.231225 0.338072 0.461288 -0.601552
O18   O     O_R   0.632150 0.580280 0.499990 -0.581049
O19   O     O_R   0.367850 0.419720 0.500010 -0.584284
O20   O     O_R   0.499970 0.580290 0.416160 -0.636051
O21   O     O_R   0.500030 0.419710 0.583840 -0.632510
O22   O     O_R   0.500030 0.580290 0.583840 -0.641915
O23   O     O_R   0.499970 0.419710 0.416160 -0.646720
O24   O     O_2   0.639618 0.527442 0.851720 -0.564948
Zn1   Zn    Zn3+2 0.500000 0.607200 0.500000 0.961132
Zn2   Zn    Zn3+2 0.500000 0.392800 0.500000 0.959269

loop_
_geom_bond_atom_site_label_1
_geom_bond_atom_site_label_2
_ccdc_geom_bond_type
C42   O24   S    
C66   C68   S    
C73   H47   S    
C34   C56   A    
C23   C45   A    
C74   H48   S    
C73   C74   S    
C29   N3    A    
C2    C4    A    
C28   H56   S    
C30   N4    A    
C4    O13   S    
C1    O19   A    
C42   N1    A    
O21   Zn2   S    
C47   C49   A    
C83   H70   S    
C2    H39   S    
C27   C33   A    
C64   H18   S    
C62   O7    S    
C82   O17   S    
C28   N4    A    
C77   O15   S    
C46   O4    S    
C72   H44   S    
C34   O10   S    
C80   O16   S    
C36   C37   A    
C35   C37   A    
C24   C26   A    
C63   H14   S    
C31   C36   A    
C59   H5    S    
C11   C14   A    
C61   H9    S    
C43   C52   A    
C43   O2    S    
C83   H71   S    
C70   H33   S    
C84   H38   S    
C81   H66   S    
C74   H49   S    
C33   C36   A    
C56   C78   A    
C18   C19   A    
C68   H28   S    
C32   C39   A    
C75   O14   S    
C14   C18   A    
C59   H4    S    
O23   Zn2   S    
C63   H15   S    
C27   N3    A    
C77   H58   S    
C82   H69   S    
O12   Zn2   S    
C5    N2    S    
C80   H63   S    
C79   H59   S    
C28   C35   A    
C17   O21   A    
C49   C51   A    
C22   C25   A    
C45   C67   A    
C50   C52   A    
C66   O9    S    
C51   C57   A    
O18   Zn1   S    
C70   H35   S    
C54   H12   S    
C44   C47   A    
C68   H29   S    
C47   C53   A    
C73   O13   S    
C48   C50   A    
C67   C84   A    
C62   H11   S    
C30   H75   S    
N4    Zn2   S    
C58   H2    S    
C65   H21   S    
C24   H74   S    
C46   C48   A    
C53   C55   A    
C64   H17   S    
C41   O8    S    
C12   O18   A    
C69   H30   S    
C33   C40   A    
C55   H22   S    
C71   H40   S    
C58   O5    S    
C60   H6    S    
C38   C41   A    
C79   H61   S    
C39   C40   A    
C61   H10   S    
C83   H72   S    
C72   H43   S    
C70   H32   S    
C58   C59   S    
C76   H53   S    
C10   C13   A    
C6    C34   A    
C7    O14   S    
C72   H42   S    
C60   C61   S    
C68   H27   S    
C48   C54   A    
C15   C19   A    
C75   C76   S    
C63   H16   S    
C2    C78   A    
C29   H67   S    
C62   H13   S    
C69   O10   S    
O1    Zn1   S    
C79   H60   S    
C5    C23   A    
C6    N1    S    
C1    O1    A    
C17   O22   A    
C81   H64   S    
C62   C63   S    
C16   O20   A    
C8    C21   A    
C77   C79   S    
N3    Zn1   S    
C16   C67   S    
C32   C37   A    
C66   H26   S    
C9    C11   A    
C59   H3    S    
C45   H36   S    
C4    C6    A    
C15   C24   A    
C49   C50   A    
C13   O17   S    
C13   C15   A    
C27   H45   S    
C44   N1    A    
C65   H19   S    
O19   Zn2   S    
C25   H23   S    
C38   O5    S    
C60   H7    S    
C3    O11   S    
C7    C9    A    
C21   C25   A    
C73   H46   S    
C69   H31   S    
C19   C21   A    
C75   H52   S    
C1    C10   S    
C26   H34   S    
C80   C81   S    
C3    C5    A    
C16   O23   A    
C52   C55   A    
C23   O9    S    
C22   H73   S    
C76   H54   S    
C39   O6    S    
C42   C51   A    
C31   C38   A    
C12   O12   A    
C60   O6    S    
C56   H37   S    
C14   C22   A    
O22   Zn1   S    
C71   C72   S    
C29   C31   A    
C58   H76   S    
C64   C65   S    
C30   C32   A    
C8    O15   S    
C75   H51   S    
C20   C26   A    
C81   H65   S    
C74   H50   S    
C80   H62   S    
C17   C78   S    
C61   H8    S    
C71   O11   S    
C18   C20   A    
C66   H25   S    
C69   C70   S    
C35   C41   A    
C9    C12   S    
C77   H57   S    
C64   O8    S    
C43   N2    A    
C57   H24   S    
C76   H55   S    
C8    C10   A    
C7    C20   A    
C46   N2    A    
C3    C84   A    
O20   Zn1   S    
C71   H41   S    
C53   H1    S    
C11   O16   S    
C65   H20   S    
C82   C83   S    
C44   O3    S    
C40   O7    S    
C82   H68   S    
C54   C57   A    
