data_mof_unit_40132.cif
_audit_creation_date              2012-12-10T19:44:59-0500
_audit_creation_method            fapswitch 2.2
_symmetry_space_group_name_H-M    P1
_symmetry_Int_Tables_number       1
_space_group_crystal_system       triclinic
_cell_length_a                    15.07998
_cell_length_b                    10.83445
_cell_length_c                    13.678667
_cell_angle_alpha                 90.162898
_cell_angle_beta                  89.924589
_cell_angle_gamma                 89.836028
_cell_volume                      2234.84546366

loop_
_atom_site_label
_atom_site_type_symbol
_atom_type_description
_atom_site_fract_x
_atom_site_fract_y
_atom_site_fract_z
_atom_type_partial_charge
C1    C     C_R   0.497529 0.262132 0.499663 0.799082
C2    C     C_R   0.576780 0.880652 0.669367 0.111809
C3    C     C_R   0.461884 0.103863 0.237857 -0.142789
C4    C     C_R   0.538110 0.896137 0.762141 -0.142788
C5    C     C_R   0.424540 0.161027 0.156090 -0.120944
C6    C     C_R   0.575450 0.838974 0.843910 -0.120947
C7    C     C_R   0.348308 0.233587 0.166247 -0.108037
C8    C     C_R   0.651681 0.766414 0.833758 -0.108037
C9    C     C_R   0.469809 0.932966 0.419452 -0.227499
C10   C     C_R   0.530193 0.067034 0.580547 -0.227500
C11   C     C_R   0.504332 0.871737 0.500994 -0.077113
C12   C     C_R   0.502471 0.737868 0.500337 0.799083
C13   C     C_R   0.495669 0.128263 0.499006 -0.077113
C14   C     C_R   0.535802 0.939261 0.582437 0.006422
C15   C     C_R   0.464199 0.060739 0.417562 0.006424
C16   C     C_R   0.328445 0.500213 0.500059 0.814099
C17   C     C_R   0.671555 0.499787 0.499941 0.814100
C18   C     C_R   0.555443 0.422265 0.793008 0.025894
C19   C     C_R   0.444557 0.577735 0.206992 0.025895
C20   C     C_R   0.444471 0.578014 0.793144 0.054073
C21   C     C_R   0.555528 0.421985 0.206856 0.054072
C22   C     C_R   0.442790 0.580793 0.896551 -0.045471
C23   C     C_R   0.046502 0.509560 0.322041 -0.206785
C24   C     C_R   0.557209 0.419205 0.103449 -0.045471
C25   C     C_R   0.499788 0.500327 0.948127 0.050235
C26   C     C_R   0.500211 0.499672 0.051873 0.050235
C27   C     C_R   0.556485 0.420395 0.895943 -0.033698
C28   C     C_R   0.443514 0.579604 0.104057 -0.033697
C29   C     C_R   0.386510 0.661077 0.949960 0.129528
C30   C     C_R   0.613489 0.338921 0.050040 0.129530
C31   C     C_R   0.387266 0.659724 0.052649 -0.227732
C32   C     C_R   0.612733 0.340274 0.947351 -0.227732
C33   C     C_R   0.814611 0.494286 0.588701 -0.255609
C34   C     C_R   0.953498 0.490441 0.677960 -0.206783
C35   C     C_R   0.185389 0.505715 0.411300 -0.255615
C36   C     C_R   0.768376 0.499435 0.499874 -0.077709
C37   C     C_R   0.231624 0.500567 0.500127 -0.077710
C38   C     C_R   0.814838 0.504170 0.411039 -0.224879
C39   C     C_R   0.185161 0.495833 0.588961 -0.224877
C40   C     C_R   0.907225 0.504348 0.410463 0.102919
C41   C     C_R   0.092775 0.495655 0.589537 0.102919
C42   C     C_R   0.953524 0.499815 0.499967 0.064594
C43   C     C_R   0.046476 0.500189 0.500034 0.064595
C44   C     C_R   0.906966 0.494824 0.589399 0.107670
C45   C     C_R   0.308656 0.247912 0.258010 -0.112050
C46   C     C_R   0.093034 0.505178 0.410602 0.107671
C47   C     C_R   0.954048 0.509116 0.321970 -0.187964
C48   C     C_R   0.045952 0.490886 0.678031 -0.187965
C49   C     C_R   0.691337 0.752088 0.741997 -0.112050
C50   C     C_R   0.345637 0.190713 0.339994 -0.092340
C51   C     C_R   0.654361 0.809287 0.660012 -0.092341
C52   C     C_R   0.423218 0.119347 0.330634 0.111808
Cu1   Cu    Cu3+1 0.500010 0.499980 0.597420 0.950342
Cu2   Cu    Cu3+1 0.499990 0.500020 0.402580 0.950343
H1    H     H_    0.778855 0.489560 0.657396 0.151081
H2    H     H_    0.656291 0.278180 0.907614 0.165677
H3    H     H_    0.779252 0.507885 0.342264 0.165719
H4    H     H_    0.220748 0.492118 0.657737 0.165719
H5    H     H_    0.919171 0.512536 0.252806 0.157424
H6    H     H_    0.080829 0.487463 0.747195 0.157424
H7    H     H_    0.081611 0.513270 0.252934 0.148169
H8    H     H_    0.918389 0.486727 0.747068 0.148169
H9    H     H_    0.319902 0.278528 0.102987 0.136660
H10   H     H_    0.680085 0.721473 0.897019 0.136661
H11   H     H_    0.249237 0.303309 0.265569 0.125455
H12   H     H_    0.221145 0.510439 0.342606 0.151082
H13   H     H_    0.750757 0.696691 0.734442 0.125456
H14   H     H_    0.314472 0.202899 0.410775 0.108982
H15   H     H_    0.685529 0.797100 0.589233 0.108983
H16   H     H_    0.521522 0.048955 0.229174 0.154967
H17   H     H_    0.478472 0.951045 0.770821 0.154967
H18   H     H_    0.455093 0.149830 0.084952 0.153803
H19   H     H_    0.544894 0.850172 0.915047 0.153805
H20   H     H_    0.444260 0.880893 0.357801 0.153995
H21   H     H_    0.555742 0.119107 0.642199 0.153995
H22   H     H_    0.598775 0.361490 0.751828 0.123877
H23   H     H_    0.401225 0.638510 0.248172 0.123877
H24   H     H_    0.402048 0.638050 0.750995 0.164290
H25   H     H_    0.597951 0.361949 0.249005 0.164290
H26   H     H_    0.343708 0.721818 0.092386 0.165677
I1    I     I_    0.298663 0.788095 0.881999 -0.454775
I2    I     I_    0.701335 0.211902 0.118001 -0.454772
N1    N     N_R   0.499960 0.499900 0.743810 -0.189169
N2    N     N_R   0.500040 0.500100 0.256190 -0.189170
O1    O     O_R   0.500000 0.319630 0.582270 -0.590480
O2    O     O_R   0.500000 0.680370 0.417730 -0.590480
O3    O     O_R   0.499990 0.319660 0.417730 -0.573135
O4    O     O_R   0.500010 0.680340 0.582270 -0.573135
O5    O     O_R   0.370260 0.499960 0.582280 -0.587319
O6    O     O_R   0.629740 0.500040 0.417720 -0.587319
O7    O     O_R   0.370250 0.499990 0.417740 -0.591272
O8    O     O_R   0.629750 0.500010 0.582260 -0.591273

loop_
_geom_bond_atom_site_label_1
_geom_bond_atom_site_label_2
_ccdc_geom_bond_type
C1    O3    A    
C40   C47   A    
C38   C40   A    
C33   H1    S    
C22   C29   A    
Cu2   N2    S    
C31   H26   S    
C39   C41   A    
Cu1   Cu2   S    
C7    C45   A    
C35   C37   A    
C24   C26   A    
Cu2   O6    S    
C5    H18   S    
Cu2   O3    S    
C11   C14   A    
C34   H8    S    
C33   C36   A    
C19   H23   S    
C45   H11   S    
C49   C51   A    
C22   C25   A    
C50   C52   A    
C17   C36   S    
C16   C37   S    
C40   C42   A    
C16   O5    A    
C23   C46   A    
C17   O6    A    
C41   C43   A    
C17   O8    A    
C42   C44   A    
C48   H6    S    
C1    O1    A    
C23   C47   A    
C12   O4    A    
C3    H16   S    
C34   C44   A    
C4    C6    A    
C10   C14   A    
Cu2   O2    S    
C6    C8    A    
C35   H12   S    
C25   C26   A    
C39   H4    S    
C30   I2    S    
C2    C4    A    
C29   I1    S    
C38   H3    S    
C10   H21   S    
C21   N2    A    
C3    C52   A    
C21   H25   S    
Cu1   O8    S    
C18   N1    A    
C15   C52   S    
C19   C28   A    
C9    C11   A    
C7    H9    S    
C8    H10   S    
C20   C22   A    
C13   C15   A    
Cu1   O5    S    
C21   C24   A    
C1    C13   S    
C9    H20   S    
C19   N2    A    
C6    H19   S    
C5    C7    A    
C18   H22   S    
C49   H13   S    
C27   C32   A    
C33   C44   A    
C28   C31   A    
C18   C27   A    
C3    C5    A    
C10   C13   A    
C11   C12   S    
C12   O2    A    
C25   C27   A    
C26   C28   A    
C20   H24   S    
Cu1   N1    S    
C36   C38   A    
C9    C15   A    
Cu2   O7    S    
C29   C31   A    
C30   C32   A    
C45   C50   A    
C41   C48   A    
Cu1   O4    S    
C2    C14   S    
C43   C46   A    
C24   C30   A    
C2    C51   A    
C47   H5    S    
C23   H7    S    
C34   C48   A    
C16   O7    A    
C37   C39   A    
C42   C43   A    
C20   N1    A    
Cu1   O1    S    
C51   H15   S    
C35   C46   A    
C50   H14   S    
C8    C49   A    
C32   H2    S    
C4    H17   S    
