data_mof_unit_6047.cif
_audit_creation_date              2012-12-10T18:03:58-0500
_audit_creation_method            fapswitch 2.2
_symmetry_space_group_name_H-M    P1
_symmetry_Int_Tables_number       1
_space_group_crystal_system       triclinic
_cell_length_a                    10.804704
_cell_length_b                    9.551387
_cell_length_c                    10.824083
_cell_angle_alpha                 89.502218
_cell_angle_beta                  91.204409
_cell_angle_gamma                 90.353159
_cell_volume                      1116.73546064

loop_
_atom_site_label
_atom_site_type_symbol
_atom_type_description
_atom_site_fract_x
_atom_site_fract_y
_atom_site_fract_z
_atom_type_partial_charge
C1    C     C_R   0.262521 0.499514 0.496239 0.828587
C2    C     C_R   0.737793 0.499883 0.495697 0.837799
C3    C     C_R   0.434128 0.075403 0.413030 -0.151371
C4    C     C_R   0.563382 0.074743 0.588787 -0.132930
C5    C     C_R   0.428643 0.926260 0.415868 0.463140
C6    C     C_R   0.563852 0.925977 0.590024 0.483598
C7    C     C_R   0.504047 0.500441 0.262467 0.843054
C8    C     C_R   0.505120 0.499603 0.737637 0.827615
C9    C     C_R   0.488239 0.621076 0.061636 0.069227
C10   C     C_R   0.488409 0.620198 0.934915 0.124812
C11   C     C_R   0.520208 0.501836 0.129788 -0.138294
C12   C     C_R   0.520681 0.500526 0.871049 -0.128269
C13   C     C_R   0.574568 0.388216 0.068290 0.084105
C14   C     C_R   0.574830 0.387812 0.937579 0.078905
C15   C     C_3   0.374675 0.707481 0.923593 -0.476393
C16   C     C_3   0.374061 0.708238 0.063717 -0.424220
C17   C     C_R   0.063669 0.395016 0.423526 0.328418
C18   C     C_R   0.934073 0.389321 0.429802 0.341386
C19   C     C_R   0.871976 0.498709 0.489231 -0.158058
C20   C     C_R   0.128999 0.498684 0.490183 -0.169966
C21   C     C_R   0.938909 0.607679 0.544414 -0.273750
C22   C     C_R   0.066245 0.605694 0.548393 -0.260045
Cu1   Cu    Cu3+1 0.500000 0.640660 0.500000 0.994919
Cu2   Cu    Cu3+1 0.500000 0.359340 0.500000 0.979897
H1    H     H_    0.393996 0.812137 0.882295 0.223469
H2    H     H_    0.294084 0.650646 0.102854 0.189065
H3    H     H_    0.294790 0.650008 0.881348 0.181896
H4    H     H_    0.392384 0.813847 0.102411 0.240230
H5    H     H_    0.893258 0.693265 0.587088 0.151313
H6    H     H_    0.115753 0.688032 0.597234 0.166040
H7    H     H_    0.383170 0.133173 0.342973 0.167589
H8    H     H_    0.610339 0.131815 0.661276 0.181184
N1    N     N_R   0.500000 0.852070 0.500000 -0.233345
N2    N     N_R   0.500000 0.147940 0.500000 -0.200684
O1    O     O_R   0.319640 0.618740 0.499990 -0.571606
O2    O     O_R   0.680360 0.618740 0.500010 -0.599578
O3    O     O_R   0.319620 0.381170 0.499990 -0.549833
O4    O     O_R   0.680380 0.381170 0.500010 -0.551098
O5    O     O_R   0.499990 0.618810 0.319660 -0.547661
O6    O     O_R   0.500010 0.618810 0.680340 -0.540908
O7    O     O_R   0.499960 0.381240 0.319650 -0.553879
O8    O     O_R   0.500040 0.381240 0.680350 -0.566833
N3    N     N_3   0.627287 0.273911 0.138053 -0.543016
H9    H     H_    0.581089 0.181447 0.113611 0.208596
H10   H     H_    0.720673 0.264903 0.116366 0.236477
N4    N     N_3   0.628779 0.274039 0.872864 -0.596822
H11   H     H_    0.721947 0.266989 0.899873 0.208335
H12   H     H_    0.583354 0.181354 0.897560 0.225151
O9    O     O_3   0.125471 0.301252 0.350268 -0.588596
C23   C     C_3   0.133853 0.359807 0.230295 0.096177
H13   H     H_    0.195987 0.453132 0.231371 0.110910
H14   H     H_    0.040998 0.390351 0.192408 0.159229
C24   C     C_3   0.187662 0.252847 0.143392 -0.809498
H15   H     H_    0.131724 0.154910 0.145115 0.249365
H16   H     H_    0.186860 0.295736 0.047684 0.199982
H17   H     H_    0.284760 0.229275 0.170915 0.240345
O10   O     O_3   0.867810 0.289464 0.363438 -0.564063
C25   C     C_3   0.877672 0.158484 0.424591 0.122958
H18   H     H_    0.837571 0.163311 0.518426 0.130732
H19   H     H_    0.975510 0.123482 0.433361 0.159434
C26   C     C_3   0.806403 0.049137 0.349968 -0.794881
H20   H     H_    0.845358 0.041455 0.256132 0.243816
H21   H     H_    0.813546 0.945325 0.396410 0.185282
H22   H     H_    0.707349 0.078525 0.341416 0.265344
O11   O     O_3   0.350484 0.855162 0.334762 -0.566171
C27   C     C_3   0.226128 0.891634 0.357838 0.065991
H23   H     H_    0.208028 0.003802 0.336737 0.159467
H24   H     H_    0.203063 0.869983 0.456000 0.149656
C28   C     C_3   0.138807 0.806508 0.275631 -0.809798
H25   H     H_    0.157273 0.693240 0.287914 0.242124
H26   H     H_    0.041443 0.827357 0.300427 0.213399
H27   H     H_    0.151333 0.836345 0.177313 0.232985
O12   O     O_3   0.607591 0.856964 0.694643 -0.563047
C29   C     C_3   0.737861 0.865048 0.705684 0.088673
H28   H     H_    0.784775 0.896122 0.618723 0.103159
H29   H     H_    0.769741 0.758787 0.732714 0.171593
C30   C     C_3   0.778371 0.962349 0.809931 -0.904808
H30   H     H_    0.716125 0.950708 0.889810 0.268803
H31   H     H_    0.874232 0.936341 0.840852 0.216394
H32   H     H_    0.778985 0.072256 0.776828 0.228797

loop_
_geom_bond_atom_site_label_1
_geom_bond_atom_site_label_2
_ccdc_geom_bond_type
C16   H4    S    
C27   H24   S    
C28   H27   S    
Cu2   O8    S    
O12   C29   S    
C14   N4    S    
C24   H15   S    
C7    C11   S    
C29   H29   S    
C19   C21   A    
C9    C16   S    
C8    O8    A    
C10   C15   S    
C15   H1    S    
C27   C28   S    
C25   H19   S    
C15   C16   S    
C17   C20   A    
C28   H26   S    
C18   C19   A    
O9    C23   S    
C15   H3    S    
Cu1   N1    S    
C29   C30   S    
C5    N1    A    
Cu2   O4    S    
Cu1   Cu2   S    
C9    C10   A    
C1    O3    A    
C24   H17   S    
C25   C26   S    
C30   H31   S    
C27   H23   S    
C13   C14   A    
Cu2   O7    S    
C28   H25   S    
Cu2   O3    S    
C4    N2    A    
C24   H16   S    
C16   H2    S    
N4    H12   S    
C23   C24   S    
C29   H28   S    
C4    C6    A    
C17   O9    S    
C3    N2    A    
C23   H13   S    
C25   H18   S    
C30   H30   S    
C21   H5    S    
Cu2   N2    S    
C26   H22   S    
N3    H9    S    
C9    C11   A    
C2    O4    A    
C18   O10   S    
C23   H14   S    
C8    C12   S    
C26   H21   S    
C17   C18   A    
C3    H7    S    
N3    H10   S    
C4    H8    S    
C10   C12   A    
C5    O11   S    
C12   C14   A    
O11   C27   S    
Cu1   O1    S    
C13   N3    S    
C1    O1    A    
C6    O12   S    
C30   H32   S    
C2    O2    A    
N4    H11   S    
C1    C20   S    
C22   H6    S    
C2    C19   S    
C20   C22   A    
C3    C5    A    
C6    N1    A    
C11   C13   A    
O10   C25   S    
Cu1   O5    S    
C7    O7    A    
C26   H20   S    
Cu1   O2    S    
C7    O5    A    
C8    O6    A    
C21   C22   A    
Cu1   O6    S    
