data_mof_unit_20235.cif
_audit_creation_date              2012-12-11T14:56:44-0500
_audit_creation_method            fapswitch 2.2
_symmetry_space_group_name_H-M    P1
_symmetry_Int_Tables_number       1
_space_group_crystal_system       triclinic
_cell_length_a                    10.632427
_cell_length_b                    10.65204
_cell_length_c                    17.047619
_cell_angle_alpha                 80.169579
_cell_angle_beta                  90.370567
_cell_angle_gamma                 119.692248
_cell_volume                      1645.72997366

loop_
_atom_site_label
_atom_site_type_symbol
_atom_type_description
_atom_site_fract_x
_atom_site_fract_y
_atom_site_fract_z
_atom_type_partial_charge
C1    C     C_R   0.222268 0.853540 0.128685 0.554678
C2    C     C_1   0.649469 0.343644 0.707254 -0.046293
C3    C     C_R   0.497591 0.794711 0.770318 -0.132017
C4    C     C_R   0.634176 0.271111 0.090068 0.551668
C5    C     C_R   0.513993 0.778100 0.693111 -0.127486
C6    C     C_R   0.648947 0.861420 0.649143 0.029346
C7    C     C_R   0.762659 0.978351 0.678248 -0.138910
C8    C     C_R   0.746563 0.995523 0.756083 -0.139032
C9    C     C_R   0.616055 0.897344 0.803830 0.027088
C10   C     C_R   0.074661 0.888803 0.793590 -0.127851
C11   C     C_R   0.041546 0.871732 0.716552 -0.150881
C12   C     C_R   0.724155 0.272865 0.298875 -0.142671
C13   C     C_R   0.057645 0.769104 0.682668 0.030478
C14   C     C_R   0.088603 0.665732 0.732732 0.015198
C15   C     C_R   0.116243 0.683075 0.811618 -0.121315
C16   C     C_R   0.643641 0.855351 0.124148 0.562546
C17   C     C_R   0.124403 0.802549 0.838653 0.013262
C18   C     C_R   0.710534 0.771667 0.353738 0.567005
C19   C     C_R   0.680877 0.384459 0.399399 0.543365
C20   C     C_R   0.104207 0.810740 0.359314 0.551447
C21   C     C_R   0.675714 0.806447 0.582207 0.551852
C22   C     C_R   0.678432 0.381699 0.624153 0.547518
C23   C     C_R   0.730510 0.268745 0.219362 -0.135918
C24   C     C_R   0.033297 0.773981 0.597537 0.567134
C25   C     C_R   0.211482 0.856052 0.904247 0.540697
C26   C     C_R   0.636999 0.284538 0.861022 0.549681
C27   C     C_R   0.600358 0.895822 0.888794 0.569164
C28   C     C_R   0.535562 0.324231 0.201982 -0.117348
C29   C     C_R   0.528176 0.330267 0.282761 -0.004119
C30   C     C_R   0.634023 0.317249 0.329655 0.035222
C31   C     C_3   0.117848 0.551131 0.707047 -0.260345
C32   C     C_3   0.006133 0.393011 0.744263 -0.419303
C33   C     C_3   0.407049 0.349938 0.314811 -0.266537
C34   C     C_R   0.640458 0.300143 0.169801 0.015768
C35   C     C_3   0.315275 0.230179 0.387243 -0.372583
C36   C     C_1   0.685055 0.830997 0.201711 -0.045959
C37   C     C_1   0.702920 0.806254 0.270577 -0.047986
C38   C     C_1   0.180827 0.825100 0.211412 -0.034572
C39   C     C_1   0.151788 0.820142 0.279956 -0.035450
C40   C     C_1   0.641938 0.322342 0.778042 -0.042249
Cr1   Cr    Cr6+3 0.402240 0.783890 0.019450 1.014781
Cr2   Cr    Cr6+3 0.382360 0.097900 0.991800 1.024149
Cr3   Cr    Cr6+3 0.715380 0.118170 0.988700 1.009762
Cr4   Cr    Cr6+3 0.936650 0.882420 0.465510 0.989337
Cr5   Cr    Cr6+3 0.605770 0.565620 0.493360 0.995391
Cr6   Cr    Cr6+3 0.921340 0.550490 0.496380 1.004838
H1    H     H_    0.458877 0.337036 0.164020 0.130591
H2    H     H_    0.073168 0.978153 0.815069 0.140873
H3    H     H_    0.996291 0.376955 0.810432 0.168455
H4    H     H_    0.899838 0.362331 0.722143 0.192463
H5    H     H_    0.041431 0.318226 0.727420 0.115868
H6    H     H_    0.137808 0.561175 0.642492 0.186063
H7    H     H_    0.219399 0.565356 0.731073 0.111404
H8    H     H_    0.320419 0.128776 0.387007 0.184484
H9    H     H_    0.353450 0.267580 0.444060 0.158749
H10   H     H_    0.200245 0.203546 0.386391 0.144969
H11   H     H_    0.451293 0.460835 0.329244 0.187558
H12   H     H_    0.011935 0.946160 0.681527 0.127261
H13   H     H_    0.332386 0.344749 0.267855 0.131529
H14   H     H_    0.147818 0.612451 0.849394 0.121163
H15   H     H_    0.799590 0.253247 0.334665 0.145697
H16   H     H_    0.805215 0.238583 0.197232 0.149404
H17   H     H_    0.395450 0.721123 0.805841 0.124321
H18   H     H_    0.426029 0.691698 0.669382 0.129022
H19   H     H_    0.866640 0.048796 0.643494 0.119044
H20   H     H_    0.838301 0.078260 0.780378 0.126802
O1    O     O_R   0.521780 0.757110 0.108900 -0.508099
O2    O     O_R   0.805020 0.410040 0.421340 -0.519147
O3    O     O_R   0.049240 0.685450 0.403290 -0.487929
O4    O     O_R   0.275160 0.783810 0.101120 -0.494302
O5    O     O_R   0.077520 0.903010 0.551800 -0.523817
O6    O     O_R   0.802980 0.872780 0.546830 -0.520588
O7    O     O_R   0.578090 0.681300 0.569920 -0.514582
O8    O     O_R   0.608530 0.436370 0.586530 -0.494298
O9    O     O_R   0.798770 0.401880 0.597100 -0.529829
O10   O     O_R   0.043450 0.677890 0.566230 -0.510617
O11   O     O_3   0.821250 0.666180 0.485090 -0.281790
O12   O     O_R   0.513330 0.228330 0.898660 -0.492108
O13   O     O_R   0.237900 0.972600 0.090980 -0.510108
O14   O     O_R   0.511190 0.220540 0.061620 -0.501855
O15   O     O_R   0.736920 0.257720 0.063840 -0.520535
O16   O     O_R   0.710450 0.984050 0.081720 -0.492594
O17   O     O_R   0.524090 0.765520 0.933110 -0.513902
O18   O     O_R   0.277300 0.791600 0.938160 -0.529810
O19   O     O_R   0.240210 0.981010 0.915190 -0.516922
O20   O     O_R   0.739230 0.266130 0.888050 -0.534279
O21   O     O_R   0.712580 0.991850 0.918770 -0.506805
O22   O     O_3   0.499990 0.999980 0.999980 -0.274810
O23   O     O_R   0.083770 0.911170 0.376030 -0.531066
O24   O     O_R   0.808770 0.880340 0.383890 -0.493147
O25   O     O_R   0.584340 0.689460 0.394160 -0.517794
O26   O     O_R   0.614320 0.443940 0.423590 -0.527536

loop_
_geom_bond_atom_site_label_1
_geom_bond_atom_site_label_2
_ccdc_geom_bond_type
C28   H1    S    
C8    H20   S    
C21   O7    A    
C11   C13   A    
C15   H14   S    
C31   H6    S    
Cr6   O10   S    
C7    C8    A    
Cr1   O1    S    
Cr2   O14   S    
C12   C23   A    
C26   O12   A    
Cr3   O22   S    
Cr4   O11   S    
C18   C37   S    
C4    O14   A    
C38   C39   T    
C10   C17   A    
Cr1   O17   S    
C29   C33   S    
Cr4   O5    S    
Cr5   O7    S    
Cr5   O26   S    
Cr6   O3    S    
C19   O26   A    
C23   H16   S    
C4    O15   A    
C8    C9    A    
C2    C22   S    
C25   O18   A    
C11   H12   S    
C14   C31   S    
C28   C34   A    
Cr2   O13   S    
C33   H13   S    
C13   C14   A    
C35   H8    S    
C22   O9    A    
C16   O16   A    
Cr6   O9    S    
C4    C34   S    
C21   O6    A    
C35   H9    S    
C18   O24   A    
Cr2   O19   S    
C20   C39   S    
C24   O10   A    
C6    C21   S    
C5    H18   S    
Cr5   O8    S    
C32   H5    S    
Cr6   O2    S    
C29   C30   A    
C3    C9    A    
C2    C40   T    
C7    H19   S    
C31   C32   S    
C26   O20   A    
C23   C34   A    
C25   O19   A    
C19   O2    A    
C16   O1    A    
C31   H7    S    
C27   O21   A    
C32   H4    S    
C1    C38   S    
Cr2   O12   S    
C10   H2    S    
C1    O13   A    
C20   O3    A    
Cr2   O22   S    
C22   O8    A    
Cr4   O24   S    
C9    C27   S    
C15   C17   A    
Cr1   O22   S    
C28   C29   A    
C33   H11   S    
C12   C30   A    
C35   H10   S    
Cr3   O20   S    
C3    C5    A    
Cr6   O11   S    
C6    C7    A    
C3    H17   S    
C20   O23   A    
C1    O4    A    
C17   C25   S    
C27   O17   A    
Cr3   O21   S    
C16   C36   S    
C12   H15   S    
Cr1   O18   S    
C26   C40   S    
C5    C6    A    
Cr3   O15   S    
C33   C35   S    
Cr4   O6    S    
Cr5   O25   S    
C32   H3    S    
C10   C11   A    
C18   O25   A    
C13   C24   S    
C36   C37   T    
Cr3   O16   S    
C14   C15   A    
Cr5   O11   S    
C19   C30   S    
Cr4   O23   S    
C24   O5    A    
Cr1   O4    S    
