data_mof_unit_12146.cif
_audit_creation_date              2012-12-11T16:21:22-0500
_audit_creation_method            fapswitch 2.2
_symmetry_space_group_name_H-M    P1
_symmetry_Int_Tables_number       1
_space_group_crystal_system       monoclinic
_cell_length_a                    7.214697
_cell_length_b                    37.139444
_cell_length_c                    41.19789
_cell_angle_alpha                 90.0
_cell_angle_beta                  90.000017
_cell_angle_gamma                 90.0
_cell_volume                      11038.9678364

loop_
_atom_site_label
_atom_site_type_symbol
_atom_type_description
_atom_site_fract_x
_atom_site_fract_y
_atom_site_fract_z
_atom_type_partial_charge
O1    O     O_R   0.564240 0.782760 0.216890 -0.536777
O2    O     O_R   0.435760 0.217240 0.783110 -0.536793
O3    O     O_R   0.435760 0.217240 0.716890 -0.536793
O4    O     O_R   0.564240 0.782760 0.283110 -0.536777
O5    O     O_R   0.064240 0.717240 0.283110 -0.536793
O6    O     O_R   0.935760 0.282760 0.716890 -0.536777
O7    O     O_R   0.935760 0.282760 0.783110 -0.536777
O8    O     O_R   0.064240 0.717240 0.216890 -0.536793
O9    O     O_R   0.234510 0.787070 0.282870 -0.541096
O10   O     O_R   0.765490 0.212930 0.717130 -0.541125
O11   O     O_R   0.765490 0.212930 0.782870 -0.541125
O12   O     O_R   0.234510 0.787070 0.217130 -0.541096
O13   O     O_R   0.734510 0.712930 0.217130 -0.541125
O14   O     O_R   0.265490 0.287070 0.782870 -0.541096
O15   O     O_R   0.265490 0.287070 0.717130 -0.541096
O16   O     O_R   0.734510 0.712930 0.282870 -0.541125
C1    C     C_R   0.403115 0.795770 0.293597 0.702812
C2    C     C_R   0.596910 0.204209 0.706423 0.702368
C3    C     C_R   0.596910 0.204209 0.793577 0.702368
C4    C     C_R   0.403115 0.795770 0.206403 0.702813
C5    C     C_R   0.903090 0.704209 0.206423 0.702368
C6    C     C_R   0.096885 0.295770 0.793597 0.702812
C7    C     C_R   0.096885 0.295770 0.706403 0.702813
C8    C     C_R   0.903090 0.704209 0.293577 0.702368
O17   O     O_3   0.397750 0.727090 0.250000 -0.374716
O18   O     O_3   0.602250 0.272910 0.750000 -0.374621
O19   O     O_3   0.897750 0.772910 0.250000 -0.374621
O20   O     O_3   0.102250 0.227090 0.750000 -0.374716
V1    V     V_3+5 0.122890 0.754250 0.250000 1.417461
V2    V     V_3+5 0.877110 0.245750 0.750000 1.417376
V3    V     V_3+5 0.622890 0.745750 0.250000 1.417376
V4    V     V_3+5 0.377110 0.254250 0.750000 1.417461
C9    C     C_R   0.860557 0.606890 0.425787 0.579663
C10   C     C_R   0.120614 0.391471 0.573223 0.580299
C11   C     C_R   0.120614 0.391471 0.926777 0.580299
C12   C     C_R   0.860557 0.606890 0.074213 0.579663
C13   C     C_R   0.379386 0.891471 0.073223 0.580299
C14   C     C_R   0.639443 0.106890 0.925787 0.579663
C15   C     C_R   0.639443 0.106890 0.574213 0.579663
C16   C     C_R   0.379384 0.891471 0.426777 0.580300
O21   O     O_2   0.768924 0.638246 0.429884 -0.522371
O22   O     O_2   0.198479 0.358874 0.568335 -0.520934
O23   O     O_2   0.198479 0.358874 0.931665 -0.520934
O24   O     O_2   0.768924 0.638246 0.070116 -0.522371
O25   O     O_2   0.301521 0.858874 0.068335 -0.520934
O26   O     O_2   0.731076 0.138246 0.929884 -0.522371
O27   O     O_2   0.731077 0.138246 0.570116 -0.522371
O28   O     O_2   0.301517 0.858874 0.431665 -0.520934
N1    N     N_R   0.942346 0.599492 0.396637 -0.560918
N2    N     N_R   0.053892 0.400198 0.603218 -0.561104
N3    N     N_R   0.053892 0.400198 0.896781 -0.561104
N4    N     N_R   0.942345 0.599492 0.103363 -0.560918
N5    N     N_R   0.446108 0.900198 0.103219 -0.561104
N6    N     N_R   0.557655 0.099492 0.896637 -0.560918
N7    N     N_R   0.557655 0.099492 0.603363 -0.560918
N8    N     N_R   0.446108 0.900198 0.396781 -0.561104
C17   C     C_R   0.035676 0.567892 0.391681 0.607554
C18   C     C_R   0.974025 0.432988 0.609019 0.608981
C19   C     C_R   0.974025 0.432989 0.890981 0.608981
C20   C     C_R   0.035676 0.567892 0.108319 0.607553
C21   C     C_R   0.525975 0.932988 0.109019 0.608981
C22   C     C_R   0.464324 0.067892 0.891681 0.607553
C23   C     C_R   0.464324 0.067892 0.608318 0.607554
C24   C     C_R   0.525977 0.932988 0.390981 0.608981
C25   C     C_R   0.766553 0.629683 0.352492 -0.014685
C26   C     C_R   0.231979 0.370064 0.647078 -0.015447
C27   C     C_R   0.231980 0.370064 0.852922 -0.015447
C28   C     C_R   0.766553 0.629683 0.147507 -0.014685
C29   C     C_R   0.268020 0.870064 0.147078 -0.015447
C30   C     C_R   0.733447 0.129684 0.852493 -0.014684
C31   C     C_R   0.733447 0.129684 0.647507 -0.014684
C32   C     C_R   0.268021 0.870064 0.352922 -0.015447
C33   C     C_R   0.757582 0.655380 0.327553 -0.223472
C34   C     C_R   0.241885 0.344430 0.672080 -0.222171
C35   C     C_R   0.241885 0.344430 0.827920 -0.222171
C36   C     C_R   0.757582 0.655380 0.172447 -0.223472
C37   C     C_R   0.258115 0.844430 0.172080 -0.222171
C38   C     C_R   0.742418 0.155380 0.827553 -0.223472
C39   C     C_R   0.742418 0.155380 0.672447 -0.223472
C40   C     C_R   0.258115 0.844430 0.327920 -0.222171
C41   C     C_R   0.076411 0.672198 0.338041 -0.188180
C42   C     C_R   0.922470 0.327648 0.662040 -0.188622
C43   C     C_R   0.922470 0.327648 0.837960 -0.188622
C44   C     C_R   0.076411 0.672198 0.161959 -0.188180
C45   C     C_R   0.577530 0.827648 0.162040 -0.188622
C46   C     C_R   0.423589 0.172198 0.838041 -0.188180
C47   C     C_R   0.423589 0.172198 0.661959 -0.188181
C48   C     C_R   0.577530 0.827648 0.337960 -0.188622
C49   C     C_R   0.084788 0.646909 0.363150 -0.081723
C50   C     C_R   0.913114 0.352856 0.636896 -0.079386
C51   C     C_R   0.913114 0.352856 0.863103 -0.079386
C52   C     C_R   0.084787 0.646909 0.136850 -0.081723
C53   C     C_R   0.586886 0.852856 0.136897 -0.079385
C54   C     C_R   0.415213 0.146909 0.863150 -0.081722
C55   C     C_R   0.415213 0.146909 0.636850 -0.081722
C56   C     C_R   0.586886 0.852856 0.363103 -0.079386
C57   C     C_R   0.930555 0.625514 0.370630 0.343919
C58   C     C_R   0.066947 0.374234 0.629218 0.346521
C59   C     C_R   0.066947 0.374234 0.870782 0.346521
C60   C     C_R   0.930555 0.625514 0.129370 0.343920
C61   C     C_R   0.433052 0.874234 0.129218 0.346521
C62   C     C_R   0.569445 0.125514 0.870630 0.343920
C63   C     C_R   0.569445 0.125514 0.629370 0.343919
C64   C     C_R   0.433052 0.874234 0.370782 0.346521
C65   C     C_R   0.971736 0.549793 0.447552 -0.046623
C66   C     C_R   0.025153 0.450088 0.552470 -0.045627
C67   C     C_R   0.025153 0.450088 0.947530 -0.045627
C68   C     C_R   0.971736 0.549793 0.052448 -0.046623
C69   C     C_R   0.474847 0.950088 0.052470 -0.045627
C70   C     C_R   0.528264 0.049793 0.947552 -0.046623
C71   C     C_R   0.528264 0.049793 0.552448 -0.046623
C72   C     C_R   0.474847 0.950088 0.447530 -0.045627
C73   C     C_R   0.871364 0.582094 0.451503 -0.026496
C74   C     C_R   0.108575 0.416177 0.547465 -0.026527
C75   C     C_R   0.108575 0.416177 0.952535 -0.026526
C76   C     C_R   0.871364 0.582094 0.048497 -0.026496
C77   C     C_R   0.391425 0.916177 0.047465 -0.026527
C78   C     C_R   0.628636 0.082094 0.951503 -0.026496
C79   C     C_R   0.628636 0.082094 0.548497 -0.026497
C80   C     C_R   0.391424 0.916177 0.452535 -0.026527
C81   C     C_R   0.783067 0.589080 0.480998 -0.126347
C82   C     C_R   0.176675 0.407304 0.516763 -0.125524
C83   C     C_R   0.176675 0.407304 0.983237 -0.125523
C84   C     C_R   0.783067 0.589080 0.019002 -0.126347
C85   C     C_R   0.323324 0.907304 0.016763 -0.125523
C86   C     C_R   0.716933 0.089080 0.980998 -0.126347
C87   C     C_R   0.716934 0.089080 0.519002 -0.126347
C88   C     C_R   0.323321 0.907305 0.483237 -0.125524
C89   C     C_R   0.057929 0.542602 0.417336 -0.077348
C90   C     C_R   0.955534 0.458794 0.583668 -0.077382
C91   C     C_R   0.955535 0.458794 0.916332 -0.077383
C92   C     C_R   0.057929 0.542602 0.082664 -0.077348
C93   C     C_R   0.544465 0.958794 0.083668 -0.077382
C94   C     C_R   0.442071 0.042602 0.917336 -0.077348
C95   C     C_R   0.442070 0.042602 0.582664 -0.077348
C96   C     C_R   0.544468 0.958794 0.416332 -0.077383
C97   C     C_R   0.912431 0.676918 0.319999 -0.054886
C98   C     C_R   0.087124 0.322971 0.679906 -0.054973
C99   C     C_R   0.087124 0.322971 0.820094 -0.054973
C100  C     C_R   0.912431 0.676918 0.180000 -0.054885
C101  C     C_R   0.412876 0.822971 0.179906 -0.054973
C102  C     C_R   0.587569 0.176918 0.820000 -0.054885
C103  C     C_R   0.587568 0.176918 0.680001 -0.054885
C104  C     C_R   0.412876 0.822971 0.320094 -0.054973
H1    H     H_    0.198112 0.688338 0.333038 0.136469
H2    H     H_    0.800883 0.311542 0.667214 0.136392
H3    H     H_    0.800883 0.311542 0.832786 0.136392
H4    H     H_    0.198112 0.688337 0.166962 0.136469
H5    H     H_    0.699117 0.811542 0.167214 0.136392
H6    H     H_    0.301888 0.188337 0.833038 0.136469
H7    H     H_    0.301888 0.188337 0.666962 0.136469
H8    H     H_    0.699117 0.811542 0.332786 0.136392
H9    H     H_    0.211540 0.644020 0.376968 0.139286
H10   H     H_    0.785857 0.355714 0.623221 0.138608
H11   H     H_    0.785857 0.355714 0.876779 0.138608
H12   H     H_    0.211540 0.644020 0.123032 0.139286
H13   H     H_    0.714143 0.855714 0.123221 0.138607
H14   H     H_    0.288460 0.144020 0.876968 0.139286
H15   H     H_    0.288460 0.144020 0.623032 0.139286
H16   H     H_    0.714143 0.855714 0.376779 0.138608
C105  C     C_R   0.921612 0.508636 0.530888 0.031896
C106  C     C_R   0.083202 0.492075 0.469658 0.032291
C107  C     C_R   0.083202 0.492075 0.030341 0.032291
C108  C     C_R   0.921612 0.508636 0.969112 0.031896
C109  C     C_R   0.416798 0.992075 0.969659 0.032291
C110  C     C_R   0.578388 0.008636 0.030888 0.031896
C111  C     C_R   0.578391 0.008636 0.469112 0.031896
C112  C     C_R   0.416797 0.992075 0.530341 0.032291
C113  C     C_R   0.088534 0.466331 0.495385 0.040313
C114  C     C_R   0.900559 0.532876 0.504208 0.040312
C115  C     C_R   0.900559 0.532876 0.995792 0.040312
C116  C     C_R   0.088534 0.466331 0.004615 0.040312
C117  C     C_R   0.599441 0.032876 0.004208 0.040312
C118  C     C_R   0.411466 0.966331 0.995385 0.040312
C119  C     C_R   0.411464 0.966331 0.504615 0.040312
C120  C     C_R   0.599443 0.032876 0.495792 0.040312
C121  C     C_R   0.011691 0.475121 0.526188 0.066747
C122  C     C_R   0.985255 0.524818 0.473872 0.066158
C123  C     C_R   0.985255 0.524818 0.026128 0.066158
C124  C     C_R   0.011691 0.475121 0.973812 0.066747
C125  C     C_R   0.514745 0.024819 0.973872 0.066158
C126  C     C_R   0.488308 0.975121 0.026188 0.066747
C127  C     C_R   0.488309 0.975121 0.473812 0.066747
C128  C     C_R   0.514745 0.024819 0.526128 0.066158
C129  C     C_R   0.856718 0.516999 0.562354 -0.206156
C130  C     C_R   0.175617 0.486349 0.439871 -0.206663
C131  C     C_R   0.175617 0.486349 0.060129 -0.206663
C132  C     C_R   0.856718 0.516999 0.937646 -0.206156
C133  C     C_R   0.324383 0.986349 0.939871 -0.206662
C134  C     C_R   0.643282 0.016999 0.062354 -0.206156
C135  C     C_R   0.643287 0.016998 0.437646 -0.206156
C136  C     C_R   0.324381 0.986349 0.560129 -0.206663
C137  C     C_R   0.871717 0.492896 0.588239 -0.055616
C138  C     C_R   0.163715 0.510694 0.414128 -0.055272
C139  C     C_R   0.163715 0.510694 0.085872 -0.055272
C140  C     C_R   0.871717 0.492897 0.911761 -0.055617
C141  C     C_R   0.336285 0.010693 0.914128 -0.055273
C142  C     C_R   0.628283 0.992896 0.088239 -0.055616
C143  C     C_R   0.628288 0.992896 0.411762 -0.055617
C144  C     C_R   0.336283 0.010694 0.585872 -0.055272
O29   O     O_2   0.914202 0.440418 0.639285 -0.493862
O30   O     O_2   0.103464 0.560926 0.361850 -0.493033
O31   O     O_2   0.103464 0.560926 0.138150 -0.493032
O32   O     O_2   0.914203 0.440418 0.860715 -0.493862
O33   O     O_2   0.396536 0.060926 0.861850 -0.493032
O34   O     O_2   0.585797 0.940418 0.139285 -0.493862
O35   O     O_2   0.585800 0.940418 0.360716 -0.493862
O36   O     O_2   0.396535 0.060926 0.638150 -0.493032
C145  C     C_R   0.795973 0.564999 0.506683 -0.171878
C146  C     C_R   0.166520 0.431675 0.491274 -0.172148
C147  C     C_R   0.166520 0.431675 0.008726 -0.172147
C148  C     C_R   0.795973 0.564999 0.993317 -0.171878
C149  C     C_R   0.333480 0.931675 0.991274 -0.172147
C150  C     C_R   0.704027 0.065000 0.006683 -0.171878
C151  C     C_R   0.704029 0.064999 0.493317 -0.171877
C152  C     C_R   0.333476 0.931675 0.508726 -0.172148
H17   H     H_    0.369900 0.341568 0.685612 0.140589
H18   H     H_    0.630197 0.658207 0.313832 0.140633
H19   H     H_    0.630196 0.658208 0.186168 0.140633
H20   H     H_    0.369900 0.341568 0.814388 0.140589
H21   H     H_    0.869804 0.158208 0.813832 0.140633
H22   H     H_    0.130100 0.841568 0.185612 0.140589
H23   H     H_    0.130100 0.841568 0.314388 0.140589
H24   H     H_    0.869803 0.158208 0.686168 0.140633
H25   H     H_    0.796244 0.542790 0.567925 0.121686
H26   H     H_    0.263745 0.463299 0.436075 0.121090
H27   H     H_    0.263745 0.463299 0.063925 0.121090
H28   H     H_    0.796244 0.542790 0.932075 0.121686
H29   H     H_    0.236255 0.963299 0.936075 0.121089
H30   H     H_    0.703756 0.042790 0.067925 0.121686
H31   H     H_    0.703763 0.042790 0.432075 0.121686
H32   H     H_    0.236253 0.963300 0.563925 0.121089
H33   H     H_    0.718509 0.572262 0.528021 0.128061
H34   H     H_    0.217458 0.421961 0.468331 0.129112
H35   H     H_    0.217458 0.421961 0.031669 0.129112
H36   H     H_    0.718509 0.572262 0.971979 0.128061
H37   H     H_    0.282541 0.921961 0.968331 0.129112
H38   H     H_    0.781491 0.072262 0.028021 0.128061
H39   H     H_    0.781493 0.072262 0.471979 0.128061
H40   H     H_    0.282536 0.921961 0.531669 0.129112
H41   H     H_    0.702006 0.613347 0.484410 0.172426
H42   H     H_    0.238336 0.381196 0.512163 0.173092
H43   H     H_    0.238335 0.381196 0.987837 0.173092
H44   H     H_    0.702006 0.613348 0.015589 0.172425
H45   H     H_    0.261664 0.881196 0.012163 0.173092
H46   H     H_    0.797994 0.113348 0.984410 0.172425
H47   H     H_    0.797996 0.113347 0.515590 0.172425
H48   H     H_    0.261659 0.881196 0.487837 0.173092
C153  C     C_1   0.390756 0.392377 0.640241 0.333940
N9    N     N_1   0.517518 0.410433 0.634694 -0.302624
C154  C     C_1   0.608131 0.607177 0.358892 0.339397
N10   N     N_1   0.481732 0.588941 0.364127 -0.294543
C155  C     C_1   0.608131 0.607177 0.141107 0.339397
N11   N     N_1   0.481731 0.588941 0.135873 -0.294543
C156  C     C_1   0.390756 0.392377 0.859759 0.333940
N12   N     N_1   0.517518 0.410433 0.865306 -0.302624
C157  C     C_1   0.891869 0.107177 0.858893 0.339397
N13   N     N_1   0.018269 0.088941 0.864127 -0.294543
C158  C     C_1   0.109244 0.892378 0.140241 0.333940
N14   N     N_1   0.982482 0.910433 0.134694 -0.302624
C159  C     C_1   0.109244 0.892378 0.359759 0.333940
N15   N     N_1   0.982483 0.910433 0.365306 -0.302623
C160  C     C_1   0.891869 0.107177 0.641108 0.339397
N16   N     N_1   0.018268 0.088941 0.635873 -0.294543
C161  C     C_1   0.797320 0.504658 0.619085 0.428052
N17   N     N_1   0.737458 0.514210 0.643690 -0.275532
C162  C     C_1   0.268008 0.501986 0.385171 0.428947
N18   N     N_1   0.351896 0.494898 0.362089 -0.276503
C163  C     C_1   0.268008 0.501986 0.114829 0.428947
N19   N     N_1   0.351896 0.494898 0.137911 -0.276503
C164  C     C_1   0.797321 0.504658 0.880915 0.428054
N20   N     N_1   0.737459 0.514210 0.856310 -0.275533
C165  C     C_1   0.231993 0.001986 0.885171 0.428947
N21   N     N_1   0.148105 0.994898 0.862089 -0.276503
C166  C     C_1   0.702680 0.004658 0.119085 0.428053
N22   N     N_1   0.762541 0.014210 0.143689 -0.275533
C167  C     C_1   0.702688 0.004657 0.380915 0.428053
N23   N     N_1   0.762553 0.014209 0.356311 -0.275532
C168  C     C_1   0.231990 0.001986 0.614829 0.428947
N24   N     N_1   0.148101 0.994898 0.637911 -0.276503

loop_
_geom_bond_atom_site_label_1
_geom_bond_atom_site_label_2
_ccdc_geom_bond_type
C69   C126  A    
O17   V3    S    
C94   C141  A    
C48   C56   A    
O18   V4    S    
C93   C142  A    
C167  N23   T    
C67   C124  A    
C86   H46   S    
C12   C76   A    
C7    C98   S    
C29   C37   A    
C166  N22   T    
C10   O22   S    
C130  C138  A    
C65   C122  A    
C108  C115  A    
C90   C137  A    
C71   C95   A    
C20   C92   A    
C31   C39   A    
C89   C138  A    
C32   C64   A    
C27   C35   A    
C21   C93   A    
C39   H24   S    
C82   H42   S    
C143  C167  S    
O16   V3    S    
C41   C97   A    
C106  C113  A    
C19   C91   A    
C32   C159  S    
C83   C147  A    
C66   C74   A    
C1    C104  S    
C55   H15   S    
O8    V1    S    
C17   C89   A    
C2    C103  S    
C150  H38   S    
C135  C143  A    
C149  H37   S    
C22   C94   A    
C46   H6    S    
C136  H32   S    
C159  N15   T    
O12   V1    S    
C14   C78   A    
O19   V1    S    
O6    C7    A    
C36   H19   S    
C9    N1    A    
C164  N20   T    
C26   C34   A    
C132  C140  A    
N7    C63   S    
O1    V3    S    
N1    C17   A    
C134  C142  A    
C140  C164  S    
O2    V4    S    
C157  N13   T    
O1    C4    A    
C110  C134  A    
C96   C143  A    
C105  C129  A    
C46   C54   A    
C42   H2    S    
C114  C145  A    
C85   C149  A    
C28   C155  S    
C30   C157  S    
C111  C127  A    
C91   C140  A    
C70   C125  A    
N5    C61   S    
C40   C104  A    
N7    C23   A    
C17   O30   S    
C65   C73   A    
C92   C139  A    
C109  C133  A    
C168  N24   T    
C82   C146  A    
C11   C75   A    
C112  C136  A    
C81   C145  A    
C110  C126  A    
C84   H44   S    
C11   O23   S    
C161  N17   T    
C22   O33   S    
C108  C124  A    
C139  C163  S    
C27   C59   A    
C21   O34   S    
C29   C158  S    
C41   H1    S    
C13   N5    A    
C116  C124  A    
O15   C7    A    
C26   C153  S    
C117  C125  A    
C41   C49   A    
O16   C8    A    
O7    V2    S    
C68   C92   A    
C163  N19   T    
C86   C150  A    
C48   H8    S    
C118  C126  A    
O3    V4    S    
C45   C53   A    
C72   C96   A    
C19   O32   S    
C113  C121  A    
O3    C2    A    
C148  H36   S    
N6    C62   S    
C165  N21   T    
C72   C127  A    
O5    V1    S    
C44   H4    S    
N3    C19   A    
N3    C59   S    
C10   C74   A    
C24   O35   S    
C18   O29   S    
O9    V1    S    
N2    C58   S    
C14   O26   S    
C55   C63   A    
C69   C93   A    
C88   H48   S    
C46   C102  A    
C160  N16   T    
C75   C83   A    
C9    O21   S    
O11   V2    S    
C154  N10   T    
C25   C33   A    
C45   C101  A    
C95   C144  A    
C106  C130  A    
C120  C128  A    
C18   C90   A    
C15   N7    A    
C65   C89   A    
C142  C166  S    
C84   C148  A    
C16   N8    A    
C109  C118  A    
C116  C147  A    
C6    C99   S    
N4    C60   S    
C4    C101  S    
C68   C123  A    
C49   C57   A    
C134  H30   S    
N2    C18   A    
C69   C77   A    
C81   H41   S    
C28   C60   A    
C51   H11   S    
C107  C116  A    
C39   C103  A    
C66   C90   A    
C131  H27   S    
O10   V2    S    
C20   O31   S    
C49   H9    S    
C14   N6    A    
C48   C104  A    
C144  C168  S    
O11   C3    A    
O12   C4    A    
C118  C149  A    
C30   C62   A    
O8    C5    A    
C153  N9    T    
C120  C151  A    
O13   C5    A    
C47   H7    S    
C52   H12   S    
C83   H43   S    
C53   H13   S    
C70   C78   A    
C112  C128  A    
O14   C6    A    
N8    C64   S    
C135  H31   S    
C87   H47   S    
C26   C58   A    
C88   C152  A    
C43   H3    S    
O4    C1    A    
C15   O27   S    
C71   C79   A    
O9    C1    A    
O6    V2    S    
C114  C122  A    
C3    C102  S    
C27   C156  S    
C23   O36   S    
C56   C64   A    
C68   C76   A    
C11   N3    A    
C43   C99   A    
C146  H34   S    
C12   O24   S    
C145  H33   S    
C50   H10   S    
C105  C114  A    
C36   C100  A    
C53   C61   A    
C158  N14   T    
C16   C80   A    
C111  C135  A    
C52   C60   A    
C72   C80   A    
C30   C38   A    
C133  C141  A    
C16   O28   S    
C31   C63   A    
C47   C55   A    
C110  C117  A    
C66   C121  A    
C56   H16   S    
O2    C3    A    
C119  C127  A    
C130  H26   S    
O13   V3    S    
C138  C162  S    
C129  H25   S    
O14   V4    S    
C108  C132  A    
C31   C160  S    
O15   V4    S    
C54   H14   S    
C10   N2    A    
C162  N18   T    
C80   C88   A    
C29   C61   A    
C8    C97   S    
C28   C36   A    
O7    C6    A    
N6    C22   A    
C12   N4    A    
C152  H40   S    
C9    C73   A    
C42   C50   A    
C107  C131  A    
C137  C161  S    
C119  C152  A    
C115  C123  A    
C67   C91   A    
C38   C102  A    
C117  C150  A    
C109  C125  A    
C32   C40   A    
C35   C99   A    
C42   C98   A    
C40   H23   S    
C107  C123  A    
C115  C148  A    
C34   C98   A    
C87   C151  A    
N8    C24   A    
C155  N11   T    
O5    C8    A    
C33   C97   A    
C35   H20   S    
O10   C2    A    
C15   C79   A    
C113  C146  A    
C43   C51   A    
C34   H17   S    
O20   V2    S    
C71   C128  A    
C151  H39   S    
C13   C77   A    
C147  H35   S    
C33   H18   S    
C67   C75   A    
C112  C119  A    
N5    C21   A    
C136  C144  A    
C132  H28   S    
C133  H29   S    
C78   C86   A    
C105  C121  A    
C45   H5    S    
C106  C122  A    
O4    V3    S    
C70   C94   A    
C38   H21   S    
N1    C57   S    
C74   C82   A    
C25   C154  S    
C25   C57   A    
C37   H22   S    
C73   C81   A    
C44   C100  A    
C37   C101  A    
N4    C20   A    
C85   H45   S    
C131  C139  A    
C141  C165  S    
C129  C137  A    
C24   C96   A    
C44   C52   A    
C5    C100  S    
C47   C103  A    
C51   C59   A    
C76   C84   A    
C77   C85   A    
C13   O25   S    
C50   C58   A    
C156  N12   T    
C54   C62   A    
C23   C95   A    
C111  C120  A    
C79   C87   A    
