data_mof_unit_19748.cif
_audit_creation_date              2012-12-11T20:57:49-0500
_audit_creation_method            fapswitch 2.2
_symmetry_space_group_name_H-M    P1
_symmetry_Int_Tables_number       1
_space_group_crystal_system       triclinic
_cell_length_a                    8.228415
_cell_length_b                    18.827024
_cell_length_c                    22.814846
_cell_angle_alpha                 99.848709
_cell_angle_beta                  89.732738
_cell_angle_gamma                 91.742795
_cell_volume                      3480.69928056

loop_
_atom_site_label
_atom_site_type_symbol
_atom_type_description
_atom_site_fract_x
_atom_site_fract_y
_atom_site_fract_z
_atom_type_partial_charge
Ba1   Ba    Ba6+2 0.157800 0.534120 0.474430 1.664582
Ba2   Ba    Ba6+2 0.652390 0.465870 0.525520 1.671785
C1    C     C_3   0.355825 0.702789 0.261540 -0.300506
C2    C     C_R   0.073954 0.905187 0.561579 -0.090072
C3    C     C_R   0.208685 0.049699 0.553972 -0.095306
C4    C     C_3   0.912040 0.723994 0.353538 0.351799
C5    C     C_R   0.055574 0.024677 0.529633 0.022610
C6    C     C_R   0.264149 0.120401 0.555148 -0.097092
C7    C     C_R   0.170008 0.169920 0.532154 -0.037833
C8    C     C_R   0.020563 0.145701 0.503887 -0.001782
C9    C     C_R   0.963669 0.072635 0.502106 0.024765
C10   C     C_R   0.221013 0.243002 0.536547 -0.033986
C11   C     C_R   0.120387 0.291607 0.515177 -0.287946
C12   C     C_3   0.388723 0.684600 0.322737 0.324048
C13   C     C_R   0.979131 0.268292 0.482926 0.047138
C14   C     C_R   0.930057 0.193998 0.476163 -0.044839
C15   C     C_R   0.845324 0.928802 0.501626 0.027081
C16   C     C_3   0.924582 0.798701 0.336659 -0.361716
C17   C     C_R   0.787233 0.855995 0.500361 -0.001973
C18   C     C_R   0.878612 0.807434 0.527395 -0.037596
C19   C     C_R   0.016738 0.834670 0.560371 -0.023437
C20   C     C_R   0.794916 0.165935 0.441719 -0.015332
C21   C     C_R   0.737987 0.095355 0.440505 -0.090658
C22   C     C_R   0.815793 0.048132 0.472578 0.007368
C23   C     C_3   0.481310 0.686989 0.620089 0.308946
C24   C     C_R   0.753662 0.976753 0.474041 0.019532
C25   C     C_R   0.599723 0.952139 0.450279 -0.102684
C26   C     C_R   0.636529 0.832071 0.472826 -0.035144
C27   C     C_R   0.542959 0.881705 0.449722 -0.088155
C28   C     C_3   0.860847 0.361806 0.335145 0.663032
C29   C     C_R   0.583658 0.759235 0.469514 -0.000744
C30   C     C_R   0.682603 0.710881 0.491492 -0.305905
C31   C     C_R   0.827493 0.733565 0.521229 0.043948
C32   C     C_R   0.646491 0.522806 0.333413 -0.278357
C33   C     C_R   0.370788 0.558408 0.946703 -0.023549
C34   C     C_3   0.487534 0.768485 0.638934 -0.385202
C35   C     C_R   0.322478 0.554643 0.887033 0.595783
C36   C     C_R   0.248781 0.429010 0.880236 0.588621
C37   C     C_R   0.298533 0.430646 0.939619 -0.020645
C38   C     C_R   0.359855 0.495829 0.972933 -0.049517
C39   C     C_R   0.430099 0.623355 0.980701 -0.065425
C40   C     C_3   0.919806 0.341115 0.270261 0.743585
C41   C     C_R   0.477919 0.626182 0.039631 -0.070885
C42   C     C_R   0.469062 0.564015 0.066253 -0.035830
C43   C     C_R   0.410334 0.498533 0.032769 -0.050809
C44   C     C_R   0.289539 0.368555 0.966357 -0.068603
C45   C     C_3   0.905246 0.279836 0.647868 0.397321
C46   C     C_R   0.341750 0.370949 0.024897 -0.074706
C47   C     C_R   0.402724 0.435739 0.058758 -0.020111
C48   C     C_R   0.457106 0.439117 0.117857 0.586886
C49   C     C_R   0.517538 0.566111 0.125667 0.650084
C50   C     C_2   0.067174 0.469040 0.772594 -0.077930
C51   C     C_3   0.020487 0.477785 0.710037 0.010067
C52   C     C_3   0.940175 0.632122 0.664063 0.263621
C53   C     C_1   0.301808 0.509921 0.693487 0.029025
C54   C     C_2   0.344337 0.508899 0.749252 -0.084043
C55   C     C_2   0.220804 0.487458 0.792227 0.197289
C56   C     C_3   0.915517 0.206283 0.667135 0.233720
C57   C     C_R   0.716579 0.536919 0.232020 0.376086
C58   C     C_R   0.756298 0.546283 0.293404 -0.102768
C59   C     C_R   0.501019 0.487009 0.313727 0.102751
C60   C     C_R   0.456261 0.481614 0.253896 -0.203002
C61   C     C_R   0.561631 0.507583 0.212747 0.210269
C62   C     C_2   0.168462 0.475977 0.670517 -0.298388
C63   C     C_3   0.849198 0.657222 0.722274 0.172768
C64   C     C_3   0.318792 0.315320 0.395723 0.345291
C65   C     C_3   0.307436 0.233739 0.376839 -0.390631
C66   C     C_3   0.143001 0.306005 0.210831 0.289011
C67   C     C_3   0.358779 0.278903 0.674712 0.335851
C68   C     C_3   0.295918 0.261320 0.207119 -0.271004
C69   C     C_3   0.416874 0.271598 0.736379 -0.289677
C70   C     C_R   0.994232 0.953024 0.530607 0.013900
H1    H     H_    0.309810 0.637390 0.328201 0.105313
H2    H     H_    0.210688 0.218880 0.342795 0.160248
H3    H     H_    0.278557 0.207208 0.415455 0.058590
H4    H     H_    0.425400 0.213672 0.357890 0.111066
H5    H     H_    0.518389 0.670256 0.325221 -0.054210
H6    H     H_    0.341342 0.652157 0.228777 0.111359
H7    H     H_    0.606431 0.668906 0.608850 -0.018950
H8    H     H_    0.402857 0.673713 0.580018 0.070116
H9    H     H_    0.567625 0.783833 0.678396 0.121628
H10   H     H_    0.536317 0.794500 0.602130 0.057398
H11   H     H_    0.363397 0.788137 0.650131 0.126282
H12   H     H_    0.920413 0.391250 0.250061 -0.144509
H13   H     H_    0.458233 0.736416 0.247936 0.128871
H14   H     H_    0.862432 0.837953 0.370671 0.075565
H15   H     H_    0.819039 0.275047 0.609890 0.064515
H16   H     H_    0.027647 0.296337 0.633622 -0.137187
H17   H     H_    0.975517 0.167585 0.631985 -0.032117
H18   H     H_    0.991112 0.211713 0.708039 0.093990
H19   H     H_    0.253727 0.240774 0.663119 -0.064395
H20   H     H_    0.321342 0.335513 0.675942 0.000564
H21   H     H_    0.315521 0.282744 0.768557 0.116443
H22   H     H_    0.519863 0.310460 0.750318 0.159389
H23   H     H_    0.066037 0.618942 0.674444 -0.009259
H24   H     H_    0.975139 0.726260 0.396866 0.077361
H25   H     H_    0.457287 0.215785 0.736322 0.150714
H26   H     H_    0.159153 0.347689 0.519718 0.065832
H27   H     H_    0.381594 0.135698 0.575131 0.100767
H28   H     H_    0.083924 0.801995 0.585723 0.105925
H29   H     H_    0.729296 0.198049 0.415417 0.103355
H30   H     H_    0.424167 0.866962 0.430743 0.117134
H31   H     H_    0.642385 0.655042 0.487791 0.074759
H32   H     H_    0.290982 0.015573 0.571958 0.073200
H33   H     H_    0.180626 0.920829 0.588392 0.062175
H34   H     H_    0.878815 0.583183 0.639216 0.072315
H35   H     H_    0.633428 0.078975 0.412690 0.064305
H36   H     H_    0.781099 0.709586 0.358289 -0.055101
H37   H     H_    0.517469 0.986644 0.432663 0.073485
H38   H     H_    0.333632 0.321831 0.043662 0.111890
H39   H     H_    0.243161 0.317634 0.941907 0.122515
H40   H     H_    0.522686 0.677345 0.064240 0.123398
H41   H     H_    0.439752 0.672374 0.961838 0.126659
H42   H     H_    0.467345 0.524337 0.764242 0.135706
H43   H     H_    0.973755 0.456213 0.803223 0.111974
H44   H     H_    0.339969 0.456990 0.239274 0.121727
H45   H     H_    0.908559 0.707528 0.746770 0.057565
H46   H     H_    0.679313 0.528195 0.379869 0.100942
H47   H     H_    0.054573 0.816127 0.334250 0.136807
H48   H     H_    0.168443 0.444434 0.625953 0.064296
H49   H     H_    0.865812 0.798071 0.292711 0.130542
H50   H     H_    0.924586 0.412769 0.355278 0.002195
H51   H     H_    0.735456 0.313129 0.217033 0.291064
H52   H     H_    0.174554 0.359897 0.199182 0.053575
H53   H     H_    0.055066 0.277304 0.177002 0.078747
H54   H     H_    0.266100 0.207726 0.220310 0.112713
H55   H     H_    0.341967 0.252501 0.160630 0.103020
H56   H     H_    0.723339 0.670357 0.711998 0.111674
H57   H     H_    0.393927 0.289729 0.236810 0.158752
H58   H     H_    0.939766 0.610923 0.783570 0.304200
H59   H     H_    0.710878 0.158152 0.640412 0.309646
H60   H     H_    0.925906 0.575462 0.208090 0.322048
H61   H     H_    0.640970 0.324238 0.325228 0.322588
H62   H     H_    0.199144 0.335297 0.411466 -0.008902
H63   H     H_    0.409176 0.328527 0.432117 0.071369
H64   H     H_    0.241706 0.732906 0.261869 0.147816
N1    N     N_R   0.264057 0.490235 0.854261 -0.427143
N2    N     N_R   0.511287 0.504115 0.151139 -0.407952
O1    O     O_2   0.110690 0.676100 0.539200 -0.455907
O2    O     O_2   0.684922 0.443666 0.698223 -0.449066
O3    O     O_3   0.852175 0.330132 0.696113 -0.584642
O4    O     O_3   0.863220 0.586720 0.534720 -0.491586
O5    O     O_3   0.450900 0.461390 0.429220 -0.476340
O6    O     O_2   0.599830 0.538970 0.641850 -0.461868
O7    O     O_3   0.418301 0.655018 0.667035 -0.630199
O8    O     O_2   0.556497 0.243885 0.521837 -0.496399
O9    O     O_3   0.485320 0.260802 0.633915 -0.569214
O10   O     O_2   0.330799 0.608961 0.864327 -0.587698
O11   O     O_2   0.192831 0.372984 0.851521 -0.607831
O12   O     O_3   0.364890 0.345804 0.346348 -0.601458
O13   O     O_2   0.458488 0.383971 0.139402 -0.629892
O14   O     O_2   0.565353 0.623425 0.154812 -0.585177
O15   O     O_3   0.368310 0.629070 0.432760 -0.497427
O16   O     O_2   0.244571 0.756611 0.474518 -0.489603
O17   O     O_3   0.947540 0.690406 0.633315 -0.671478
O18   O     O_3   0.352294 0.744285 0.366230 -0.610386
O19   O     O_2   0.210480 0.460990 0.358130 -0.471855
O20   O     O_3   0.959520 0.592090 0.401630 -0.484503
O21   O     O_2   0.094828 0.543988 0.296321 -0.513635
O22   O     O_3   0.813280 0.288029 0.239369 -0.738594
O23   O     O_3   0.986428 0.674461 0.309143 -0.604239
O24   O     O_3   0.078571 0.313928 0.269175 -0.633310
O25   O     O_3   0.841552 0.603600 0.757814 -0.740785
O26   O     O_3   0.760027 0.179773 0.679381 -0.688690
O27   O     O_3   0.824051 0.554056 0.189412 -0.696205
O28   O     O_3   0.694833 0.372714 0.335065 -0.813831
O29   O     O_2   0.699610 0.323860 0.460780 -0.461513
O30   O     O_3   0.947090 0.413280 0.465240 -0.491717
O31   O     O_3   0.442000 0.370930 0.567190 -0.464352
O32   O     O_3   0.890183 0.306005 0.366868 -0.648080
O33   O     O_3   0.359410 0.538600 0.570730 -0.478525
O34   O     O_3   0.850780 0.407910 0.598320 -0.493093
P1    P     P_3+3 0.935930 0.665430 0.555670 0.970549
P2    P     P_3+3 0.382700 0.439650 0.365620 1.059416
P3    P     P_3+3 0.949689 0.587565 0.324684 0.934526
P4    P     P_3+3 0.874370 0.334570 0.444280 1.002676
P5    P     P_3+3 0.852733 0.415765 0.675857 1.012934
P6    P     P_3+3 0.387193 0.722509 0.436603 0.930415
P7    P     P_3+3 0.416495 0.561183 0.645356 0.982375
P8    P     P_3+3 0.424019 0.278155 0.564693 0.945061

loop_
_geom_bond_atom_site_label_1
_geom_bond_atom_site_label_2
_ccdc_geom_bond_type
O34   P5    S    
C32   H46   S    
C46   H38   S    
C53   C54   D    
C25   C27   A    
C23   H8    S    
Ba2   O6    S    
C17   C18   A    
C56   O26   S    
C66   H52   S    
C69   H22   S    
O32   P4    S    
C42   C43   A    
C5    C9    A    
C69   H25   S    
Ba1   P1    S    
C24   C25   A    
C16   H14   S    
C20   H29   S    
C13   P4    S    
O3    P5    S    
C15   C24   A    
Ba1   O20   S    
C33   C35   A    
C6    H27   S    
C22   C24   A    
C64   O12   S    
C36   C37   A    
O23   P3    S    
C51   C62   S    
C1    H13   S    
H51   O22   S    
C34   H11   S    
C13   C14   A    
C9    C22   A    
C54   C55   S    
O30   P4    S    
C1    H64   S    
C12   H5    S    
C11   H26   S    
C67   C69   S    
C28   O32   S    
Ba1   O4    S    
Ba2   P4    S    
C64   H62   S    
O18   P6    S    
O9    P8    S    
C28   H50   S    
C34   H10   S    
C6    C7    A    
C21   C22   A    
C4    O23   S    
C67   H20   S    
C31   P1    S    
C7    C8    A    
O31   P8    S    
Ba1   O1    S    
O19   P2    D    
O17   P1    S    
C64   C65   S    
C3    H32   S    
C57   C58   A    
O21   P3    D    
C44   H39   S    
C32   C58   A    
Ba2   O5    S    
C39   C41   A    
O7    P7    S    
C63   H45   S    
C48   O13   D    
C66   H53   S    
O4    P1    S    
C38   C43   A    
C4    C16   S    
C44   C46   A    
Ba1   P2    S    
C52   H34   S    
C29   P6    S    
C55   N1    S    
C63   H56   S    
C40   H12   S    
H60   O27   S    
C28   O28   S    
C50   C55   D    
C37   C38   A    
C52   C63   S    
C19   H28   S    
Ba2   O31   S    
Ba1   O30   S    
Ba1   O33   S    
C32   C59   A    
C51   P5    S    
C45   H15   S    
C41   C42   A    
C12   H1    S    
C60   H44   S    
C60   C61   A    
Ba1   O5    S    
C56   H17   S    
C29   C30   A    
C5    C70   A    
O6    P7    D    
C43   C47   A    
C34   H9    S    
Ba2   O33   S    
C21   H35   S    
C53   C62   D    
C63   O25   S    
C40   O24   S    
O2    P5    D    
C30   H31   S    
O8    P8    D    
C65   H2    S    
C10   C11   A    
Ba1   O15   S    
C17   C26   A    
C56   H18   S    
C52   H23   S    
Ba2   O29   S    
C1    C12   S    
C37   C44   A    
C18   C31   A    
C42   C49   A    
C46   C47   A    
O12   P2    S    
C49   O14   D    
C4    H24   S    
O16   P6    D    
C59   P2    S    
Ba2   O4    S    
C61   N2    S    
O1    P1    D    
C65   H3    S    
C41   H40   S    
Ba2   O30   S    
C2    C70   A    
C50   C51   S    
C3    C5    A    
C50   H43   S    
C52   O17   S    
O15   P6    S    
C26   C27   A    
C14   C20   A    
C36   O11   D    
C12   O18   S    
C23   C34   S    
C23   H7    S    
C53   P7    S    
C26   C29   A    
C40   O22   S    
C10   P8    S    
C39   H41   S    
C57   O27   S    
C3    C6    A    
C23   O7    S    
C48   N2    Am   
C69   H21   S    
C66   O24   S    
C2    H33   S    
C45   O3    S    
C57   C61   A    
C62   H48   S    
C30   C31   A    
O33   P7    S    
C11   C13   A    
C33   C38   A    
C68   H55   S    
C8    C14   A    
H61   O28   S    
C45   H16   S    
C45   C56   S    
C2    C19   A    
C68   H54   S    
H59   O26   S    
H58   O25   S    
C67   O9    S    
Ba1   Ba2   S    
Ba1   O19   S    
C15   C17   A    
C36   N1    Am   
C27   H30   S    
C68   H57   S    
C35   O10   D    
C59   C60   A    
C33   C39   A    
C7    C10   A    
C8    C9    A    
C16   H49   S    
C64   H63   S    
C49   N2    Am   
C54   H42   S    
O20   P3    S    
C18   C19   A    
C25   H37   S    
C15   C70   A    
C66   C68   S    
C47   C48   A    
C58   P3    S    
C4    H36   S    
C20   C21   A    
C28   C40   S    
C35   N1    Am   
C65   H4    S    
O5    P2    S    
C67   H19   S    
C1    H6    S    
C16   H47   S    
Ba2   O34   S    
O29   P4    D    
