data_mof_unit_37244.cif
_audit_creation_date              2012-10-26T20:33:57-0400
_audit_creation_method            fapswitch 2.2
_symmetry_space_group_name_H-M    P1
_symmetry_Int_Tables_number       1
_space_group_crystal_system       triclinic
_cell_length_a                    15.923949
_cell_length_b                    9.086752
_cell_length_c                    7.80268
_cell_angle_alpha                 89.975715
_cell_angle_beta                  89.828554
_cell_angle_gamma                 90.002373
_cell_volume                      1129.01903921

loop_
_atom_site_label
_atom_site_type_symbol
_atom_type_description
_atom_site_fract_x
_atom_site_fract_y
_atom_site_fract_z
_atom_type_partial_charge
C1    C     C_R   0.499999 0.220100 0.500022 0.548932
C2    C     C_3   0.048599 0.395631 0.351727 0.234207
C3    C     C_3   0.951404 0.463375 0.686623 0.234521
C4    C     C_3   0.951021 0.380746 0.361801 0.202632
C5    C     C_1   0.749483 0.498246 0.499154 -0.020494
C6    C     C_1   0.250517 0.498348 0.501132 -0.024830
C7    C     C_3   0.083333 0.492190 0.503410 0.037921
C8    C     C_3   0.916653 0.491664 0.500349 0.029372
C9    C     C_3   0.951408 0.646627 0.447754 -0.353983
C10   C     C_3   0.048747 0.651130 0.470425 -0.354659
C11   C     C_3   0.888091 0.228468 0.743218 -0.049136
C12   C     C_1   0.824779 0.495745 0.499236 -0.021412
C13   C     C_3   0.901252 0.160419 0.246076 -0.143011
C14   C     C_3   0.094004 0.288566 0.901859 -0.116535
C15   C     C_3   0.110556 0.161987 0.422222 -0.045459
C16   C     C_1   0.175220 0.496001 0.502218 -0.023408
C17   C     C_R   0.339891 0.500016 0.500274 0.539035
C18   C     C_R   0.660109 0.500021 0.499743 0.538840
C19   C     C_1   0.499999 0.934607 0.499969 -0.051632
C20   C     C_1   0.499999 0.065406 0.500030 -0.051237
C21   C     C_R   0.500000 0.779910 0.499978 0.547322
C22   C     C_3   0.048951 0.445251 0.684444 0.202666
Cu1   Cu    Cu3+1 0.500000 0.500010 0.669080 1.025487
Cu2   Cu    Cu3+1 0.500000 0.500010 0.330920 1.025427
H1    H     H_    0.065011 0.725010 0.579162 0.116723
H2    H     H_    0.835936 0.230606 0.649602 0.171092
H3    H     H_    0.865000 0.162803 0.853462 0.086448
H4    H     H_    0.887223 0.044182 0.278863 0.125142
H5    H     H_    0.952339 0.160301 0.148763 0.150142
H6    H     H_    0.843136 0.210020 0.192429 0.134667
H7    H     H_    0.105180 0.171009 0.932542 0.150123
H8    H     H_    0.041403 0.327666 0.983466 0.168906
H9    H     H_    0.152464 0.350550 0.930955 0.140275
H10   H     H_    0.054246 0.129032 0.495712 0.201156
H11   H     H_    0.163117 0.197618 0.505213 0.169510
H12   H     H_    0.077956 0.700354 0.353917 0.128273
H13   H     H_    0.132559 0.060933 0.356286 0.098274
H14   H     H_    0.922286 0.735113 0.526728 0.129420
H15   H     H_    0.935207 0.671516 0.312105 0.122188
H16   H     H_    0.058019 0.468154 0.238058 0.084682
H17   H     H_    0.075772 0.526742 0.777393 0.060649
H18   H     H_    0.924914 0.419497 0.236217 0.089608
H19   H     H_    0.942576 0.571657 0.751424 0.097834
H20   H     H_    0.944045 0.169923 0.694520 0.197170
N1    N     N_1   0.500000 0.499970 0.076820 -0.078478
N2    N     N_1   0.500000 0.499970 0.923180 -0.078488
O1    O     O_R   0.500000 0.288400 0.642760 -0.495656
O2    O     O_3   0.925861 0.234459 0.396707 -0.596732
O3    O     O_3   0.073716 0.300471 0.726859 -0.608530
O4    O     O_3   0.093521 0.268213 0.296123 -0.605753
O5    O     O_R   0.500000 0.288400 0.357240 -0.494978
O6    O     O_R   0.379440 0.500020 0.642850 -0.499824
O7    O     O_R   0.379440 0.500020 0.357150 -0.496014
O8    O     O_R   0.620560 0.500020 0.642850 -0.493825
O9    O     O_R   0.620560 0.500020 0.357150 -0.498864
O10   O     O_R   0.500000 0.711620 0.642810 -0.496350
O11   O     O_R   0.500000 0.711620 0.357190 -0.496346
O12   O     O_3   0.906389 0.370821 0.802874 -0.593010

loop_
_geom_bond_atom_site_label_1
_geom_bond_atom_site_label_2
_ccdc_geom_bond_type
C8    C9    S    
C7    C10   S    
C2    C4    S    
Cu1   Cu2   S    
C13   H4    S    
C21   O11   A    
C11   H3    S    
C13   O2    S    
C11   O12   S    
C9    C10   S    
C15   H10   S    
C1    O1    A    
C19   C20   T    
C1    C20   S    
C4    C8    S    
C14   H7    S    
C8    C12   S    
C14   H9    S    
C11   H20   S    
Cu1   N2    S    
N1    N2    T    
Cu2   O9    S    
C1    O5    A    
C21   O10   A    
C3    H19   S    
Cu1   O6    S    
C4    H18   S    
C18   O9    A    
Cu1   O8    S    
C22   O3    S    
Cu2   N1    S    
C17   O6    A    
C15   H11   S    
C7    C16   S    
C19   C21   S    
C2    C7    S    
C22   H17   S    
Cu1   O1    S    
C18   O8    A    
C6    C16   T    
C7    C22   S    
C3    O12   S    
C17   O7    A    
C13   H6    S    
Cu1   O10   S    
C14   O3    S    
C10   H1    S    
C5    C12   T    
C3    C8    S    
C4    O2    S    
C15   O4    S    
C13   H5    S    
C6    C17   S    
C9    H14   S    
C3    C22   S    
C10   H12   S    
C5    C18   S    
C2    O4    S    
C11   H2    S    
Cu2   O7    S    
C9    H15   S    
C15   H13   S    
C2    H16   S    
C14   H8    S    
Cu2   O11   S    
Cu2   O5    S    
