data_mof_unit_58005.cif
_audit_creation_date              2012-12-10T20:43:22-0500
_audit_creation_method            fapswitch 2.2
_symmetry_space_group_name_H-M    P1
_symmetry_Int_Tables_number       1
_space_group_crystal_system       triclinic
_cell_length_a                    15.746167
_cell_length_b                    10.680822
_cell_length_c                    9.905864
_cell_angle_alpha                 88.623976
_cell_angle_beta                  88.816856
_cell_angle_gamma                 90.720513
_cell_volume                      1665.01018439

loop_
_atom_site_label
_atom_site_type_symbol
_atom_type_description
_atom_site_fract_x
_atom_site_fract_y
_atom_site_fract_z
_atom_type_partial_charge
C1    C     C_R   0.500134 0.260384 0.501482 0.863525
C2    C     C_R   0.549098 0.939369 0.400411 -0.219729
C3    C     C_R   0.502409 0.871920 0.499501 -0.053429
C4    C     C_R   0.339229 0.498233 0.501378 0.922821
C5    C     C_R   0.465855 0.932697 0.608468 0.062584
C6    C     C_3   0.377065 0.924570 0.665444 0.003202
C7    C     C_3   0.379881 0.066474 0.669674 -0.511299
C8    C     C_R   0.431681 0.453912 0.074817 0.217721
C9    C     C_R   0.564972 0.554052 0.065753 -0.005860
C10   C     C_R   0.564029 0.554411 0.922741 -0.157148
C11   C     C_R   0.431851 0.453611 0.932479 0.241646
C12   C     C_R   0.041118 0.506815 0.630730 0.154958
C13   C     C_3   0.398695 0.322503 0.932078 -0.523559
C14   C     C_3   0.397662 0.323198 0.085270 -0.489859
C15   C     C_R   0.499738 0.739720 0.498956 0.902187
C16   C     C_R   0.660747 0.499190 0.499000 0.902533
C17   C     C_R   0.952310 0.504661 0.628330 0.126642
C18   C     C_R   0.911669 0.451940 0.517493 0.007888
C19   C     C_R   0.957785 0.392256 0.414256 -0.011774
C20   C     C_R   0.046050 0.396637 0.417702 -0.248030
C21   C     C_R   0.086662 0.456500 0.522243 0.046992
C22   C     C_R   0.639275 0.614240 0.124831 0.182838
C23   C     C_1   0.823281 0.469494 0.505299 -0.014311
C24   C     C_R   0.714194 0.546372 0.143318 -0.102578
C25   C     C_R   0.788674 0.608081 0.180709 -0.108880
C26   C     C_R   0.789676 0.737754 0.195383 -0.078194
C27   C     C_R   0.716498 0.806280 0.170616 -0.163707
C28   C     C_R   0.641741 0.744861 0.134154 -0.167488
C29   C     C_R   0.915672 0.328053 0.300994 0.116830
C30   C     C_R   0.847341 0.243959 0.326549 -0.126603
C31   C     C_R   0.806660 0.186367 0.219941 -0.158390
C32   C     C_R   0.834565 0.210184 0.086952 -0.118969
C33   C     C_R   0.903428 0.291402 0.060366 -0.091522
C34   C     C_1   0.175741 0.471076 0.513018 0.024962
C35   C     C_R   0.944061 0.349806 0.166620 -0.173125
C36   C     C_1   0.250603 0.484811 0.505951 -0.134629
C37   C     C_1   0.748988 0.484946 0.498836 -0.150277
C38   C     C_R   0.468357 0.060482 0.612454 0.067137
C39   C     C_R   0.505766 0.128762 0.505212 -0.051039
C40   C     C_R   0.550714 0.068614 0.402676 -0.225495
H1    H     H_    0.377965 0.100721 0.774376 0.189786
H2    H     H_    0.374607 0.878953 0.767547 0.158571
H3    H     H_    0.335614 0.114320 0.599895 0.220397
H4    H     H_    0.714818 0.446208 0.128662 0.138804
H5    H     H_    0.845952 0.556022 0.196936 0.156302
H6    H     H_    0.847533 0.785332 0.223503 0.148469
H7    H     H_    0.717937 0.907139 0.177901 0.126793
H8    H     H_    0.586246 0.799203 0.109766 0.128878
H9    H     H_    0.825517 0.222700 0.429015 0.135077
H10   H     H_    0.753469 0.123242 0.240632 0.122153
H11   H     H_    0.802941 0.165509 0.004550 0.138416
H12   H     H_    0.616097 0.596859 0.864135 0.178310
H13   H     H_    0.925089 0.309670 0.957276 0.165628
H14   H     H_    0.996331 0.414204 0.143657 0.157890
H15   H     H_    0.334270 0.316365 0.888713 0.217632
H16   H     H_    0.446157 0.257283 0.889653 0.213638
H17   H     H_    0.332513 0.318895 0.130672 0.213441
H18   H     H_    0.443293 0.256697 0.130984 0.220155
H19   H     H_    0.083524 0.354942 0.337804 0.163665
H20   H     H_    0.584338 0.121130 0.322797 0.152080
H21   H     H_    0.582251 0.892843 0.320779 0.159717
I1    I     I_    0.107641 0.588656 0.793737 -0.311345
I2    I     I_    0.878631 0.584221 0.788586 -0.377302
I3    I     I_    0.283965 0.855757 0.528773 -0.333685
N1    N     N_R   0.499440 0.499140 0.142800 -0.130661
N2    N     N_R   0.499440 0.499180 0.857150 -0.119547
O1    O     O_R   0.500010 0.316790 0.614690 -0.618187
O2    O     O_R   0.500000 0.316760 0.385350 -0.629692
O3    O     O_R   0.378030 0.499990 0.614640 -0.599969
O4    O     O_R   0.378020 0.499950 0.385300 -0.608430
O5    O     O_R   0.500000 0.683240 0.614650 -0.619489
O6    O     O_R   0.499990 0.683210 0.385310 -0.609800
O7    O     O_R   0.621980 0.500050 0.614700 -0.608660
O8    O     O_R   0.621970 0.500010 0.385360 -0.619463
Zn1   Zn    Zn3+2 0.500010 0.500020 0.653130 0.963930
Zn2   Zn    Zn3+2 0.499990 0.499980 0.346870 0.957925

loop_
_geom_bond_atom_site_label_1
_geom_bond_atom_site_label_2
_ccdc_geom_bond_type
C4    C36   S    
C40   H20   S    
C19   C20   A    
O6    Zn2   S    
C10   H12   S    
C4    O4    A    
C15   O6    A    
C26   C27   A    
N1    Zn2   S    
O8    Zn2   S    
C16   O8    A    
C30   C31   A    
C9    C22   S    
C1    O2    A    
C18   C19   A    
C6    I3    S    
C1    O1    A    
C12   C17   A    
C7    H3    S    
C9    C10   A    
C11   N2    A    
C16   C37   S    
C13   H16   S    
C8    N1    A    
C22   C28   A    
C13   C14   S    
C35   H14   S    
O7    Zn1   S    
C4    O3    A    
C10   N2    A    
C33   H13   S    
C38   C39   A    
C14   H18   S    
C16   O7    A    
C24   C25   A    
C39   C40   A    
C1    C39   S    
C21   C34   S    
C25   C26   A    
C23   C37   T    
C12   C21   A    
C18   C23   S    
C32   H11   S    
C29   C30   A    
C12   I1    S    
C31   C32   A    
C17   C18   A    
C20   H19   S    
C30   H9    S    
O4    Zn2   S    
C24   H4    S    
C22   C24   A    
O1    Zn1   S    
C31   H10   S    
C19   C29   S    
C25   H5    S    
C3    C15   S    
C27   H7    S    
C14   H17   S    
C28   H8    S    
C8    C14   S    
C3    C5    A    
C2    H21   S    
C6    C7    S    
O2    Zn2   S    
C15   O5    A    
C29   C35   A    
C32   C33   A    
C2    C3    A    
C17   I2    S    
O5    Zn1   S    
C11   C13   S    
C5    C6    S    
C8    C11   A    
N2    Zn1   S    
C33   C35   A    
C7    C38   S    
O3    Zn1   S    
C34   C36   T    
C7    H1    S    
C9    N1    A    
C26   H6    S    
C2    C40   A    
C20   C21   A    
C6    H2    S    
C27   C28   A    
C5    C38   A    
C13   H15   S    
