data_mof_unit_33183.cif
_audit_creation_date              2012-12-11T15:39:06-0500
_audit_creation_method            fapswitch 2.2
_symmetry_space_group_name_H-M    P1
_symmetry_Int_Tables_number       1
_space_group_crystal_system       triclinic
_cell_length_a                    14.31469
_cell_length_b                    14.796398
_cell_length_c                    33.199713
_cell_angle_alpha                 97.848198
_cell_angle_beta                  90.102557
_cell_angle_gamma                 118.913656
_cell_volume                      6079.03530938

loop_
_atom_site_label
_atom_site_type_symbol
_atom_type_description
_atom_site_fract_x
_atom_site_fract_y
_atom_site_fract_z
_atom_type_partial_charge
C1    C     C_R   0.616949 0.910443 0.436935 0.541498
C2    C     C_R   0.742915 0.408582 0.185792 -0.000456
C3    C     C_R   0.750012 0.867714 0.641180 -0.079960
C4    C     C_R   0.663791 0.780803 0.653756 0.047336
C5    C     C_R   0.635651 0.858247 0.584613 0.017421
C6    C     C_R   0.052417 0.781486 0.063754 0.568951
C7    C     C_R   0.743799 0.486943 0.066375 0.594990
C8    C     C_R   0.742325 0.789488 0.066391 0.577281
C9    C     C_R   0.020722 0.731345 0.947082 0.531999
C10   C     C_R   0.712290 0.436858 0.949391 0.528559
C11   C     C_R   0.739644 0.718160 0.945235 0.575429
C12   C     C_R   0.815186 0.401772 0.158950 -0.086000
C13   C     C_R   0.812108 0.420317 0.118667 0.185162
C14   C     C_R   0.748422 0.309067 0.240324 0.248025
C15   C     C_R   0.737274 0.294193 0.281766 0.248676
C16   C     C_R   0.735655 0.372211 0.310911 0.031361
C17   C     C_R   0.744928 0.463198 0.299370 -0.188288
C18   C     C_R   0.751755 0.475883 0.258709 -0.183753
C19   C     C_R   0.750248 0.398133 0.228930 0.040074
C20   C     C_R   0.611107 0.337130 0.365698 -0.117403
C21   C     C_R   0.594550 0.205731 0.456715 0.544333
C22   C     C_R   0.575688 0.296051 0.401531 -0.128128
C23   C     C_R   0.742390 0.294389 0.412881 -0.121276
C24   C     C_R   0.777170 0.334540 0.376984 -0.070114
C25   C     C_R   0.709955 0.352170 0.352536 0.071007
C26   C     C_R   0.639280 0.270139 0.424440 0.021407
C27   C     C_R   0.245136 0.878023 0.393387 0.020512
C28   C     C_R   0.230930 0.958444 0.381231 -0.125745
C29   C     C_R   0.207142 0.956565 0.340205 -0.112544
C30   C     C_R   0.196660 0.874150 0.310931 0.040288
C31   C     C_R   0.203862 0.790584 0.323004 -0.113303
C32   C     C_R   0.295710 0.892756 0.434384 0.543184
C33   C     C_R   0.227720 0.792263 0.364009 -0.127511
C34   C     C_R   0.203960 0.817585 0.163287 -0.101508
C35   C     C_R   0.174328 0.792473 0.121073 0.270443
C36   C     C_R   0.080852 0.893564 0.130444 -0.188406
C37   C     C_R   0.107630 0.914646 0.172378 -0.136876
C38   C     C_R   0.166016 0.873646 0.188927 -0.000369
C39   C     C_1   0.177697 0.878963 0.232283 -0.025284
C40   C     C_1   0.185628 0.878109 0.268309 -0.026958
C41   C     C_R   0.109928 0.829037 0.104621 0.035136
C42   C     C_R   0.636671 0.880268 0.395018 0.020220
C43   C     C_R   0.613959 0.904678 0.551504 0.542960
C44   C     C_R   0.551256 0.801917 0.368116 -0.128892
C45   C     C_R   0.561680 0.791981 0.326216 -0.114954
C46   C     C_R   0.657556 0.859558 0.310961 0.041512
C47   C     C_R   0.745396 0.932392 0.337616 -0.102274
C48   C     C_R   0.735226 0.942591 0.379504 -0.119242
C49   C     C_R   0.758327 0.932788 0.172380 -0.102913
C50   C     C_R   0.778221 0.919224 0.130704 0.270226
C51   C     C_R   0.622539 0.744039 0.122656 -0.151451
C52   C     C_R   0.605685 0.758439 0.163567 -0.120922
C53   C     C_R   0.675951 0.850781 0.188690 -0.000092
C54   C     C_R   0.589855 0.200098 0.570933 0.572306
C55   C     C_1   0.669011 0.856746 0.231826 -0.025535
C56   C     C_1   0.663899 0.858242 0.267951 -0.025225
C57   C     C_R   0.711586 0.821028 0.106281 0.036720
C58   C     C_R   0.622888 0.253390 0.613867 -0.024233
C59   C     C_R   0.547620 0.267865 0.636931 -0.210037
C60   C     C_R   0.563447 0.293820 0.679456 0.195667
C61   C     C_R   0.656861 0.307391 0.699210 0.046727
C62   C     C_R   0.739495 0.305129 0.676342 0.202108
C63   C     C_R   0.721831 0.277294 0.633314 0.265977
C64   C     C_R   0.767870 0.357985 0.844118 -0.121417
C65   C     C_R   0.289264 0.887150 0.548644 0.544691
C66   C     C_R   0.778392 0.382755 0.886475 -0.123087
C67   C     C_R   0.590011 0.331681 0.886669 -0.142419
C68   C     C_R   0.579663 0.307174 0.844118 -0.111084
C69   C     C_R   0.669754 0.324652 0.822817 0.033958
C70   C     C_1   0.664601 0.317495 0.779309 -0.012484
C71   C     C_1   0.661940 0.313921 0.742905 0.049495
C72   C     C_R   0.691116 0.376244 0.907978 0.023555
C73   C     C_R   0.058844 0.747376 0.906348 0.022984
C74   C     C_R   0.095533 0.844885 0.893729 -0.135936
C75   C     C_R   0.105122 0.853444 0.852469 -0.127761
C76   C     C_R   0.735978 0.447539 0.105597 0.059124
C77   C     C_R   0.077474 0.764462 0.823292 0.034507
C78   C     C_R   0.047008 0.668309 0.836297 -0.107164
C79   C     C_R   0.038812 0.660092 0.877516 -0.118401
C80   C     C_R   0.116332 0.716226 0.753019 -0.117169
C81   C     C_R   0.122012 0.726078 0.712033 -0.154701
C82   C     C_R   0.091716 0.792548 0.696515 0.062913
C83   C     C_R   0.051318 0.847197 0.722393 0.321646
C84   C     C_R   0.042888 0.833829 0.763718 -0.071876
C85   C     C_R   0.078673 0.771439 0.779385 0.003940
C86   C     C_R   0.182026 0.920082 0.649152 -0.089310
C87   C     C_R   0.658776 0.447578 0.132302 0.207772
C88   C     C_R   0.231110 0.943177 0.613017 -0.136593
C89   C     C_R   0.152543 0.757957 0.587337 -0.133114
C90   C     C_R   0.101490 0.734876 0.623201 -0.125059
C91   C     C_R   0.119458 0.815774 0.655044 0.069920
C92   C     C_R   0.220604 0.862251 0.582671 0.020155
C93   C     C_R   0.714635 0.706396 0.901045 -0.014865
C94   C     C_R   0.609577 0.653576 0.882000 0.313123
C95   C     C_R   0.593704 0.645851 0.839364 0.254480
C96   C     C_R   0.683746 0.691953 0.816005 -0.030343
C97   C     C_R   0.786796 0.742408 0.835560 -0.166851
C98   C     C_R   0.664099 0.429349 0.172073 -0.126237
C99   C     C_R   0.801833 0.749142 0.877306 -0.197281
C100  C     C_R   0.615046 0.751715 0.763129 -0.161523
C101  C     C_R   0.612147 0.775314 0.724278 -0.184485
C102  C     C_R   0.669618 0.753190 0.694226 -0.017519
C103  C     C_R   0.728389 0.703639 0.702948 0.344595
C104  C     C_R   0.730123 0.677492 0.742115 0.263684
C105  C     C_R   0.673291 0.702828 0.772719 -0.035279
C106  C     C_R   0.565618 0.729234 0.630436 -0.138539
C107  C     C_R   0.551852 0.766921 0.596008 -0.129297
C108  C     C_R   0.735953 0.906861 0.606895 -0.128082
Cr1   Cr    Cr6+3 0.424820 0.846020 0.489780 1.008348
Cr2   Cr    Cr6+3 0.657880 0.078580 0.505700 1.056412
Cr3   Cr    Cr6+3 0.417280 0.075360 0.504550 1.008761
Cr4   Cr    Cr6+3 0.903360 0.812540 0.006510 1.026950
Cr5   Cr    Cr6+3 0.914630 0.587050 0.006280 1.045821
Cr6   Cr    Cr6+3 0.673560 0.582680 0.008540 1.011303
H1    H     H_    0.496202 0.278516 0.409823 0.126535
H2    H     H_    0.876247 0.385646 0.169760 0.134070
H3    H     H_    0.793833 0.276486 0.430232 0.125514
H4    H     H_    0.252564 0.789615 0.176433 0.104930
H5    H     H_    0.195485 0.726215 0.300508 0.105348
H6    H     H_    0.238584 0.729438 0.372271 0.123411
H7    H     H_    0.243977 0.025712 0.403043 0.124902
H8    H     H_    0.078066 0.958306 0.192074 0.114873
H9    H     H_    0.029441 0.920302 0.118753 0.151556
H10   H     H_    0.201279 0.021393 0.331149 0.107176
H11   H     H_    0.807906 0.004857 0.192814 0.089355
H12   H     H_    0.820172 0.984373 0.325939 0.112786
H13   H     H_    0.802450 0.003509 0.399452 0.128108
H14   H     H_    0.474231 0.753085 0.379079 0.125807
H15   H     H_    0.540839 0.695213 0.176027 0.123432
H16   H     H_    0.569341 0.669114 0.104470 0.159817
H17   H     H_    0.493554 0.734878 0.305651 0.105651
H18   H     H_    0.857154 0.415175 0.901921 0.128037
H19   H     H_    0.853911 0.346521 0.367132 0.124470
H20   H     H_    0.837777 0.370689 0.827885 0.105827
H21   H     H_    0.472701 0.252423 0.622170 0.132085
H22   H     H_    0.502864 0.279827 0.827793 0.123553
H23   H     H_    0.520673 0.322398 0.902534 0.110784
H24   H     H_    0.111280 0.913152 0.915499 0.120077
H25   H     H_    0.009254 0.583728 0.886399 0.121737
H26   H     H_    0.053608 0.653863 0.627150 0.110863
H27   H     H_    0.156178 0.686060 0.692849 0.115611
H28   H     H_    0.145254 0.668268 0.764338 0.122645
H29   H     H_    0.131458 0.929063 0.843287 0.099836
H30   H     H_    0.009160 0.872464 0.783763 0.079858
H31   H     H_    0.200259 0.983829 0.673641 0.130874
H32   H     H_    0.283830 0.024300 0.610195 0.126594
H33   H     H_    0.024510 0.598287 0.814498 0.111247
H34   H     H_    0.142559 0.694412 0.564052 0.126951
H35   H     H_    0.882624 0.790182 0.891415 0.149702
H36   H     H_    0.826111 0.908041 0.659085 0.153642
H37   H     H_    0.566635 0.813358 0.717806 0.138533
H38   H     H_    0.573486 0.774105 0.786215 0.167690
H39   H     H_    0.498232 0.662270 0.639945 0.107917
H40   H     H_    0.473646 0.727087 0.579491 0.134246
H41   H     H_    0.856235 0.780213 0.818593 0.152997
H42   H     H_    0.608000 0.434756 0.192827 0.123538
H43   H     H_    0.802108 0.976833 0.598698 0.137250
H44   H     H_    0.742506 0.522520 0.321729 0.125918
H45   H     H_    0.755255 0.545545 0.250200 0.129097
H46   H     H_    0.558484 0.350467 0.346847 0.107937
O1    O     O_R   0.318160 0.824460 0.443680 -0.521237
O2    O     O_R   0.645130 0.163230 0.552140 -0.429679
O3    O     O_R   0.498360 0.178430 0.555780 -0.537763
O4    O     O_R   0.328690 0.978040 0.538950 -0.501831
O5    O     O_3   0.499990 0.999990 0.500010 -0.243189
O6    O     O_R   0.828710 0.851830 0.052170 -0.450424
O7    O     O_R   0.005980 0.823990 0.047210 -0.515527
O8    O     O_R   0.031900 0.688850 0.050170 -0.464393
O9    O     O_R   0.830940 0.518420 0.048680 -0.444916
O10   O     O_R   0.668160 0.499860 0.053480 -0.482669
O11   O     O_R   0.689170 0.693840 0.050110 -0.508597
O12   O     O_R   0.525040 0.857250 0.449830 -0.503857
O13   O     O_R   0.803860 0.812940 0.962540 -0.500046
O14   O     O_R   0.982950 0.787950 0.964120 -0.526442
O15   O     O_R   0.007050 0.649970 0.960540 -0.515793
O16   O     O_R   0.807910 0.482370 0.965590 -0.503271
O17   O     O_R   0.643310 0.460980 0.963840 -0.543957
O18   O     O_R   0.666140 0.657800 0.967020 -0.466353
O19   O     O_3   0.830520 0.660760 0.007110 -0.283728
O20   O     O_R   0.684760 0.998800 0.456360 -0.517949
O21   O     O_R   0.647540 0.166310 0.470260 -0.501903
O22   O     O_R   0.500960 0.181750 0.467450 -0.520376
O23   O     O_R   0.331100 0.981120 0.457080 -0.499923
O24   O     O_R   0.315560 0.821140 0.532010 -0.517877
O25   O     O_R   0.522630 0.854180 0.531710 -0.506196
O26   O     O_R   0.682160 0.995480 0.544690 -0.496884
O27   O     O_3   0.587218 0.479709 0.121697 -0.545342
C109  C     C_3   0.484080 0.391646 0.113579 0.006422
H47   H     H_    0.454476 0.356541 0.141666 0.120904
H48   H     H_    0.484080 0.331425 0.089389 0.140354
C110  C     C_3   0.407063 0.425536 0.098603 -0.372998
H49   H     H_    0.433635 0.459761 0.070224 0.157734
H50   H     H_    0.325454 0.356989 0.092141 0.089107
H51   H     H_    0.404287 0.484860 0.122249 0.139956
O28   O     O_3   0.208998 0.734486 0.095249 -0.538534
C111  C     C_3   0.178442 0.637333 0.108159 0.004215
H52   H     H_    0.095758 0.601519 0.118567 0.147628
H53   H     H_    0.235887 0.647185 0.133166 0.111835
C112  C     C_3   0.180755 0.561838 0.072666 -0.340354
H54   H     H_    0.262494 0.593918 0.061869 0.153122
H55   H     H_    0.157968 0.485589 0.082580 0.080379
H56   H     H_    0.123305 0.549159 0.047159 0.187539
O29   O     O_3   0.883977 0.414545 0.092111 -0.693616
H57   H     H_    0.931363 0.395110 0.106138 0.308381
O30   O     O_3   0.858132 0.997805 0.112095 -0.530755
C113  C     C_3   0.942944 0.076303 0.139508 -0.010059
H58   H     H_    0.971889 0.041870 0.160970 0.106333
H59   H     H_    0.917197 0.129480 0.156638 0.142145
C114  C     C_3   0.036042 0.141244 0.115411 -0.363450
H60   H     H_    0.010849 0.179004 0.094309 0.165631
H61   H     H_    0.103640 0.202921 0.136624 0.083331
H62   H     H_    0.063506 0.090740 0.097407 0.158472
O31   O     O_3   0.835743 0.325068 0.694837 -0.726218
H63   H     H_    0.843443 0.356597 0.723751 0.327026
O32   O     O_3   0.798489 0.270827 0.609638 -0.681077
H64   H     H_    0.863998 0.290880 0.626905 0.367588
O33   O     O_3   0.486471 0.301489 0.702498 -0.702706
H65   H     H_    0.425677 0.289518 0.684043 0.315852
O34   O     O_3   0.720239 0.202398 0.294303 -0.715326
H66   H     H_    0.686659 0.144436 0.271101 0.336098
O35   O     O_3   0.016215 0.908226 0.705897 -0.544259
C115  C     C_3   0.051310 0.005621 0.731256 -0.034267
H67   H     H_    0.133464 0.037425 0.746078 0.113054
H68   H     H_    0.994286 0.997369 0.755018 0.138716
C116  C     C_3   0.054554 0.085006 0.705785 -0.363641
H69   H     H_    0.972955 0.060758 0.692822 0.154238
H70   H     H_    0.086186 0.162554 0.725246 0.112286
H71   H     H_    0.107356 0.092189 0.680560 0.151810
O36   O     O_3   0.522560 0.619703 0.905456 -0.507927
C117  C     C_3   0.474528 0.510263 0.903231 0.022097
H72   H     H_    0.535246 0.486376 0.908890 0.135268
H73   H     H_    0.430817 0.469501 0.872909 0.170289
C118  C     C_3   0.394987 0.475548 0.935703 -0.351213
H74   H     H_    0.331915 0.496939 0.930667 0.163943
H75   H     H_    0.356819 0.389450 0.934187 0.080164
H76   H     H_    0.436768 0.513790 0.966470 0.166749
O37   O     O_3   0.752629 0.236691 0.210440 -0.720195
H77   H     H_    0.787083 0.201818 0.222794 0.316893
O38   O     O_3   0.489725 0.595384 0.822045 -0.699288
H78   H     H_    0.489492 0.574405 0.792415 0.325763
O39   O     O_3   0.788205 0.684514 0.673821 -0.506062
C119  C     C_3   0.725218 0.582584 0.652116 0.006246
H79   H     H_    0.658109 0.578091 0.633367 0.118028
H80   H     H_    0.692071 0.523151 0.672990 0.166323
C120  C     C_3   0.794568 0.555760 0.623768 -0.349901
H81   H     H_    0.858330 0.553406 0.641958 0.175241
H82   H     H_    0.744797 0.478053 0.604890 0.103513
H83   H     H_    0.832013 0.615316 0.603297 0.165771
O40   O     O_3   0.787602 0.627477 0.748961 -0.688597
H84   H     H_    0.764818 0.594500 0.773761 0.323232

loop_
_geom_bond_atom_site_label_1
_geom_bond_atom_site_label_2
_ccdc_geom_bond_type
C24   H19   S    
C34   H4    S    
C65   C92   S    
Cr4   O14   S    
O29   H57   S    
C49   C53   A    
C93   C94   A    
C114  H60   S    
C101  C102  A    
C89   H34   S    
C73   C74   A    
C32   O23   A    
C79   H25   S    
C95   C96   A    
C21   C26   S    
C2    C12   A    
C114  H62   S    
Cr5   O8    S    
C81   C82   A    
Cr2   O2    S    
C49   C50   A    
C77   C78   A    
C100  H38   S    
C21   O21   A    
C99   H35   S    
C28   C29   A    
C100  C105  A    
C80   C85   A    
C42   C44   A    
C47   H12   S    
C109  C110  S    
C106  C107  A    
C52   H15   S    
C36   C37   A    
O38   H78   S    
C67   C72   A    
C86   C91   A    
C54   C58   S    
C30   C31   A    
C8    C57   S    
Cr2   O5    S    
C113  H59   S    
C55   C56   T    
C20   C25   A    
C84   H30   S    
C15   C16   A    
C29   H10   S    
C16   C25   S    
C116  H71   S    
C117  C118  S    
C109  H48   S    
C34   C35   A    
C23   C26   A    
C75   C77   A    
Cr1   O5    S    
C18   H45   S    
C103  C104  A    
C114  H61   S    
C6    O7    A    
C43   O25   A    
C66   C72   A    
C88   C92   A    
Cr2   O21   S    
C16   C17   A    
Cr6   O18   S    
C6    C41   S    
C4    C102  S    
C112  H56   S    
C119  H80   S    
C23   C24   A    
C31   C33   A    
C70   C71   T    
C51   C57   A    
C54   O3    A    
C118  H74   S    
C93   C99   A    
C61   C62   A    
Cr1   O12   S    
C35   O28   S    
Cr5   O15   S    
C87   C98   A    
C11   C93   S    
C81   H27   S    
Cr4   O13   S    
C5    C43   S    
C77   C85   S    
C112  H54   S    
C68   C69   A    
C120  H81   S    
C96   C97   A    
C50   C57   A    
C36   C41   A    
C117  H72   S    
C9    C73   S    
C110  H49   S    
C111  C112  S    
C67   H23   S    
C104  C105  A    
C97   C99   A    
C51   H16   S    
C116  H69   S    
C66   H18   S    
C53   C55   S    
C10   O16   A    
Cr6   O11   S    
Cr6   O17   S    
C6    O8    A    
C37   H8    S    
C11   O13   A    
C119  C120  S    
C74   C75   A    
C51   C52   A    
C64   H20   S    
C68   H22   S    
C36   H9    S    
Cr3   O3    S    
C24   C25   A    
C111  H53   S    
C39   C40   T    
C87   O27   S    
C113  H58   S    
C18   C19   A    
Cr5   O9    S    
C108  H43   S    
C43   O26   A    
Cr1   O25   S    
O33   H65   S    
C45   C46   A    
Cr4   O7    S    
C4    C106  A    
C101  H37   S    
Cr3   O22   S    
C27   C33   A    
C82   C91   S    
C67   C68   A    
C109  H47   S    
C64   C66   A    
C37   C38   A    
C117  H73   S    
O32   H64   S    
C110  H50   S    
C29   C30   A    
C21   O22   A    
O35   C115  S    
C74   H24   S    
C83   C84   A    
C14   C15   A    
C13   C76   A    
Cr2   O20   S    
C106  H39   S    
Cr4   O6    S    
C32   O1    A    
C62   C63   A    
Cr3   O23   S    
C17   C18   A    
O40   H84   S    
C30   C40   S    
C9    O14   A    
C11   O18   A    
C42   C48   A    
C64   C69   A    
C84   C85   A    
C89   C92   A    
C115  H68   S    
C17   H44   S    
C118  H75   S    
C76   C87   A    
Cr2   O26   S    
C75   H29   S    
C78   H33   S    
Cr5   O16   S    
Cr3   O5    S    
Cr1   O24   S    
C22   H1    S    
Cr5   O19   S    
C20   C22   A    
C45   H17   S    
C94   C95   A    
C80   H28   S    
C120  H82   S    
C22   C26   A    
C62   O31   S    
C80   C81   A    
C120  H83   S    
C15   O34   S    
C3    C4    A    
C86   H31   S    
O34   H66   S    
C44   C45   A    
C96   C105  S    
C5    C107  A    
C58   C63   A    
Cr6   O10   S    
O30   C113  S    
C46   C47   A    
C44   H14   S    
C3    H36   S    
C104  O40   S    
C119  H79   S    
C2    C19   S    
C34   C38   A    
C10   O17   A    
C14   C19   A    
C98   H42   S    
Cr3   O4    S    
C111  H52   S    
C73   C79   A    
C23   H3    S    
C14   O37   S    
C90   H26   S    
C8    O11   A    
C7    C76   S    
C3    C108  A    
C54   O2    A    
C49   H11   S    
C1    O12   A    
Cr4   O19   S    
C1    O20   A    
C115  C116  S    
C7    O9    A    
C58   C59   A    
C110  H51   S    
O27   C109  S    
Cr1   O1    S    
C60   O33   S    
C48   H13   S    
C78   C79   A    
C113  C114  S    
C61   C71   S    
C90   C91   A    
C38   C39   S    
Cr6   O19   S    
O39   C119  S    
O31   H63   S    
O37   H77   S    
C8    O6    A    
C65   O4    A    
C59   H21   S    
C95   O38   S    
C116  H70   S    
C103  O39   S    
C9    O15   A    
C86   C88   A    
C97   H41   S    
C102  C103  A    
C35   C41   A    
C118  H76   S    
C69   C70   S    
C107  H40   S    
C27   C32   S    
O28   C111  S    
C83   O35   S    
C50   O30   S    
C13   O29   S    
C1    C42   S    
C59   C60   A    
C12   C13   A    
C2    C98   A    
C33   H6    S    
C82   C83   A    
C20   H46   S    
C7    O10   A    
C46   C56   S    
C27   C28   A    
C112  H55   S    
C88   H32   S    
O36   C117  S    
C60   C61   A    
C47   C48   A    
C100  C101  A    
C28   H7    S    
C63   O32   S    
C89   C90   A    
C31   H5    S    
C115  H67   S    
C5    C108  A    
C94   O36   S    
C52   C53   A    
C12   H2    S    
C65   O24   A    
C10   C72   S    
