data_mof_unit_40793.cif
_audit_creation_date              2012-12-11T16:29:52-0500
_audit_creation_method            fapswitch 2.2
_symmetry_space_group_name_H-M    P1
_symmetry_Int_Tables_number       1
_space_group_crystal_system       triclinic
_cell_length_a                    8.477391
_cell_length_b                    17.50097
_cell_length_c                    22.936064
_cell_angle_alpha                 95.91598
_cell_angle_beta                  89.162373
_cell_angle_gamma                 96.850971
_cell_volume                      3360.55305808

loop_
_atom_site_label
_atom_site_type_symbol
_atom_type_description
_atom_site_fract_x
_atom_site_fract_y
_atom_site_fract_z
_atom_type_partial_charge
Ba1   Ba    Ba6+2 0.852790 0.535910 0.472200 1.708018
Ba2   Ba    Ba6+2 0.337030 0.464150 0.527810 1.715653
C1    C     C_3   0.626903 0.785366 0.256503 -0.162787
C2    C     C_3   0.651448 0.739921 0.309036 0.718627
C3    C     C_3   0.550059 0.360350 0.342744 0.347999
C4    C     C_3   0.646386 0.345980 0.286490 0.206496
C5    C     C_3   0.965619 0.227693 0.674162 0.462774
C6    C     C_3   0.961140 0.156903 0.708495 -0.291257
C7    C     C_3   0.501752 0.273323 0.669057 0.355980
C8    C     C_3   0.444542 0.201835 0.700098 -0.027106
C9    C     C_R   0.338627 0.515554 0.330304 -0.243551
C10   C     C_R   0.052354 0.588608 0.949573 -0.069929
C11   C     C_R   0.000711 0.589068 0.891103 0.712112
C12   C     C_3   0.080771 0.703275 0.318470 0.337182
C13   C     C_R   0.936606 0.451215 0.882412 0.701883
C14   C     C_R   0.985883 0.448279 0.941347 -0.069355
C15   C     C_R   0.045432 0.518207 0.974881 -0.092769
C16   C     C_R   0.112041 0.657441 0.983046 -0.063727
C17   C     C_R   0.165644 0.657805 0.040546 0.411307
C18   C     C_R   0.159959 0.587576 0.067253 -0.074232
C19   C     C_R   0.098293 0.517905 0.033929 -0.093232
C20   C     C_R   0.979526 0.378112 0.968087 0.410343
C21   C     C_R   0.031218 0.378685 0.025796 -0.051750
C22   C     C_R   0.090802 0.447592 0.059254 -0.066865
C23   C     C_3   0.064091 0.729985 0.257985 0.339177
C24   C     C_R   0.143506 0.446943 0.117519 0.619150
C25   C     C_R   0.213036 0.584252 0.125783 0.622413
C26   C     C_2   0.756471 0.500174 0.775307 0.329365
C27   C     C_3   0.725493 0.496106 0.709319 -0.074303
C28   C     C_1   0.007923 0.526361 0.693020 -0.026426
C29   C     C_2   0.038536 0.538958 0.750848 0.248982
C30   C     C_2   0.908156 0.521286 0.795593 0.147221
C31   C     C_R   0.403268 0.543856 0.231078 -0.065714
C32   C     C_R   0.447420 0.544786 0.290157 0.041880
C33   C     C_R   0.188000 0.481426 0.312817 -0.002082
C34   C     C_3   0.050020 0.705035 0.653965 0.632749
C35   C     C_R   0.140721 0.481320 0.253882 -0.128312
C36   C     C_R   0.247996 0.513322 0.212081 0.203760
C37   C     C_2   0.877621 0.480393 0.678327 -0.398431
C38   C     C_R   0.397655 0.721456 0.487065 -0.166103
C39   C     C_R   0.552460 0.744478 0.506851 -0.006221
C40   C     C_R   0.620300 0.821527 0.503861 -0.166822
C41   C     C_R   0.526410 0.876895 0.487453 -0.014470
C42   C     C_R   0.370601 0.852588 0.467340 -0.036253
C43   C     C_R   0.308242 0.774310 0.465811 0.126012
C44   C     C_R   0.591743 0.161396 0.479832 0.287050
C45   C     C_3   0.067734 0.735217 0.719106 -0.043230
C46   C     C_R   0.645754 0.241267 0.482737 0.015141
C47   C     C_R   0.885345 0.219400 0.533480 0.008993
C48   C     C_R   0.829389 0.140294 0.532118 -0.225890
C49   C     C_R   0.684330 0.110524 0.504337 -0.042080
C50   C     C_1   0.633464 0.027504 0.499053 0.115570
C51   C     C_1   0.586809 0.958726 0.493614 0.041453
C52   C     C_R   0.795160 0.268357 0.506991 -0.075375
C53   C     C_3   0.124993 0.289362 0.361955 0.461574
C54   C     C_3   0.168158 0.256205 0.299303 -0.078579
C55   C     C_3   0.574164 0.736857 0.652595 0.374084
C56   C     C_3   0.603041 0.821877 0.637795 0.165876
H1    H     H_    0.981997 0.777730 0.730741 0.091412
H2    H     H_    0.036899 0.686729 0.746063 0.074840
H3    H     H_    0.231659 0.323532 0.382073 0.029810
H4    H     H_    0.125340 0.193910 0.289455 0.108203
H5    H     H_    0.297620 0.256802 0.296864 0.162275
H6    H     H_    0.449656 0.714089 0.642353 0.084373
H7    H     H_    0.740720 0.805032 0.235448 0.071690
H8    H     H_    0.725051 0.834847 0.620568 0.113578
H9    H     H_    0.512656 0.830716 0.605802 0.033194
H10   H     H_    0.565811 0.837106 0.269959 0.156774
H11   H     H_    0.433578 0.375699 0.330277 -0.136883
H12   H     H_    0.610903 0.411406 0.369151 0.034917
H13   H     H_    0.650989 0.396645 0.261039 0.043323
H14   H     H_    0.768703 0.337407 0.297646 0.094100
H15   H     H_    0.552775 0.747684 0.222904 0.187571
H16   H     H_    0.043143 0.679140 0.224776 0.038651
H17   H     H_    0.855876 0.219087 0.647298 -0.024945
H18   H     H_    0.076243 0.155676 0.730488 0.115527
H19   H     H_    0.867556 0.157357 0.742546 0.112362
H20   H     H_    0.937004 0.103239 0.678079 0.114520
H21   H     H_    0.598307 0.259743 0.637886 -0.041339
H22   H     H_    0.398946 0.286317 0.643907 0.073593
H23   H     H_    0.405184 0.153580 0.666057 0.078526
H24   H     H_    0.339523 0.212659 0.727784 0.082960
H25   H     H_    0.969801 0.667584 0.329185 0.031483
H26   H     H_    0.024473 0.324040 0.044585 0.165484
H27   H     H_    0.488857 0.567297 0.200154 0.108531
H28   H     H_    0.118358 0.712099 0.964296 0.157450
H29   H     H_    0.022184 0.456280 0.240581 0.115020
H30   H     H_    0.374451 0.516736 0.375533 0.068572
H31   H     H_    0.176787 0.665472 0.317030 0.050614
H32   H     H_    0.894956 0.419991 0.671674 0.093279
H33   H     H_    0.299140 0.893920 0.452180 0.107850
H34   H     H_    0.899813 0.101997 0.551728 0.111631
H35   H     H_    0.740428 0.839662 0.519130 0.122557
H36   H     H_    0.346185 0.661936 0.488031 0.065325
H37   H     H_    0.962485 0.763507 0.257874 0.063158
H38   H     H_    0.934078 0.669150 0.647290 -0.022525
N1    N     N_R   0.947259 0.520766 0.857689 -0.400713
N2    N     N_R   0.200066 0.514871 0.150939 -0.433757
O1    O     O_2   0.894270 0.458150 0.360790 -0.462523
O2    O     O_3   0.675679 0.687734 0.621565 -0.645280
O3    O     O_3   0.110472 0.768187 0.360135 -0.558392
O4    O     O_2   0.295430 0.541870 0.639250 -0.421890
O5    O     O_3   0.054960 0.541130 0.568170 -0.495853
O6    O     O_3   0.526510 0.403350 0.604440 -0.520054
O7    O     O_3   0.177921 0.664774 0.634278 -0.612703
O8    O     O_3   0.623640 0.408350 0.471030 -0.490103
O9    O     O_3   0.112120 0.364170 0.575770 -0.488729
O10   O     O_2   0.212681 0.229174 0.535916 -0.421349
O11   O     O_3   0.105561 0.231920 0.640102 -0.616751
O12   O     O_3   0.134750 0.458940 0.431830 -0.495208
O13   O     O_3   0.566070 0.591710 0.528970 -0.478022
O14   O     O_2   0.362610 0.313970 0.472520 -0.440722
O15   O     O_3   0.527661 0.292762 0.371962 -0.611826
O16   O     O_2   0.393279 0.447976 0.704979 -0.391987
O17   O     O_3   0.557882 0.335329 0.710416 -0.600362
O18   O     O_2   0.003160 0.650467 0.869919 -0.587011
O19   O     O_2   0.884379 0.391906 0.852852 -0.535506
O20   O     O_2   0.141892 0.385306 0.138074 -0.605187
O21   O     O_2   0.271015 0.643105 0.154453 -0.506401
O22   O     O_3   0.663190 0.596710 0.395570 -0.465613
O23   O     O_2   0.765965 0.531675 0.293341 -0.518554
O24   O     O_3   0.000113 0.335384 0.361981 -0.613959
O25   O     O_3   0.713432 0.671312 0.285743 -0.639723
O26   O     O_2   0.827090 0.686050 0.527520 -0.396929
O27   O     O_3   0.077580 0.635890 0.424230 -0.496839
O28   O     O_2   0.980568 0.773236 0.463597 -0.472581
P1    P     P_3+3 0.063260 0.435680 0.369690 0.979796
P2    P     P_3+3 0.650710 0.674870 0.544690 1.007646
P3    P     P_3+3 0.117753 0.737288 0.430228 1.044426
P4    P     P_3+3 0.126450 0.564380 0.630310 1.036882
P5    P     P_3+3 0.074451 0.261605 0.570950 0.986006
P6    P     P_3+3 0.645504 0.586260 0.317934 0.971310
P7    P     P_3+3 0.538954 0.312736 0.448788 1.025134
P8    P     P_3+3 0.552794 0.423513 0.680828 1.022620
N3    N     N_2   0.765194 0.782640 0.350901 -0.420671
H39   H     H_    0.772524 0.754582 0.387889 0.237242
C57   C     C_3   0.763843 0.865434 0.363942 -0.223100
H40   H     H_    0.840867 0.886750 0.402378 0.139835
H41   H     H_    0.641490 0.879465 0.373861 0.142521
H42   H     H_    0.812203 0.895886 0.326263 0.132708
N4    N     N_2   0.227830 0.771375 0.732279 -0.389269
H43   H     H_    0.262595 0.817115 0.708241 0.281500
C58   C     C_3   0.262405 0.789897 0.794000 -0.104776
H44   H     H_    0.388318 0.815250 0.799662 0.158859
H45   H     H_    0.244702 0.736804 0.817050 0.183718
H46   H     H_    0.184677 0.832467 0.813843 0.119005
N5    N     N_2   0.078821 0.226209 0.397568 -0.432296
H47   H     H_    0.170197 0.194774 0.405064 0.252128
C59   C     C_3   0.930061 0.177913 0.383390 -0.184531
H48   H     H_    0.936258 0.142383 0.340798 0.111716
H49   H     H_    0.904822 0.136805 0.416746 0.109941
H50   H     H_    0.830523 0.213511 0.382367 0.141074
N6    N     N_2   0.115257 0.300405 0.254884 -0.442956
H51   H     H_    0.206745 0.328127 0.232049 0.257406
C60   C     C_3   0.986564 0.261612 0.218149 -0.088297
H52   H     H_    0.930065 0.304825 0.196082 0.158702
H53   H     H_    0.894584 0.230507 0.244872 0.145026
H54   H     H_    0.032742 0.219531 0.184503 0.148552
N7    N     N_2   0.598590 0.735456 0.715165 -0.406467
H55   H     H_    0.696239 0.771322 0.732048 0.232600
C61   C     C_3   0.590595 0.660664 0.736648 -0.074116
H56   H     H_    0.710486 0.641472 0.733504 0.025052
H57   H     H_    0.504466 0.617869 0.711197 0.171015
H58   H     H_    0.554273 0.665492 0.783429 0.171453
Cl1   Cl    Cl    0.576392 0.894047 0.697317 -0.693388
Cl2   Cl    Cl    0.463819 0.725781 0.344510 -0.807082
Cl3   Cl    Cl    0.565661 0.263287 0.239822 -0.671076
N8    N     N_2   0.962736 0.298105 0.713611 -0.459429
H59   H     H_    0.856561 0.301961 0.735605 0.224672
C62   C     C_3   0.100645 0.323735 0.750143 -0.093264
H60   H     H_    0.093693 0.383668 0.769948 0.158167
H61   H     H_    0.210839 0.324539 0.723775 0.141265
H62   H     H_    0.105838 0.285675 0.785752 0.128854
N9    N     N_2   0.570052 0.179850 0.734919 -0.449044
H63   H     H_    0.584250 0.121920 0.727429 0.229281
C63   C     C_3   0.568823 0.206976 0.796766 -0.115544
H64   H     H_    0.675761 0.191690 0.818146 0.156520
H65   H     H_    0.461448 0.179277 0.818148 0.117673
H66   H     H_    0.570590 0.270779 0.803320 0.200732
Cl4   Cl    Cl    0.909256 0.286273 0.932419 -0.604186
Cl5   Cl    Cl    0.236999 0.749527 0.076025 -0.513958
Cl6   Cl    Cl    0.233152 0.567815 0.776152 -0.658679
Cl7   Cl    Cl    0.596236 0.487310 0.824747 -0.582426
Cl8   Cl    Cl    0.413703 0.123948 0.443181 -0.685091
N10   N     N_2   0.851670 0.347474 0.506541 -0.420384
H67   H     H_    0.962064 0.359685 0.488142 0.231253
C64   C     C_3   0.816910 0.393405 0.560044 -0.006123
H68   H     H_    0.918782 0.429512 0.575825 0.106434
H69   H     H_    0.772691 0.356583 0.594760 -0.014919
H70   H     H_    0.746166 0.440228 0.553992 0.153781
Cl9   Cl    Cl    0.233772 0.792252 0.238702 -0.522251
Cl10  Cl    Cl    0.050637 0.785658 0.612179 -0.704087

loop_
_geom_bond_atom_site_label_1
_geom_bond_atom_site_label_2
_ccdc_geom_bond_type
C8    N9    S    
C58   H46   S    
C5    N8    S    
C25   N2    Am   
C43   P3    S    
O25   P6    S    
C60   H53   S    
C40   H35   S    
C39   C40   A    
C17   C18   A    
Ba1   P2    S    
O14   P7    D    
C36   N2    S    
C17   Cl5   S    
Ba1   P1    S    
C61   H56   S    
C55   C56   S    
C5    C6    S    
C42   C43   A    
C46   C52   A    
C10   C11   A    
C57   H41   S    
Ba2   O14   S    
C3    H12   S    
O6    P8    S    
C26   C27   S    
C33   C35   A    
C26   Cl7   S    
C22   C24   A    
Ba1   Ba2   S    
N4    C58   S    
N7    H55   S    
C28   C29   D    
N8    C62   S    
N10   C64   S    
C62   H60   S    
Ba2   O4    S    
C58   H44   S    
Ba2   O9    S    
C6    H18   S    
C30   N1    S    
C34   C45   S    
C58   H45   S    
C16   C17   A    
C7    H21   S    
C44   Cl8   S    
O24   P1    S    
C56   Cl1   S    
C31   H27   S    
N9    H63   S    
C64   H70   S    
C3    H11   S    
C45   H2    S    
C41   C51   S    
C63   H66   S    
N5    H47   S    
C2    Cl2   S    
C14   C15   A    
O10   P5    D    
C52   N10   S    
C10   C15   A    
O11   P5    S    
C21   C22   A    
N7    C61   S    
C63   H64   S    
N6    C60   S    
C7    C8    S    
Ba1   O5    S    
C37   H32   S    
O12   P1    S    
O26   P2    D    
C3    O15   S    
C63   H65   S    
C27   P8    S    
C55   N7    S    
C53   O24   S    
C32   P6    S    
C47   C52   A    
O2    P2    S    
C60   H54   S    
C6    H20   S    
C39   P2    S    
Ba1   O1    S    
C1    H7    S    
C12   H25   S    
C13   N1    Am   
C26   C30   D    
C61   H57   S    
C56   H8    S    
C31   C32   A    
O8    P7    S    
C34   Cl10  S    
C4    H13   S    
C23   H16   S    
C57   H42   S    
C44   C46   A    
Ba2   O13   S    
C21   H26   S    
C49   C50   S    
C7    O17   S    
N8    H59   S    
C46   P7    S    
N3    H39   S    
C20   Cl4   S    
C23   Cl9   S    
C59   H50   S    
C12   O3    S    
O1    P1    D    
O28   P3    D    
C28   P4    S    
C55   O2    S    
C44   C49   A    
C8    H24   S    
C15   C19   A    
C5    O11   S    
C2    O25   S    
Ba1   O22   S    
C4    H14   S    
C41   C42   A    
C12   H31   S    
C35   C36   A    
O27   P3    S    
Ba1   O12   S    
C47   P5    S    
C34   H38   S    
C53   N5    S    
C29   C30   S    
Ba2   O6    S    
C9    H30   S    
C27   C37   S    
C53   C54   S    
C48   C49   A    
O16   P8    D    
C54   H5    S    
C16   H28   S    
C18   C19   A    
C33   P1    S    
C42   H33   S    
C24   N2    Am   
C1    H10   S    
O9    P5    S    
C38   C39   A    
C18   C25   A    
C23   H37   S    
C2    N3    S    
C29   Cl6   S    
C6    H19   S    
C54   H4    S    
C40   C41   A    
O23   P6    D    
C1    C2    S    
C60   H52   S    
C61   H58   S    
C50   C51   T    
C55   H6    S    
C48   H34   S    
N3    C57   S    
C45   N4    S    
C4    Cl3   S    
Ba2   O12   S    
C14   C20   A    
N5    C59   S    
C34   O7    S    
O22   P6    S    
C35   H29   S    
C9    C32   A    
C24   O20   D    
C38   H36   S    
C54   N6    S    
C5    H17   S    
O7    P4    S    
O17   P8    S    
C25   O21   D    
C57   H40   S    
Ba1   O8    S    
C8    H23   S    
C31   C36   A    
Ba1   O27   S    
C59   H49   S    
Ba1   O26   S    
C64   H68   S    
C59   H48   S    
Ba1   O13   S    
N10   H67   S    
C3    C4    S    
C62   H61   S    
Ba2   O5    S    
C53   H3    S    
C9    C33   A    
Ba2   P4    S    
Ba2   O8    S    
C28   C37   D    
C12   C23   S    
C11   N1    Am   
C1    H15   S    
O5    P4    S    
N9    C63   S    
C64   H69   S    
C11   O18   D    
C45   H1    S    
C13   O19   D    
C56   H9    S    
C38   C43   A    
C47   C48   A    
C19   C22   A    
C10   C16   A    
O13   P2    S    
C20   C21   A    
O15   P7    S    
N6    H51   S    
N4    H43   S    
C7    H22   S    
C13   C14   A    
O3    P3    S    
C62   H62   S    
O4    P4    D    
