data_mof_unit_42375.cif
_audit_creation_date              2012-12-10T18:14:23-0500
_audit_creation_method            fapswitch 2.2
_symmetry_space_group_name_H-M    P1
_symmetry_Int_Tables_number       1
_space_group_crystal_system       triclinic
_cell_length_a                    12.694526
_cell_length_b                    13.17915
_cell_length_c                    19.024086
_cell_angle_alpha                 92.795869
_cell_angle_beta                  102.678615
_cell_angle_gamma                 81.74863
_cell_volume                      3072.54335832

loop_
_atom_site_label
_atom_site_type_symbol
_atom_type_description
_atom_site_fract_x
_atom_site_fract_y
_atom_site_fract_z
_atom_type_partial_charge
C1    C     C_R   0.438317 0.691264 0.487648 0.852016
C2    C     C_R   0.499743 0.516363 0.709555 -0.058448
C3    C     C_R   0.483615 0.570745 0.070265 0.285529
C4    C     C_R   0.497576 0.566093 0.930938 0.300423
C5    C     C_R   0.393153 0.516916 0.164200 0.218168
C6    C     C_R   0.400878 0.497724 0.236917 -0.198403
C7    C     C_R   0.488985 0.524040 0.289438 -0.073035
C8    C     C_R   0.567320 0.574986 0.269532 -0.206706
C9    C     C_R   0.561206 0.593855 0.197827 -0.211302
C10   C     C_R   0.475717 0.564053 0.144848 0.079832
C11   C     C_R   0.732320 0.048720 0.522781 -0.223879
C12   C     C_R   0.500911 0.501600 0.633960 0.866507
C13   C     C_R   0.599198 0.199447 0.524539 -0.083557
C14   C     C_R   0.293372 0.844247 0.489624 0.071801
C15   C     C_R   0.282849 0.937805 0.527045 -0.180400
C16   C     C_R   0.368953 0.995700 0.544664 0.162721
C17   C     C_R   0.462245 0.967110 0.514142 0.064955
C18   C     C_R   0.477570 0.868893 0.482086 0.021054
C19   C     C_R   0.542986 0.030829 0.516124 0.092149
C20   C     C_R   0.647229 0.989284 0.505699 0.124138
C21   C     C_R   0.661889 0.892299 0.474473 -0.257658
C22   C     C_R   0.573933 0.837506 0.456029 -0.165830
C23   C     C_R   0.561457 0.309126 0.512473 0.860333
C24   C     C_R   0.518018 0.136433 0.517573 -0.322394
C25   C     C_R   0.709849 0.153309 0.539131 0.192418
C26   C     C_R   0.399045 0.802334 0.479862 -0.178306
C27   C     C_R   0.124971 0.300537 0.453797 0.127892
C28   C     C_R   0.797173 0.644062 0.576478 0.223524
C29   C     C_R   0.894573 0.685551 0.578646 0.169740
C30   C     C_R   0.977770 0.626437 0.553697 -0.254796
C31   C     C_R   0.965581 0.529177 0.523214 -0.030974
C32   C     C_R   0.860621 0.496228 0.510159 0.143836
C33   C     C_R   0.053305 0.466045 0.501199 -0.019498
C34   C     C_R   0.497195 0.504396 0.365496 0.849653
C35   C     C_R   0.041830 0.363162 0.479971 0.080993
C36   C     C_R   0.941328 0.329496 0.474271 -0.289060
C37   C     C_R   0.848913 0.400958 0.472461 0.206383
C38   C     C_R   0.152147 0.500834 0.498545 -0.105213
C39   C     C_R   0.205417 0.349566 0.434576 0.301805
C40   C     C_R   0.433655 0.602776 0.731198 0.150073
C41   C     C_R   0.434504 0.619152 0.804211 -0.166514
C42   C     C_R   0.501437 0.552217 0.855197 0.010571
C43   C     C_R   0.567827 0.467765 0.833564 -0.190758
C44   C     C_R   0.566887 0.447861 0.760836 0.051723
H1    H     H_    0.738563 0.861909 0.460195 0.158730
H2    H     H_    0.815539 0.013814 0.524335 0.146264
H3    H     H_    0.433227 0.169217 0.508582 0.196577
H4    H     H_    0.208789 0.963744 0.545909 0.151623
H5    H     H_    0.583630 0.768327 0.423667 0.171454
H6    H     H_    0.928961 0.254685 0.450305 0.173279
H7    H     H_    0.383681 0.684611 0.821531 0.153157
H8    H     H_    0.175431 0.572286 0.521868 0.134318
H9    H     H_    0.053012 0.658213 0.561245 0.153877
H10   H     H_    0.617984 0.414853 0.873283 0.156154
H11   H     H_    0.339196 0.461000 0.252463 0.141951
H12   H     H_    0.633614 0.600691 0.309224 0.155708
H13   H     H_    0.624565 0.630411 0.183408 0.152350
N1    N     N_R   0.584681 0.528926 0.982261 -0.181037
N2    N     N_R   0.577930 0.531651 0.050885 -0.176878
N3    N     N_R   0.397096 0.610236 0.019326 -0.171481
N4    N     N_R   0.404060 0.608042 0.950585 -0.177653
N5    N     N_R   0.222200 0.444680 0.463280 -0.145489
N6    N     N_R   0.776960 0.554780 0.536340 -0.156867
O1    O     O_R   0.366740 0.627160 0.482470 -0.619686
O2    O     O_R   0.544830 0.662520 0.505920 -0.634892
O3    O     O_R   0.410920 0.482320 0.590130 -0.596470
O4    O     O_R   0.589010 0.517690 0.613590 -0.642483
O5    O     O_R   0.455170 0.337480 0.494080 -0.635265
O6    O     O_R   0.633260 0.372840 0.517530 -0.607808
O7    O     O_R   0.410990 0.482310 0.386410 -0.628656
O8    O     O_R   0.589080 0.517680 0.409870 -0.622427
Zn1   Zn    Zn3+2 0.381090 0.476390 0.484340 0.913866
Zn2   Zn    Zn3+2 0.618910 0.523610 0.515660 0.909954
C45   C     C_3   0.364315 0.679247 0.677524 -0.909183
H14   H     H_    0.300980 0.641584 0.639957 0.250963
H15   H     H_    0.322209 0.744539 0.704450 0.234023
H16   H     H_    0.416252 0.710857 0.646383 0.231666
C46   C     C_3   0.193187 0.789772 0.465953 -0.387452
C47   C     C_3   0.094109 0.860237 0.424352 -0.368179
C48   C     C_3   0.998306 0.800927 0.395143 -0.897619
H17   H     H_    0.020963 0.738763 0.357441 0.266057
H18   H     H_    0.972935 0.767061 0.440033 0.267615
H19   H     H_    0.928131 0.853752 0.365701 0.251342
H20   H     H_    0.066674 0.923159 0.459913 0.217416
H21   H     H_    0.116702 0.894775 0.378494 0.235025
H22   H     H_    0.208552 0.724970 0.428627 0.236460
H23   H     H_    0.172675 0.760385 0.514322 0.190430
C49   C     C_3   0.361446 0.078810 0.601722 -0.955634
H24   H     H_    0.442442 0.099924 0.627989 0.260003
H25   H     H_    0.306138 0.147481 0.578190 0.252267
H26   H     H_    0.328213 0.050823 0.645447 0.246480
C50   C     C_3   0.256879 0.307264 0.372382 -0.394725
C51   C     C_3   0.194044 0.355861 0.300839 -0.378846
C52   C     C_3   0.079595 0.325809 0.276146 -0.829472
H27   H     H_    0.083344 0.241083 0.272402 0.256761
H28   H     H_    0.026918 0.357510 0.313670 0.263882
H29   H     H_    0.042094 0.357600 0.222001 0.242491
H30   H     H_    0.188194 0.440801 0.305644 0.229013
H31   H     H_    0.240149 0.329353 0.258497 0.206947
H32   H     H_    0.341638 0.322254 0.380904 0.222798
H33   H     H_    0.262008 0.222881 0.366154 0.186659
C53   C     C_3   0.123815 0.186012 0.441875 -0.988951
H34   H     H_    0.091832 0.153720 0.484558 0.242763
H35   H     H_    0.072929 0.169929 0.388297 0.253336
H36   H     H_    0.207340 0.144498 0.446566 0.246996
C54   C     C_3   0.722844 0.695915 0.624412 -0.361774
C55   C     C_3   0.775241 0.680681 0.704763 -0.394125
C56   C     C_3   0.702086 0.736399 0.752382 -0.864243
H37   H     H_    0.689027 0.820177 0.742721 0.261247
H38   H     H_    0.622068 0.707416 0.740896 0.272135
H39   H     H_    0.741272 0.722976 0.809951 0.257314
H40   H     H_    0.789000 0.597414 0.716580 0.234336
H41   H     H_    0.855232 0.709585 0.719077 0.242678
H42   H     H_    0.698830 0.778249 0.611603 0.191978
H43   H     H_    0.645862 0.667446 0.616431 0.268502
C57   C     C_3   0.917258 0.790788 0.608951 -0.966690
H44   H     H_    0.847758 0.839199 0.625054 0.252715
H45   H     H_    0.985995 0.782286 0.656716 0.246541
H46   H     H_    0.941182 0.833963 0.567561 0.239588
C58   C     C_3   0.768992 0.393287 0.401802 -0.776956
H47   H     H_    0.750496 0.468707 0.375569 0.236973
H48   H     H_    0.803966 0.342929 0.361487 0.192151
H49   H     H_    0.697903 0.358046 0.408092 0.260908
C59   C     C_3   0.634136 0.350637 0.740457 -0.433311
C60   C     C_3   0.578404 0.256636 0.746941 -0.341026
C61   C     C_3   0.648811 0.157143 0.732663 -0.885003
H50   H     H_    0.662777 0.155572 0.677149 0.278630
H51   H     H_    0.728555 0.149628 0.771655 0.263704
H52   H     H_    0.606805 0.090765 0.738648 0.250520
H53   H     H_    0.562549 0.253968 0.801968 0.228896
H54   H     H_    0.499006 0.262184 0.707484 0.228174
H55   H     H_    0.647213 0.352706 0.684834 0.207754
H56   H     H_    0.716361 0.342981 0.776777 0.207270
C62   C     C_3   0.300383 0.482213 0.108694 -0.913807
H57   H     H_    0.247407 0.441451 0.133631 0.230957
H58   H     H_    0.248964 0.549620 0.080381 0.256761
H59   H     H_    0.332859 0.428904 0.069084 0.248917
C63   C     C_3   0.804306 0.206122 0.577427 -0.906368
H60   H     H_    0.781478 0.285914 0.594715 0.265852
H61   H     H_    0.844823 0.163949 0.627445 0.231578
H62   H     H_    0.864645 0.202405 0.543396 0.242217

loop_
_geom_bond_atom_site_label_1
_geom_bond_atom_site_label_2
_ccdc_geom_bond_type
C46   H23   S    
C2    C44   A    
C51   C52   S    
C41   C42   A    
C23   O6    A    
C35   C36   A    
C18   C26   A    
C6    H11   S    
C2    C12   S    
C8    H12   S    
C62   H59   S    
C7    C8    A    
C57   H44   S    
C13   C23   S    
C61   H50   S    
C45   H15   S    
C59   H56   S    
C54   H42   S    
C36   C37   A    
C30   C31   A    
C38   H8    S    
C54   C55   S    
C11   C25   A    
C15   C16   A    
O2    Zn2   S    
C56   H37   S    
C59   H55   S    
C53   H36   S    
C55   H40   S    
C55   H41   S    
C17   C19   A    
C60   H53   S    
O3    Zn1   S    
C19   C20   A    
C27   C39   A    
C8    C9    A    
C45   H16   S    
C1    O2    A    
C55   C56   S    
C31   C33   A    
O6    Zn2   S    
O4    Zn2   S    
C9    C10   A    
C51   H31   S    
C58   H49   S    
C3    N3    A    
C46   H22   S    
O1    Zn1   S    
C60   C61   S    
C21   C22   A    
C47   H20   S    
C13   C25   A    
C52   H27   S    
C15   H4    S    
C48   H19   S    
C12   O4    A    
C58   H48   S    
C21   H1    S    
C5    C62   S    
C30   H9    S    
C11   C20   A    
C45   H14   S    
C48   H18   S    
C28   C54   S    
O8    Zn2   S    
C46   C47   S    
C16   C17   A    
C62   H58   S    
N6    Zn2   S    
C52   H29   S    
C27   C35   A    
N1    N2    A    
C12   O3    A    
C4    N4    A    
C44   C59   S    
C13   C24   A    
N3    N4    A    
C23   O5    A    
C53   H35   S    
C43   C44   A    
C29   C30   A    
C60   H54   S    
C43   H10   S    
C31   C32   A    
C49   H26   S    
O5    Zn1   S    
C20   C21   A    
C17   C18   A    
N5    Zn1   S    
C56   H39   S    
C32   C37   A    
C14   C26   A    
C52   H28   S    
C6    C7    A    
C63   H61   S    
C50   H33   S    
C22   H5    S    
C40   C41   A    
C29   C57   S    
C49   H25   S    
C1    C26   S    
C7    C34   S    
C42   C43   A    
C1    O1    A    
C39   C50   S    
C47   H21   S    
C36   H6    S    
C58   H47   S    
C50   H32   S    
C40   C45   S    
C39   N5    A    
C34   O7    A    
C28   C29   A    
C61   H51   S    
C18   C22   A    
C24   H3    S    
C32   N6    A    
C48   H17   S    
C63   H62   S    
C56   H38   S    
C62   H57   S    
C27   C53   S    
C33   C38   A    
C61   H52   S    
C57   H46   S    
C54   H43   S    
C19   C24   A    
C5    C10   A    
C3    C10   S    
C5    C6    A    
C37   C58   S    
C4    C42   S    
C51   H30   S    
C50   C51   S    
C33   C35   A    
C57   H45   S    
C25   C63   S    
C9    H13   S    
C14   C46   S    
C53   H34   S    
C63   H60   S    
C47   C48   S    
C28   N6    A    
C2    C40   A    
C49   H24   S    
C4    N1    A    
C16   C49   S    
C14   C15   A    
C11   H2    S    
O7    Zn1   S    
C34   O8    A    
C41   H7    S    
C59   C60   S    
C38   N5    A    
C3    N2    A    
