data_mof_unit_30490.cif
_audit_creation_date              2012-12-10T20:41:53-0500
_audit_creation_method            fapswitch 2.2
_symmetry_space_group_name_H-M    P1
_symmetry_Int_Tables_number       1
_space_group_crystal_system       triclinic
_cell_length_a                    15.034972
_cell_length_b                    15.110996
_cell_length_c                    9.890332
_cell_angle_alpha                 89.370391
_cell_angle_beta                  89.399142
_cell_angle_gamma                 90.225511
_cell_volume                      2246.74051476

loop_
_atom_site_label
_atom_site_type_symbol
_atom_type_description
_atom_site_fract_x
_atom_site_fract_y
_atom_site_fract_z
_atom_type_partial_charge
C1    C     C_R   0.379610 0.880647 0.500324 0.883513
C2    C     C_R   0.921935 0.501422 0.072936 0.029834
C3    C     C_R   0.577344 0.002014 0.070895 -0.228978
C4    C     C_R   0.077048 0.507106 0.070815 -0.224120
C5    C     C_R   0.577767 0.004250 0.926007 0.548810
C6    C     C_R   0.077378 0.508905 0.925856 0.567312
C7    C     C_R   0.421847 0.004371 0.931045 0.003211
C8    C     C_R   0.921665 0.498842 0.931096 0.076408
C9    C     C_3   0.345666 0.939693 0.931978 1.002290
C10   C     C_3   0.850106 0.428934 0.931788 0.977434
C11   C     C_3   0.344552 0.948021 0.087498 -0.623168
C12   C     C_R   0.381583 0.121291 0.499672 0.878231
C13   C     C_3   0.849542 0.435361 0.087371 -0.627664
C14   C     C_R   0.619017 0.120566 0.498858 0.886755
C15   C     C_R   0.621934 0.882032 0.499708 0.877341
C16   C     C_R   0.119291 0.620380 0.498877 0.884166
C17   C     C_R   0.120245 0.380456 0.499771 0.875607
C18   C     C_R   0.321017 0.257039 0.595657 0.091160
C19   C     C_R   0.308035 0.757982 0.392977 0.094479
C20   C     C_R   0.804497 0.740744 0.617838 0.111367
C21   C     C_R   0.810051 0.255482 0.394939 0.094112
C22   C     C_R   0.321759 0.193060 0.495204 -0.136678
C23   C     C_R   0.880085 0.380112 0.500328 0.879313
C24   C     C_R   0.309342 0.818978 0.497069 -0.149354
C25   C     C_R   0.825847 0.697305 0.498283 -0.159174
C26   C     C_R   0.810288 0.317839 0.497311 -0.146958
C27   C     C_R   0.267259 0.202692 0.381765 -0.210192
C28   C     C_R   0.237075 0.826079 0.585915 -0.202856
C29   C     C_R   0.795591 0.731003 0.374375 -0.216129
C30   C     C_R   0.736769 0.326500 0.583481 -0.204924
C31   C     C_R   0.731424 0.795988 0.373912 -0.244729
C32   C     C_R   0.671571 0.261526 0.584013 -0.258961
C33   C     C_R   0.202131 0.266524 0.381910 -0.230854
C34   C     C_R   0.881688 0.621731 0.499912 0.866545
C35   C     C_R   0.172359 0.760582 0.586465 -0.258379
C36   C     C_R   0.697777 0.826525 0.497624 -0.099689
C37   C     C_R   0.679964 0.191247 0.493970 -0.068971
C38   C     C_R   0.191083 0.319400 0.496188 -0.087298
C39   C     C_R   0.180056 0.691329 0.494237 -0.069108
C40   C     C_R   0.740808 0.804840 0.617245 0.080144
C41   C     C_R   0.744560 0.192819 0.392560 0.048843
C42   C     C_R   0.254781 0.318546 0.597152 0.040545
C43   C     C_R   0.243221 0.694709 0.390726 0.045826
C44   C     C_3   0.704955 0.777896 0.752895 -0.533992
C45   C     C_3   0.323905 0.251074 0.746754 0.326157
C46   C     C_3   0.807204 0.121591 0.350242 -0.572221
C47   C     C_3   0.247491 0.317030 0.747787 -0.456687
C48   C     C_3   0.306566 0.625024 0.344131 -0.563002
C49   C     C_3   0.450333 0.231076 0.875963 -0.317638
C50   C     C_3   0.489008 0.672411 0.188913 -0.312663
C51   C     C_3   0.813572 0.696698 0.979482 -0.312264
C52   C     C_3   0.984289 0.153920 0.192344 -0.327103
C53   C     C_3   0.707273 0.078832 0.880853 -0.339284
C54   C     C_3   0.205947 0.586494 0.883819 -0.348638
C55   C     C_3   0.190494 0.965678 0.919048 -0.453505
C56   C     C_3   0.378956 0.695668 0.347887 0.369960
C57   C     C_3   0.315463 0.788005 0.911567 -0.309084
C58   C     C_3   0.693067 0.443654 0.923027 -0.469926
C59   C     C_3   0.828438 0.276477 0.904088 -0.308876
C60   C     C_3   0.776284 0.706400 0.754278 0.343853
C61   C     C_3   0.880645 0.191219 0.354463 0.370415
C62   C     C_R   0.422257 0.007787 0.072807 0.050517
H1    H     H_    0.270831 0.157580 0.297419 0.165269
H2    H     H_    0.792390 0.097498 0.247005 0.213778
H3    H     H_    0.265211 0.381875 0.792214 0.263827
H4    H     H_    0.290977 0.601911 0.240644 0.215944
H5    H     H_    0.636281 0.750545 0.748443 0.170125
H6    H     H_    0.814339 0.068729 0.428479 0.167211
H7    H     H_    0.183588 0.287902 0.784876 0.172313
H8    H     H_    0.315657 0.571353 0.420539 0.167149
H9    H     H_    0.305022 0.184543 0.788691 0.109325
H10   H     H_    0.430590 0.685438 0.426873 0.056313
H11   H     H_    0.751091 0.636953 0.751297 0.119100
H12   H     H_    0.232594 0.879832 0.656567 0.215457
H13   H     H_    0.931053 0.181347 0.435244 0.061030
H14   H     H_    0.287546 0.984004 0.132639 0.172439
H15   H     H_    0.362316 0.886513 0.142685 0.255295
H16   H     H_    0.790152 0.465928 0.134840 0.177674
H17   H     H_    0.872775 0.374661 0.139808 0.261428
H18   H     H_    0.476331 0.176133 0.813836 0.193036
H19   H     H_    0.409185 0.205537 0.962192 0.160552
H20   H     H_    0.508459 0.266049 0.918704 0.173424
H21   H     H_    0.477616 0.599674 0.196948 0.160589
H22   H     H_    0.543897 0.693012 0.256519 0.161706
H23   H     H_    0.815961 0.702916 0.278908 0.164851
H24   H     H_    0.510067 0.687790 0.083372 0.194780
H25   H     H_    0.784748 0.628852 0.981830 0.167903
H26   H     H_    0.764100 0.744723 0.018671 0.158306
H27   H     H_    0.871205 0.696972 0.048507 0.187143
H28   H     H_    0.959116 0.084725 0.187213 0.166204
H29   H     H_    0.039705 0.158225 0.265609 0.153155
H30   H     H_    0.011381 0.172190 0.091020 0.194863
H31   H     H_    0.639327 0.999767 0.125304 0.153128
H32   H     H_    0.138986 0.508748 0.125330 0.156906
H33   H     H_    0.760434 0.085287 0.802697 0.196610
H34   H     H_    0.731592 0.381130 0.652182 0.217011
H35   H     H_    0.666583 0.140284 0.875688 0.143753
H36   H     H_    0.740201 0.072922 0.980550 0.149750
H37   H     H_    0.257219 0.596393 0.803558 0.197741
H38   H     H_    0.164187 0.647279 0.885592 0.156649
H39   H     H_    0.241233 0.577690 0.981099 0.155271
H40   H     H_    0.175503 0.024417 0.981656 0.182091
H41   H     H_    0.184211 0.904529 0.981928 0.165350
H42   H     H_    0.139241 0.962241 0.839410 0.205771
H43   H     H_    0.252977 0.796121 0.854932 0.169722
H44   H     H_    0.300343 0.780739 0.021080 0.181460
H45   H     H_    0.703819 0.816665 0.277902 0.171327
H46   H     H_    0.346187 0.725178 0.878601 0.189117
H47   H     H_    0.674469 0.499901 0.988666 0.179294
H48   H     H_    0.691646 0.381073 0.983053 0.169444
H49   H     H_    0.641289 0.438250 0.844465 0.211270
H50   H     H_    0.767312 0.281738 0.843321 0.178356
H51   H     H_    0.810876 0.267805 0.012684 0.179418
H52   H     H_    0.863323 0.215546 0.872116 0.184657
H53   H     H_    0.616981 0.264493 0.656257 0.169377
H54   H     H_    0.157289 0.270510 0.297044 0.173771
H55   H     H_    0.118703 0.762327 0.660406 0.165612
H56   H     H_    0.714705 0.830726 0.828642 0.257350
N1    N     N_R   0.499140 0.000000 0.142800 -0.095364
N2    N     N_R   0.999140 0.500000 0.142800 -0.098155
N3    N     N_R   0.499160 0.000000 0.857150 -0.153529
N4    N     N_R   0.999160 0.500000 0.857150 -0.142471
O1    O     O_R   0.408400 0.908380 0.614690 -0.554849
O2    O     O_R   0.591610 0.908390 0.614650 -0.567918
O3    O     O_R   0.091610 0.591610 0.614650 -0.586473
O4    O     O_R   0.091610 0.408390 0.614650 -0.578050
O5    O     O_R   0.591590 0.091600 0.385310 -0.621120
O6    O     O_R   0.591590 0.908400 0.385310 -0.627518
O7    O     O_R   0.091590 0.591600 0.385310 -0.622883
O8    O     O_R   0.091590 0.408400 0.385310 -0.621169
O9    O     O_3   0.402464 0.291212 0.795428 -0.584563
O10   O     O_3   0.410746 0.719870 0.217768 -0.591481
O11   O     O_3   0.843921 0.721891 0.849258 -0.566486
O12   O     O_R   0.408400 0.091620 0.614690 -0.630853
O13   O     O_3   0.915390 0.213133 0.225188 -0.593021
O14   O     O_3   0.656704 0.002452 0.853184 -0.579996
O15   O     O_3   0.156165 0.510299 0.852568 -0.589300
O16   O     O_3   0.274682 0.976489 0.855947 -0.627125
O17   O     O_3   0.376121 0.857227 0.882501 -0.594614
O18   O     O_3   0.775783 0.461465 0.858663 -0.636200
O19   O     O_3   0.885697 0.349192 0.879722 -0.597536
O20   O     O_R   0.908400 0.408380 0.614690 -0.559998
O21   O     O_R   0.908400 0.591620 0.614690 -0.598940
O22   O     O_R   0.408370 0.908370 0.385350 -0.607380
O23   O     O_R   0.408370 0.091630 0.385350 -0.617116
O24   O     O_R   0.908370 0.408370 0.385350 -0.607908
O25   O     O_R   0.908370 0.591630 0.385350 -0.622254
O26   O     O_R   0.591610 0.091610 0.614650 -0.604053
Zn1   Zn    Zn3+2 0.500010 0.000000 0.653130 1.019386
Zn2   Zn    Zn3+2 0.000010 0.500000 0.653130 1.047274
Zn3   Zn    Zn3+2 0.499980 0.000000 0.346870 0.959657
Zn4   Zn    Zn3+2 0.999980 0.500000 0.346870 0.960532

loop_
_geom_bond_atom_site_label_1
_geom_bond_atom_site_label_2
_ccdc_geom_bond_type
C19   C56   S    
C49   H20   S    
C5    O14   S    
C57   H43   S    
O2    Zn1   S    
C13   H17   S    
C55   H41   S    
C45   H9    S    
C58   H47   S    
C9    O17   S    
C54   H39   S    
C52   H28   S    
C21   C26   A    
C11   C62   S    
C28   H12   S    
O1    Zn1   S    
C50   H22   S    
C27   C33   A    
C49   O9    S    
C55   H40   S    
C55   O16   S    
N4    Zn2   S    
C38   C42   A    
O22   Zn3   S    
C11   H14   S    
C18   C42   A    
C20   C40   A    
C17   O4    A    
C54   O15   S    
C53   H33   S    
C20   C25   A    
C5    N3    A    
C60   H11   S    
C57   O17   S    
C48   C56   S    
C9    O16   S    
C23   C26   S    
C49   H19   S    
C2    C13   S    
C47   H7    S    
C30   H34   S    
C11   H15   S    
O5    Zn3   S    
O21   Zn2   S    
C28   C35   A    
C56   H10   S    
C41   C46   S    
C23   O20   A    
C20   C60   S    
C16   O3    A    
C29   H23   S    
C25   C34   S    
C17   C38   S    
C57   H44   S    
C12   O12   A    
N1    Zn3   S    
C54   H38   S    
C53   O14   S    
C10   O18   S    
C7    N3    A    
C19   C43   A    
C50   H21   S    
C45   C47   S    
C25   C29   A    
C23   O24   A    
C31   H45   S    
C34   O21   A    
N2    Zn4   S    
C15   O2    A    
C44   H5    S    
C46   C61   S    
C58   H49   S    
C36   C40   A    
O26   Zn1   S    
O7    Zn4   S    
C4    C6    A    
C51   H25   S    
C2    N2    A    
C14   O26   A    
C39   C43   A    
C53   H35   S    
O12   Zn1   S    
C55   H42   S    
C61   H13   S    
C14   O5    A    
C46   H2    S    
C10   O19   S    
C12   O23   A    
C35   C39   A    
C1    O1    A    
C7    C62   A    
C46   H6    S    
C34   O25   A    
O6    Zn3   S    
C44   H56   S    
C59   H51   S    
C59   H50   S    
C3    H31   S    
O23   Zn3   S    
C32   C37   A    
C50   O10   S    
C16   O7    A    
C9    C11   S    
C62   N1    A    
C56   O10   S    
C27   H1    S    
C21   C41   A    
C26   C30   A    
C15   O6    A    
O8    Zn4   S    
C12   C22   S    
O24   Zn4   S    
C54   H37   S    
C52   H30   S    
C6    N4    A    
C18   C45   S    
C15   C36   S    
C61   O13   S    
C43   C48   S    
C58   O18   S    
C7    C9    S    
C13   H16   S    
O4    Zn2   S    
C33   H54   S    
C17   O8    A    
C58   H48   S    
C21   C61   S    
C2    C8    A    
C24   C28   A    
C48   H8    S    
C3    C5    A    
C10   C13   S    
C51   H26   S    
C3    N1    A    
C45   O9    S    
C53   H36   S    
C33   C38   A    
C49   H18   S    
C22   C27   A    
O20   Zn2   S    
C6    O15   S    
C18   C22   A    
O25   Zn4   S    
C29   C31   A    
C1    O22   A    
C51   H27   S    
C14   C37   S    
C30   C32   A    
C51   O11   S    
C8    N4    A    
C4    H32   S    
C44   C60   S    
C59   H52   S    
N3    Zn1   S    
C19   C24   A    
C42   C47   S    
C32   H53   S    
C37   C41   A    
C35   H55   S    
O3    Zn2   S    
C50   H24   S    
C16   C39   S    
C40   C44   S    
C57   H46   S    
C59   O19   S    
C1    C24   S    
C8    C10   S    
C52   O13   S    
C31   C36   A    
C4    N2    A    
C52   H29   S    
C48   H4    S    
C60   O11   S    
C47   H3    S    
