data_mof_unit_35289.cif
_audit_creation_date              2012-10-26T19:30:38-0400
_audit_creation_method            fapswitch 2.2
_symmetry_space_group_name_H-M    P1
_symmetry_Int_Tables_number       1
_space_group_crystal_system       triclinic
_cell_length_a                    19.255054
_cell_length_b                    10.690014
_cell_length_c                    9.451207
_cell_angle_alpha                 91.735513
_cell_angle_beta                  89.019039
_cell_angle_gamma                 90.55521
_cell_volume                      1944.14691658

loop_
_atom_site_label
_atom_site_type_symbol
_atom_type_description
_atom_site_fract_x
_atom_site_fract_y
_atom_site_fract_z
_atom_type_partial_charge
C1    C     C_R   0.500997 0.259799 0.497833 0.545611
C2    C     C_3   0.521670 0.032669 0.369697 0.029319
C3    C     C_3   0.554675 0.553833 0.048636 0.098184
C4    C     C_3   0.445325 0.446167 0.951364 0.098184
C5    C     C_3   0.501747 0.613061 0.953127 -0.010321
C6    C     C_3   0.498253 0.386939 0.046873 -0.010321
C7    C     C_3   0.553530 0.441224 0.944983 -0.003211
C8    C     C_3   0.446470 0.558776 0.055017 -0.003210
C9    C     C_R   0.367815 0.502413 0.501314 0.540327
C10   C     C_R   0.632185 0.497587 0.498686 0.540326
C11   C     C_R   0.255520 0.597400 0.587990 -0.001155
C12   C     C_R   0.499003 0.740201 0.502167 0.545611
C13   C     C_R   0.744480 0.402601 0.412007 -0.001155
C14   C     C_R   0.181844 0.592660 0.593305 0.010645
C15   C     C_R   0.818156 0.407341 0.406693 0.010644
C16   C     C_R   0.146226 0.501884 0.508082 0.057227
C17   C     C_R   0.853773 0.498114 0.491920 0.057227
C18   C     C_R   0.183671 0.414861 0.421970 -0.016968
C19   C     C_R   0.816329 0.585134 0.578036 -0.016969
C20   C     C_R   0.256020 0.418085 0.421881 -0.135421
C21   C     C_R   0.743980 0.581911 0.578124 -0.135421
C22   C     C_R   0.291868 0.506683 0.504516 0.000693
C23   C     C_3   0.543653 0.046793 0.596814 0.002505
C24   C     C_R   0.708132 0.493317 0.495484 0.000692
C25   C     C_R   0.929935 0.499348 0.496291 0.327511
C26   C     C_R   0.070065 0.500650 0.503711 0.327511
C27   C     C_3   0.296108 0.699588 0.666475 -0.388367
C28   C     C_3   0.703892 0.300416 0.333519 -0.388368
C29   C     C_3   0.142203 0.681235 0.693047 -0.386324
C30   C     C_3   0.857798 0.318770 0.306947 -0.386324
C31   C     C_3   0.147336 0.319212 0.327838 -0.390060
C32   C     C_3   0.852664 0.680778 0.672174 -0.390061
C33   C     C_3   0.637046 0.904039 0.453089 -0.397741
C34   C     C_3   0.456347 0.953207 0.403186 0.002506
C35   C     C_3   0.362953 0.095960 0.546910 -0.397742
C36   C     C_3   0.595461 0.100274 0.703603 -0.393380
C37   C     C_3   0.404538 0.899727 0.296397 -0.393379
C38   C     C_3   0.457631 0.926930 0.779223 -0.260766
C39   C     C_3   0.425184 0.031543 0.870689 -0.454758
C40   C     C_3   0.542368 0.073070 0.220777 -0.260766
C41   C     C_3   0.574816 0.968457 0.129311 -0.454758
C42   C     C_3   0.619624 0.619701 0.102987 -0.372693
C43   C     C_3   0.380376 0.380299 0.897013 -0.372693
C44   C     C_3   0.564030 0.956032 0.473395 0.001615
C45   C     C_3   0.435970 0.043968 0.526605 0.001615
C46   C     C_3   0.498874 0.876803 0.506308 0.025618
C47   C     C_3   0.501126 0.123197 0.493692 0.025618
C48   C     C_3   0.478330 0.967331 0.630303 0.029319
Cu1   Cu    Cu3+1 0.500020 0.499990 0.643150 0.900204
Cu2   Cu    Cu3+1 0.499980 0.500010 0.356850 0.900205
H1    H     H_    0.598662 0.392336 0.894840 0.098146
H2    H     H_    0.664219 0.259352 0.405560 0.126066
H3    H     H_    0.677638 0.339893 0.241562 0.139995
H4    H     H_    0.736231 0.221326 0.294189 0.115636
H5    H     H_    0.086475 0.656640 0.705518 0.153198
H6    H     H_    0.164213 0.678567 0.800754 0.126150
H7    H     H_    0.145823 0.777945 0.653783 0.135479
H8    H     H_    0.913525 0.343365 0.294478 0.153197
H9    H     H_    0.854177 0.222058 0.346206 0.135478
H10   H     H_    0.835788 0.321442 0.199240 0.126151
H11   H     H_    0.184763 0.262937 0.262402 0.114969
H12   H     H_    0.401338 0.607664 0.105160 0.098146
H13   H     H_    0.116520 0.253755 0.393391 0.158833
H14   H     H_    0.112343 0.366980 0.254952 0.146778
H15   H     H_    0.815237 0.737052 0.737611 0.114969
H16   H     H_    0.887656 0.633006 0.745058 0.146778
H17   H     H_    0.883481 0.746237 0.606624 0.158833
H18   H     H_    0.673400 0.980256 0.422882 0.126917
H19   H     H_    0.654287 0.863754 0.553329 0.125379
H20   H     H_    0.637460 0.828981 0.369901 0.130672
H21   H     H_    0.326600 0.019744 0.577118 0.126916
H22   H     H_    0.362540 0.171018 0.630099 0.130672
H23   H     H_    0.285011 0.350364 0.357383 0.113489
H24   H     H_    0.345713 0.136246 0.446671 0.125378
H25   H     H_    0.619856 0.022760 0.759648 0.115307
H26   H     H_    0.636467 0.154125 0.647506 0.130331
H27   H     H_    0.569003 0.163144 0.782240 0.141843
H28   H     H_    0.380144 0.977240 0.240351 0.115306
H29   H     H_    0.430997 0.836855 0.217760 0.141843
H30   H     H_    0.363533 0.845876 0.352494 0.130330
H31   H     H_    0.457683 0.117625 0.868935 0.155446
H32   H     H_    0.372198 0.052123 0.834502 0.146250
H33   H     H_    0.420606 0.000872 0.981573 0.127371
H34   H     H_    0.714989 0.649630 0.642625 0.113491
H35   H     H_    0.420544 0.846992 0.772179 0.147373
H36   H     H_    0.505531 0.896767 0.830933 0.138938
H37   H     H_    0.627802 0.947877 0.165498 0.146251
H38   H     H_    0.542317 0.882376 0.131064 0.155446
H39   H     H_    0.579394 0.999128 0.018426 0.127371
H40   H     H_    0.494469 0.103234 0.169067 0.138938
H41   H     H_    0.579456 0.153008 0.227821 0.147373
H42   H     H_    0.645576 0.669639 0.015123 0.093173
H43   H     H_    0.605391 0.688363 0.188172 0.155434
H44   H     H_    0.656321 0.550426 0.143127 0.142666
H45   H     H_    0.504756 0.707587 0.910477 0.086969
H46   H     H_    0.394608 0.311638 0.811828 0.155434
H47   H     H_    0.354424 0.330361 0.984877 0.093173
H48   H     H_    0.343679 0.449575 0.856873 0.142666
H49   H     H_    0.495244 0.292413 0.089523 0.086969
H50   H     H_    0.335781 0.740648 0.594433 0.126065
H51   H     H_    0.263769 0.778679 0.705801 0.115635
H52   H     H_    0.322362 0.660113 0.758433 0.139995
N1    N     N_R   0.033166 0.401908 0.552831 -0.239750
N2    N     N_R   0.966834 0.598090 0.447172 -0.239750
N3    N     N_R   0.964138 0.401237 0.549130 -0.234563
N4    N     N_R   0.035862 0.598761 0.450873 -0.234563
N5    N     N_3   0.500050 0.499970 0.858290 -0.224420
N6    N     N_3   0.499950 0.500030 0.141710 -0.224420
O1    O     O_R   0.500030 0.316850 0.620870 -0.505081
O2    O     O_R   0.499970 0.683150 0.379130 -0.505081
O3    O     O_R   0.500000 0.316860 0.379090 -0.513623
O4    O     O_R   0.500000 0.683140 0.620910 -0.513623
O5    O     O_R   0.400160 0.499980 0.620930 -0.504535
O6    O     O_R   0.599840 0.500020 0.379070 -0.504535
O7    O     O_R   0.400130 0.499990 0.379150 -0.499128
O8    O     O_R   0.599870 0.500010 0.620850 -0.499128

loop_
_geom_bond_atom_site_label_1
_geom_bond_atom_site_label_2
_ccdc_geom_bond_type
Cu1   O5    S    
C35   H24   S    
C42   H43   S    
C31   H11   S    
C41   H39   S    
C43   H48   S    
C4    C8    S    
C26   N4    A    
N2    N4    A    
C25   N3    A    
Cu1   N5    S    
C37   H29   S    
C38   H36   S    
Cu1   O1    S    
C19   C21   A    
C3    C7    S    
C36   H27   S    
C38   C39   S    
C11   C14   A    
C9    C22   S    
C34   C37   S    
Cu2   O2    S    
C3    C42   S    
Cu2   O7    S    
C36   H26   S    
C1    O1    A    
C4    N5    S    
C2    C44   S    
C30   H10   S    
C13   C28   S    
C34   C46   S    
C18   C20   A    
C10   O6    A    
C33   H19   S    
C2    C34   S    
C35   H21   S    
Cu2   N6    S    
C19   C32   S    
C8    N6    S    
C12   O2    A    
C5    H45   S    
C44   C46   S    
C45   C47   S    
C16   C26   S    
C41   H37   S    
C37   H30   S    
C46   C48   S    
C27   H50   S    
C23   C47   S    
C38   H35   S    
C9    O7    A    
C31   H13   S    
C39   H31   S    
C4    C6    S    
C28   H4    S    
C1    C47   S    
C29   H5    S    
C10   C24   S    
C27   H51   S    
C23   C44   S    
C13   C24   A    
Cu2   O6    S    
C36   H25   S    
C26   N1    A    
C21   H34   S    
C11   C27   S    
C30   H9    S    
C43   H46   S    
N1    N3    A    
C34   C45   S    
C33   H20   S    
C32   H17   S    
C12   C46   S    
C40   C41   S    
C29   H6    S    
C20   C22   A    
C35   H22   S    
C23   C36   S    
Cu1   O4    S    
C2    C47   S    
C7    N5    S    
C14   C29   S    
C35   C45   S    
C12   O4    A    
C10   O8    A    
C15   C30   S    
C32   H16   S    
C5    N5    S    
C45   C48   S    
C15   C17   A    
C41   H38   S    
C23   C48   S    
C27   H52   S    
C42   H42   S    
C42   H44   S    
C33   C44   S    
C38   C48   S    
C31   H14   S    
C43   H47   S    
C39   H32   S    
C29   H7    S    
C3    C5    S    
C5    C8    S    
C28   H3    S    
C25   N2    A    
C6    C7    S    
C4    C43   S    
C3    N6    S    
C37   H28   S    
C11   C22   A    
C17   C25   S    
C6    H49   S    
C13   C15   A    
C7    H1    S    
C1    O3    A    
C28   H2    S    
C30   H8    S    
Cu2   O3    S    
C17   C19   A    
C20   H23   S    
C14   C16   A    
C40   H41   S    
C9    O5    A    
C39   H33   S    
C2    C40   S    
Cu1   O8    S    
C16   C18   A    
Cu1   Cu2   S    
C21   C24   A    
C6    N6    S    
C18   C31   S    
C40   H40   S    
C33   H18   S    
C8    H12   S    
C32   H15   S    
