data_mof_unit_60098.cif
_audit_creation_date              2012-12-10T18:12:59-0500
_audit_creation_method            fapswitch 2.2
_symmetry_space_group_name_H-M    P1
_symmetry_Int_Tables_number       1
_space_group_crystal_system       triclinic
_cell_length_a                    38.955384
_cell_length_b                    32.258449
_cell_length_c                    21.76765
_cell_angle_alpha                 90.0
_cell_angle_beta                  124.124707
_cell_angle_gamma                 90.000498
_cell_volume                      22644.2346007

loop_
_atom_site_label
_atom_site_type_symbol
_atom_type_description
_atom_site_fract_x
_atom_site_fract_y
_atom_site_fract_z
_atom_type_partial_charge
C1    C     C_R   0.920443 0.000001 0.420536 0.802769
C2    C     C_R   0.970418 0.979196 0.251202 0.403583
C3    C     C_1   0.499999 0.338364 0.999999 0.007203
C4    C     C_1   0.999999 0.875816 0.999999 -0.166311
C5    C     C_1   0.499999 0.375816 0.999999 -0.166257
C6    C     C_1   0.500000 0.124038 1.000000 -0.129887
C7    C     C_1   1.000000 0.624038 1.000000 -0.129951
C8    C     C_R   0.482669 0.772366 0.932572 0.308707
C9    C     C_R   0.517334 0.772366 0.067430 0.308715
C10   C     C_R   0.982648 0.272366 0.932567 0.308769
C11   C     C_R   0.017353 0.272366 0.067434 0.308774
C12   C     C_R   0.935578 0.044754 0.620397 -0.136221
C13   C     C_R   0.529582 0.479196 0.748797 0.403574
C14   C     C_R   0.064419 0.044761 0.379598 -0.136283
C15   C     C_R   0.435581 0.544760 0.620402 -0.136166
C16   C     C_R   0.564417 0.544765 0.379595 -0.136209
C17   C     C_R   0.500001 0.793795 0.000001 0.033146
C18   C     C_R   0.000001 0.293795 0.000001 0.033160
C19   C     C_R   0.017345 0.228358 0.067412 -0.119943
C20   C     C_R   0.982656 0.228358 0.932590 -0.119937
C21   C     C_R   0.517326 0.728358 0.067407 -0.119945
C22   C     C_R   0.482676 0.728358 0.932595 -0.119938
C23   C     C_R   0.000001 0.206527 0.000001 -0.035687
C24   C     C_R   0.470420 0.479193 0.251204 0.403505
C25   C     C_R   0.500001 0.706527 0.000001 -0.035708
C26   C     C_1   0.500001 0.838702 0.000001 0.159390
C27   C     C_1   0.000000 0.338702 0.000001 0.159470
C28   C     C_1   0.000001 0.161454 0.000001 0.025347
C29   C     C_1   0.500001 0.661454 0.000001 0.025306
C30   C     C_R   0.907900 0.070520 0.623558 -0.135984
C31   C     C_R   0.092094 0.070530 0.376434 -0.135991
C32   C     C_R   0.407907 0.570529 0.623566 -0.136005
C33   C     C_R   0.592090 0.570535 0.376430 -0.136014
C34   C     C_R   0.911989 0.076680 0.690536 -0.117316
C35   C     C_R   0.028771 0.980280 0.811532 -0.173665
C36   C     C_R   0.088004 0.076688 0.309456 -0.117321
C37   C     C_R   0.411997 0.576688 0.690544 -0.117309
C38   C     C_R   0.588000 0.576693 0.309451 -0.117310
C39   C     C_R   0.942684 0.055751 0.754020 -0.132095
C40   C     C_R   0.057312 0.055756 0.245974 -0.132128
C41   C     C_R   0.442689 0.555756 0.754027 -0.132109
C42   C     C_R   0.557309 0.555759 0.245970 -0.132134
C43   C     C_R   0.969975 0.027942 0.751437 0.088615
C44   C     C_R   0.030023 0.027944 0.248560 0.088605
C45   C     C_R   0.469978 0.527944 0.751440 0.088603
C46   C     C_R   0.971231 0.980276 0.188470 -0.173751
C47   C     C_R   0.530021 0.527945 0.248558 0.088595
C48   C     C_R   0.968094 0.024419 0.684830 0.054998
C49   C     C_R   0.031904 0.024422 0.315168 0.055000
C50   C     C_R   0.468096 0.524421 0.684832 0.055028
C51   C     C_R   0.531902 0.524424 0.315166 0.055028
C52   C     C_1   0.964998 0.205347 0.863948 0.258876
C53   C     C_1   0.035004 0.205348 0.136054 0.258880
C54   C     C_1   0.465037 0.705348 0.863958 0.258775
C55   C     C_1   0.534965 0.705348 0.136044 0.258782
C56   C     C_1   0.794329 0.977010 0.182313 0.348033
C57   C     C_R   0.528768 0.480276 0.811529 -0.173692
C58   C     C_1   0.205674 0.978626 0.818388 0.348094
C59   C     C_1   0.294334 0.475254 0.183141 0.347993
C60   C     C_1   0.705668 0.476324 0.817370 0.348017
C61   C     C_R   0.471234 0.480273 0.188472 -0.173753
C62   C     C_R   0.999552 0.004099 0.813694 -0.197216
C63   C     C_R   0.000448 0.004098 0.186306 -0.197208
C64   C     C_R   0.499552 0.504098 0.813694 -0.197231
C65   C     C_R   0.079557 0.000002 0.579463 0.802773
C66   C     C_R   0.500448 0.504098 0.186306 -0.197226
C67   C     C_R   0.728148 0.987974 0.170425 0.387561
C68   C     C_R   0.271854 0.988821 0.829942 0.387568
C69   C     C_R   0.228151 0.487054 0.170858 0.387556
C70   C     C_R   0.771851 0.487615 0.829409 0.387560
C71   C     C_R   0.706232 0.999034 0.202663 0.032471
C72   C     C_R   0.293768 0.999103 0.797366 0.032441
C73   C     C_R   0.206232 0.498960 0.202696 0.032506
C74   C     C_R   0.793768 0.499006 0.797324 0.032485
C75   C     C_R   0.728262 0.009983 0.277804 -0.203455
C76   C     C_R   0.420443 0.500001 0.420536 0.802758
C77   C     C_R   0.271736 0.009284 0.721890 -0.203465
C78   C     C_R   0.228260 0.510745 0.277442 -0.203530
C79   C     C_R   0.771739 0.510282 0.722334 -0.203533
C80   C     C_R   0.771535 0.010135 0.321337 -0.179365
C81   C     C_R   0.228463 0.009427 0.678353 -0.179409
C82   C     C_R   0.271533 0.510907 0.320971 -0.179321
C83   C     C_R   0.728466 0.510438 0.678803 -0.179349
C84   C     C_R   0.793586 0.999342 0.290518 0.020140
C85   C     C_R   0.206414 0.999392 0.709501 0.020124
C86   C     C_R   0.293586 0.499289 0.290542 0.020162
C87   C     C_R   0.579557 0.500002 0.579464 0.802761
C88   C     C_R   0.706414 0.499323 0.709473 0.020153
C89   C     C_R   0.771899 0.988237 0.214935 -0.056769
C90   C     C_R   0.228102 0.989066 0.785424 -0.056713
C91   C     C_R   0.271902 0.487338 0.215359 -0.056840
C92   C     C_R   0.728099 0.487887 0.784903 -0.056801
C93   C     C_R   0.999417 0.000051 0.618322 0.774675
C94   C     C_R   0.000583 0.000051 0.381678 0.774636
C95   C     C_R   0.499417 0.500051 0.618322 0.774635
C96   C     C_R   0.500583 0.500051 0.381678 0.774608
C97   C     C_1   0.661401 0.999488 0.160130 -0.050818
C98   C     C_R   0.998610 0.000639 0.684322 -0.206008
C99   C     C_1   0.338599 0.999524 0.839882 -0.050832
C100  C     C_1   0.161401 0.499450 0.160144 -0.050889
C101  C     C_1   0.838599 0.499474 0.839865 -0.050897
C102  C     C_1   0.838451 0.999776 0.337212 -0.026375
C103  C     C_1   0.161549 0.999794 0.662796 -0.026351
C104  C     C_1   0.338451 0.499757 0.337221 -0.026402
C105  C     C_1   0.661549 0.499769 0.662785 -0.026386
C106  C     C_1   0.875884 0.999963 0.375521 -0.153864
C107  C     C_1   0.124117 0.999967 0.624481 -0.153845
C108  C     C_1   0.375884 0.499959 0.375524 -0.153870
C109  C     C_R   0.001390 0.000638 0.315678 -0.206010
C110  C     C_1   0.624116 0.499962 0.624478 -0.153858
C111  C     C_1   0.623961 0.999772 0.123817 -0.143997
C112  C     C_1   0.376039 0.999787 0.876186 -0.144001
C113  C     C_1   0.123961 0.499756 0.123820 -0.144102
C114  C     C_1   0.876039 0.499766 0.876182 -0.144105
C115  C     C_1   0.500000 0.876133 0.000000 -0.131142
C116  C     C_1   0.000000 0.376133 0.000000 -0.131060
C117  C     C_R   1.000000 0.920416 1.000000 0.833160
C118  C     C_R   0.500000 0.420416 1.000000 0.833278
C119  C     C_R   0.999903 0.001970 0.880905 0.813613
C120  C     C_R   0.498610 0.500638 0.684322 -0.206013
C121  C     C_R   0.000097 0.001969 0.119095 0.813606
C122  C     C_R   0.499903 0.501969 0.880905 0.813673
C123  C     C_R   0.500097 0.501969 0.119095 0.813667
C124  C     C_R   0.000000 0.079533 0.000000 0.803323
C125  C     C_R   0.500000 0.579533 0.000000 0.803317
C126  C     C_R   0.500000 0.920691 0.000000 0.802563
C127  C     C_R   0.000000 0.420691 0.000000 0.802565
C128  C     C_R   0.579379 0.999979 0.079380 0.817809
C129  C     C_R   0.420621 0.999980 0.920620 0.817835
C130  C     C_R   0.079379 0.499978 0.079380 0.817637
C131  C     C_R   0.501391 0.500638 0.315678 -0.206013
C132  C     C_R   0.920621 0.499979 0.920620 0.817656
C133  C     C_1   0.000001 0.124045 0.000000 -0.153727
C134  C     C_1   0.500001 0.624045 0.000000 -0.153794
C135  C     C_R   0.500000 0.079438 1.000000 0.806836
C136  C     C_R   1.000000 0.579438 1.000000 0.806454
C137  C     C_R   0.469763 0.228130 0.003384 0.354440
C138  C     C_R   0.530236 0.228131 0.996614 0.354429
C139  C     C_R   0.970970 0.728131 0.006848 0.354386
C140  C     C_R   0.029029 0.728131 0.993150 0.354378
C141  C     C_R   0.500000 0.206382 0.999999 0.053660
C142  C     C_R   0.029585 0.979201 0.748801 0.403689
C143  C     C_R   1.000000 0.706382 0.999999 0.053527
C144  C     C_R   0.028778 0.771849 0.993207 -0.270578
C145  C     C_R   0.971220 0.771849 0.006791 -0.270555
C146  C     C_R   0.529975 0.271849 0.996641 -0.270437
C147  C     C_R   0.470023 0.271849 0.003357 -0.270418
C148  C     C_R   0.999999 0.793601 0.999999 0.066373
C149  C     C_R   0.499999 0.293601 0.999999 0.066306
C150  C     C_1   0.500000 0.161492 0.999999 0.128718
C151  C     C_1   1.000000 0.661492 0.999999 0.128582
C152  C     C_1   0.999999 0.838364 0.999999 0.007129
Cu1   Cu    Cu3+1 0.000000 0.041020 0.500000 0.976795
Cu2   Cu    Cu3+1 0.500000 0.000050 0.938220 1.009016
Cu3   Cu    Cu3+1 1.000000 0.500050 0.061780 1.009168
Cu4   Cu    Cu3+1 0.000000 0.500050 0.938220 1.009153
Cu5   Cu    Cu3+1 0.500000 0.541020 0.500000 0.976579
Cu6   Cu    Cu3+1 0.000000 0.958990 0.500000 1.009508
Cu7   Cu    Cu3+1 0.500000 0.458990 0.500000 1.009858
Cu8   Cu    Cu3+1 0.041020 0.999990 0.040980 0.980639
Cu9   Cu    Cu3+1 0.958980 0.999990 0.959020 0.980576
Cu10  Cu    Cu3+1 0.541020 0.499990 0.040980 0.980512
Cu11  Cu    Cu3+1 0.458980 0.499990 0.959020 0.980465
Cu12  Cu    Cu3+1 0.500000 0.000050 0.061780 1.009035
H1    H     H_    0.787876 0.018718 0.379344 0.156036
H2    H     H_    0.069061 0.040898 0.433093 0.142411
H3    H     H_    0.430939 0.540896 0.566907 0.142381
H4    H     H_    0.569059 0.540901 0.433090 0.142398
H5    H     H_    0.883509 0.086185 0.573996 0.141356
H6    H     H_    0.116484 0.086197 0.425995 0.141460
H7    H     H_    0.383517 0.586196 0.574005 0.141227
H8    H     H_    0.616479 0.586204 0.425989 0.141299
H9    H     H_    0.891135 0.097575 0.693264 0.150419
H10   H     H_    0.108857 0.097586 0.306725 0.150455
H11   H     H_    0.391145 0.597585 0.693275 0.150366
H12   H     H_    0.212121 0.017409 0.620083 0.156112
H13   H     H_    0.608851 0.597592 0.306719 0.150394
H14   H     H_    0.945091 0.062341 0.804954 0.152320
H15   H     H_    0.054905 0.062345 0.195040 0.152323
H16   H     H_    0.445096 0.562345 0.804961 0.152303
H17   H     H_    0.554901 0.562348 0.195036 0.152307
H18   H     H_    0.051692 0.962465 0.859687 0.186373
H19   H     H_    0.948313 0.962458 0.140318 0.186377
H20   H     H_    0.551686 0.462457 0.859681 0.186407
H21   H     H_    0.448317 0.462453 0.140321 0.186407
H22   H     H_    0.711870 0.018481 0.302948 0.165144
H23   H     H_    0.287871 0.520145 0.378669 0.155952
H24   H     H_    0.288127 0.017184 0.696486 0.165179
H25   H     H_    0.211866 0.519892 0.302278 0.165079
H26   H     H_    0.788132 0.519033 0.697308 0.165104
H27   H     H_    0.065654 0.966741 0.715257 0.328696
H28   H     H_    0.934349 0.966733 0.284744 0.328696
H29   H     H_    0.565650 0.466731 0.715254 0.328686
H30   H     H_    0.434352 0.466725 0.284747 0.328684
H31   H     H_    0.421619 0.225900 0.008768 0.333172
H32   H     H_    0.578380 0.225902 0.991230 0.333138
H33   H     H_    0.924748 0.725900 0.017747 0.333169
H34   H     H_    0.712126 0.519278 0.620914 0.156000
H35   H     H_    0.075251 0.725902 0.982251 0.333136
H36   H     H_    0.454917 0.777560 0.824639 0.341375
H37   H     H_    0.545085 0.777561 0.175363 0.341384
H38   H     H_    0.954865 0.277561 0.824626 0.341402
H39   H     H_    0.045137 0.277561 0.175376 0.341409
H40   H     H_    0.677974 0.977763 0.071356 0.338462
H41   H     H_    0.322030 0.979328 0.929327 0.338515
H42   H     H_    0.177979 0.476061 0.072161 0.338413
H43   H     H_    0.822024 0.477097 0.928336 0.338450
H44   H     H_    0.949011 0.788899 0.012034 0.153434
H45   H     H_    0.050987 0.788901 0.987964 0.153407
H46   H     H_    0.446891 0.288899 0.005949 0.153473
H47   H     H_    0.553108 0.288901 0.994049 0.153450
H48   H     H_    0.930936 0.040890 0.566903 0.142386
N1    N     N_1   0.950927 0.186902 0.809252 -0.283951
N2    N     N_1   0.049075 0.186903 0.190749 -0.283942
N3    N     N_1   0.450982 0.686903 0.809266 -0.284039
N4    N     N_1   0.549020 0.686903 0.190736 -0.284027
N5    N     N_1   0.812297 0.968040 0.156289 -0.233900
N6    N     N_1   0.187707 0.970285 0.844683 -0.234238
N7    N     N_1   0.312304 0.465600 0.157439 -0.233532
N8    N     N_1   0.687699 0.467087 0.843271 -0.233741
O1    O     O_R   0.940150 0.034640 0.440170 -0.582867
O2    O     O_R   0.440140 0.999970 0.992380 -0.574586
O3    O     O_R   0.059860 0.499970 0.007620 -0.574507
O4    O     O_R   0.940140 0.499970 0.992380 -0.574523
O5    O     O_R   0.499990 0.059890 0.052110 -0.571847
O6    O     O_R   0.500010 0.059890 0.947890 -0.571845
O7    O     O_R   0.999990 0.559890 0.052110 -0.571653
O8    O     O_R   0.000010 0.559890 0.947890 -0.571653
O9    O     O_R   0.940160 0.965370 0.440130 -0.571356
O10   O     O_R   0.059840 0.965370 0.559870 -0.571407
O11   O     O_R   0.440160 0.465370 0.440130 -0.571267
O12   O     O_R   0.059850 0.034640 0.559830 -0.582820
O13   O     O_R   0.559840 0.465370 0.559870 -0.571303
O14   O     O_R   0.999990 0.034640 0.590170 -0.582049
O15   O     O_R   0.000010 0.034640 0.409830 -0.582073
O16   O     O_R   0.499990 0.534640 0.590170 -0.582126
O17   O     O_R   0.500010 0.534640 0.409830 -0.582143
O18   O     O_R   0.000000 0.965370 0.590130 -0.567383
O19   O     O_R   0.000000 0.965370 0.409870 -0.567359
O20   O     O_R   0.500000 0.465370 0.590130 -0.567280
O21   O     O_R   0.500000 0.465370 0.409870 -0.567264
O22   O     O_R   0.034640 0.940150 0.034570 -0.573729
O23   O     O_R   0.440150 0.534640 0.440170 -0.582943
O24   O     O_R   0.965360 0.940150 0.965430 -0.573716
O25   O     O_R   0.534640 0.440150 0.034570 -0.573761
O26   O     O_R   0.465360 0.440150 0.965430 -0.573751
O27   O     O_R   0.034650 0.999990 0.944440 -0.579459
O28   O     O_R   0.965350 0.999990 0.055560 -0.579497
O29   O     O_R   0.534650 0.499990 0.944440 -0.579521
O30   O     O_R   0.465350 0.499990 0.055560 -0.579548
O31   O     O_R   0.965370 0.000000 0.875180 -0.589151
O32   O     O_R   0.034630 0.000000 0.124820 -0.589146
O33   O     O_R   0.465370 0.500000 0.875180 -0.589120
O34   O     O_R   0.559850 0.534640 0.559830 -0.582909
O35   O     O_R   0.534630 0.500000 0.124820 -0.589117
O36   O     O_R   0.034640 0.059840 0.034640 -0.583563
O37   O     O_R   0.965360 0.059840 0.965360 -0.583600
O38   O     O_R   0.534640 0.559840 0.034640 -0.583599
O39   O     O_R   0.465360 0.559840 0.965360 -0.583628
O40   O     O_R   0.500010 0.940200 0.052220 -0.569153
O41   O     O_R   0.499990 0.940200 0.947780 -0.569167
O42   O     O_R   0.000010 0.440200 0.052220 -0.569139
O43   O     O_R   0.999990 0.440200 0.947780 -0.569147
O44   O     O_3   0.061434 0.957095 0.753669 -0.701015
O45   O     O_R   0.559850 0.000040 0.111990 -0.575318
O46   O     O_3   0.938571 0.957087 0.246336 -0.700947
O47   O     O_3   0.561427 0.457085 0.753663 -0.700847
O48   O     O_3   0.438576 0.457079 0.246340 -0.700810
O49   O     O_3   0.440415 0.206106 0.006666 -0.714665
O50   O     O_3   0.559584 0.206108 0.993332 -0.714722
O51   O     O_3   0.942794 0.706106 0.013492 -0.714537
O52   O     O_3   0.057205 0.706108 0.986506 -0.714582
O53   O     O_3   0.466192 0.795717 0.868475 -0.714935
O54   O     O_3   0.533811 0.795717 0.131526 -0.714915
O55   O     O_3   0.966152 0.295717 0.868466 -0.714868
O56   O     O_R   0.440150 0.000040 0.888010 -0.575329
O57   O     O_3   0.033849 0.295717 0.131536 -0.714852
O58   O     O_3   0.708399 0.976829 0.096556 -0.716989
O59   O     O_3   0.291605 0.978459 0.904152 -0.716968
O60   O     O_3   0.208404 0.475057 0.097392 -0.717008
O61   O     O_3   0.791599 0.476136 0.903124 -0.716998
O62   O     O_R   0.059850 0.500040 0.111990 -0.575320
O63   O     O_R   0.940150 0.500040 0.888010 -0.575328
O64   O     O_R   0.559860 0.999970 0.007620 -0.574562

loop_
_geom_bond_atom_site_label_1
_geom_bond_atom_site_label_2
_ccdc_geom_bond_type
C44   C49   A    
C125  C134  S    
C73   C100  S    
C71   C75   A    
C105  C110  T    
C2    C109  A    
C36   H10   S    
C24   C61   A    
C88   C105  S    
C135  O6    A    
C84   C102  S    
C96   O17   A    
Cu8   O32   S    
C41   H16   S    
Cu2   O64   S    
C140  C143  A    
C138  C146  A    
C10   O55   S    
C12   C48   A    
C86   C104  S    
Cu6   O10   S    
C122  O33   A    
C146  H47   S    
Cu11  O26   S    
C118  O25   A    
C15   C32   A    
C22   C54   S    
C68   O59   S    
C2    C46   A    
C35   H18   S    
C71   C97   S    
C94   C109  S    
C11   C19   A    
C6    C135  S    
C115  C126  S    
C65   O10   A    
Cu2   O6    S    
Cu4   O3    S    
C50   C120  A    
C17   C26   S    
Cu2   Cu12  S    
C130  O3    A    
C147  C149  A    
C10   C18   A    
C38   C42   A    
Cu10  O29   S    
C86   C91   A    
C60   N8    T    
C97   C111  T    
C94   O15   A    
C11   C18   A    
C14   C49   A    
C13   C57   A    
C140  O52   S    
H36   O53   S    
C2    O46   S    
C111  C128  S    
Cu11  O39   S    
C67   C89   A    
C7    C136  S    
Cu1   O15   S    
C1    O1    A    
C15   C50   A    
Cu1   Cu6   S    
Cu11  O33   S    
C119  O27   A    
C26   C115  T    
C56   N5    T    
Cu9   O24   S    
C21   C25   A    
Cu3   O42   S    
C139  C143  A    
C61   C66   A    
C87   O34   A    
C88   C92   A    
C10   C20   A    
C79   H26   S    
C70   C74   A    
C68   C90   A    
Cu7   O20   S    
C16   C51   A    
Cu1   O12   S    
C69   C73   A    
Cu12  O5    S    
H40   O58   S    
C112  C129  S    
H33   O51   S    
C147  H46   S    
C43   C48   A    
C14   C31   A    
C47   C66   A    
C123  O35   A    
C8    O53   S    
C85   C103  S    
C144  C148  A    
Cu6   O19   S    
C42   C47   A    
C27   C116  T    
Cu4   O8    S    
C143  C151  S    
C83   C88   A    
C136  O8    A    
C76   C108  S    
C38   H13   S    
C118  O26   A    
C24   O48   S    
C101  C114  T    
Cu7   O13   S    
C15   H3    S    
Cu3   O4    S    
C78   H25   S    
C142  O44   S    
C73   C78   A    
C13   O47   S    
Cu6   O9    S    
C144  H45   S    
C63   C121  S    
C141  C150  S    
Cu3   Cu4   S    
C60   C92   S    
C42   H17   S    
C25   C29   S    
C54   N3    T    
C4    C152  T    
Cu7   O21   S    
C3    C149  S    
C32   C37   A    
C113  C130  S    
C30   C34   A    
C80   C84   A    
H29   O47   S    
C81   H12   S    
C148  C152  S    
C9    O54   S    
C36   C40   A    
C76   O23   A    
H30   O48   S    
C12   H48   S    
Cu9   O28   S    
C55   N4    T    
Cu9   O31   S    
C51   C131  A    
C129  O2    A    
C121  O32   A    
C47   C51   A    
C29   C134  T    
C82   C86   A    
C69   O60   S    
C139  O51   S    
C125  O38   A    
C22   C25   A    
C94   O19   A    
C28   C133  T    
C126  O41   A    
C68   C72   A    
C83   H34   S    
Cu7   O11   S    
C46   H19   S    
C19   C23   A    
C30   H5    S    
Cu1   O1    S    
C72   C77   A    
C75   C80   A    
C119  O31   A    
C16   C33   A    
C37   H11   S    
C146  C149  A    
C58   C90   S    
C78   C82   A    
C8    C22   A    
C125  O39   A    
C20   C23   A    
C77   C81   A    
C93   O18   A    
C128  O45   A    
Cu3   O7    S    
H41   O59   S    
C76   O11   A    
C61   H21   S    
H42   O60   S    
H28   O46   S    
C23   C28   S    
C9    C17   A    
C67   O58   S    
Cu2   O56   S    
C9    C21   A    
C116  C127  S    
C62   C119  S    
C117  O22   A    
Cu6   O18   S    
C96   C131  S    
C7    C151  T    
C124  C133  S    
Cu5   O17   S    
C56   C89   S    
C32   H7    S    
C124  O37   A    
C74   C79   A    
C74   C101  S    
C93   O14   A    
H37   O54   S    
C87   C110  S    
C59   C91   S    
C75   H22   S    
C14   H2    S    
C84   C89   A    
C128  O64   A    
C40   H15   S    
H39   O57   S    
H31   O49   S    
C80   H1    S    
C104  C108  T    
C39   H14   S    
C136  O7    A    
C145  C148  A    
C57   C64   A    
C21   C55   S    
Cu10  Cu11  S    
C138  O50   S    
Cu4   O43   S    
Cu9   O37   S    
C33   H8    S    
Cu10  O25   S    
C137  C141  A    
C20   C52   S    
C139  C145  A    
C137  O49   S    
C135  O5    A    
C65   O12   A    
C12   C30   A    
C58   N6    T    
C132  O4    A    
C5    C118  S    
C114  C132  S    
C137  C147  A    
Cu11  O30   S    
C70   C92   A    
C100  C113  T    
C140  C144  A    
Cu10  O35   S    
C3    C5    T    
C138  C141  A    
Cu4   O63   S    
C39   C43   A    
C85   C90   A    
C34   C39   A    
Cu5   O16   S    
C31   H6    S    
C95   C120  S    
C70   O61   S    
C48   C98   A    
Cu12  O45   S    
C1    C106  S    
C45   C64   A    
C33   C38   A    
C87   O13   A    
C127  O42   A    
C126  O40   A    
C82   H23   S    
C18   C27   S    
H27   O44   S    
Cu8   O36   S    
Cu3   O62   S    
Cu12  O40   S    
Cu5   O23   S    
C49   C109  A    
H43   O61   S    
C130  O62   A    
Cu2   O41   S    
C59   N7    T    
Cu5   O34   S    
Cu8   Cu9   S    
C8    C17   A    
C79   C83   A    
C121  O28   A    
C53   N2    T    
C24   C131  A    
C19   C53   S    
C123  O30   A    
H32   O50   S    
C46   C63   A    
C45   C50   A    
C16   H4    S    
Cu12  O2    S    
C64   C122  S    
C99   C112  T    
C52   N1    T    
C11   O57   S    
Cu1   O14   S    
C102  C106  T    
C35   C62   A    
C67   C71   A    
C95   O20   A    
C145  H44   S    
C37   C41   A    
C4    C117  S    
C81   C85   A    
C96   O21   A    
C35   C142  A    
C6    C150  T    
C117  O24   A    
C1    O9    A    
H38   O55   S    
C40   C44   A    
C132  O63   A    
Cu10  O38   S    
Cu5   Cu7   S    
C44   C63   A    
C95   O16   A    
C124  O36   A    
C34   H9    S    
C77   H24   S    
C41   C45   A    
C31   C36   A    
C129  O56   A    
C103  C107  T    
C13   C120  A    
Cu8   O27   S    
Cu8   O22   S    
C69   C91   A    
C66   C123  S    
C93   C98   S    
C65   C107  S    
C57   H20   S    
C98   C142  A    
C43   C62   A    
H35   O52   S    
C122  O29   A    
C72   C99   S    
C127  O43   A    
