data_mof_unit_32978.cif
_audit_creation_date              2012-12-10T18:43:09-0500
_audit_creation_method            fapswitch 2.2
_symmetry_space_group_name_H-M    P1
_symmetry_Int_Tables_number       1
_space_group_crystal_system       triclinic
_cell_length_a                    10.714145
_cell_length_b                    9.99063
_cell_length_c                    10.666919
_cell_angle_alpha                 91.434761
_cell_angle_beta                  91.634537
_cell_angle_gamma                 90.072489
_cell_volume                      1140.9736397

loop_
_atom_site_label
_atom_site_type_symbol
_atom_type_description
_atom_site_fract_x
_atom_site_fract_y
_atom_site_fract_z
_atom_type_partial_charge
C1    C     C_R   0.260357 0.499971 0.500991 0.844302
C2    C     C_R   0.935341 0.380163 0.479314 -0.198469
C3    C     C_R   0.872307 0.500532 0.500038 -0.011417
C4    C     C_R   0.127640 0.500135 0.502526 -0.008631
C5    C     C_R   0.936704 0.621004 0.521979 -0.196649
C6    C     C_R   0.064693 0.620911 0.522584 -0.190939
C7    C     C_R   0.553201 0.070557 0.599355 0.186167
C8    C     C_R   0.449627 0.064960 0.399639 0.197527
C9    C     C_R   0.553730 0.928218 0.596006 -0.134871
C10   C     C_R   0.446786 0.923069 0.403879 -0.127006
C11   C     C_3   0.611921 0.131426 0.719287 -0.358692
C12   C     C_R   0.739618 0.500108 0.499726 0.848044
C13   C     C_3   0.737624 0.199812 0.701711 -0.755244
C14   C     C_3   0.402690 0.118567 0.275340 -0.362238
C15   C     C_3   0.270838 0.175701 0.279813 -0.842138
C16   C     C_R   0.500233 0.498451 0.262884 0.919073
C17   C     C_R   0.493712 0.501976 0.736798 0.919368
C18   C     C_2   0.433152 0.404958 0.929013 -0.158701
C19   C     C_2   0.428992 0.411289 0.064159 -0.182539
C20   C     C_2   0.473905 0.510005 0.867713 -0.333792
C21   C     C_2   0.504088 0.494653 0.130520 -0.316390
C22   C     C_R   0.063068 0.379649 0.482742 -0.202691
H1    H     H_    0.402661 0.313455 0.880425 0.154023
H2    H     H_    0.404412 0.863625 0.327766 0.148684
H3    H     H_    0.777264 0.170615 0.610123 0.245040
H4    H     H_    0.728321 0.309876 0.711336 0.265286
H5    H     H_    0.805613 0.169506 0.776312 0.211394
H6    H     H_    0.545484 0.192424 0.771788 0.214467
H7    H     H_    0.631125 0.051631 0.788147 0.151294
H8    H     H_    0.214436 0.122040 0.348467 0.245057
H9    H     H_    0.273006 0.283980 0.301835 0.277377
H10   H     H_    0.223562 0.163263 0.186168 0.221853
H11   H     H_    0.471836 0.182914 0.232634 0.223515
H12   H     H_    0.365622 0.344666 0.109145 0.165767
H13   H     H_    0.396933 0.035682 0.203686 0.158279
H14   H     H_    0.487907 0.607563 0.913066 0.151584
H15   H     H_    0.570498 0.561245 0.089147 0.140078
H16   H     H_    0.110544 0.285346 0.468943 0.159163
H17   H     H_    0.886554 0.286721 0.459777 0.152662
H18   H     H_    0.888697 0.714853 0.538857 0.158458
H19   H     H_    0.113853 0.714793 0.539330 0.159514
H20   H     H_    0.596509 0.872469 0.671567 0.140220
N1    N     N_R   0.500000 0.857200 0.500000 -0.104530
N2    N     N_R   0.500000 0.142810 0.500000 -0.094488
O1    O     O_R   0.316770 0.614620 0.499990 -0.619448
O2    O     O_R   0.683230 0.614620 0.500010 -0.619505
O3    O     O_R   0.316800 0.385290 0.500000 -0.622944
O4    O     O_R   0.683200 0.385290 0.500000 -0.621052
O5    O     O_R   0.500000 0.614630 0.319080 -0.618315
O6    O     O_R   0.500000 0.614630 0.680920 -0.624029
O7    O     O_R   0.500030 0.385300 0.319080 -0.618176
O8    O     O_R   0.499970 0.385300 0.680920 -0.616540
Zn1   Zn    Zn3+2 0.500000 0.653120 0.500000 0.939469
Zn2   Zn    Zn3+2 0.500000 0.346880 0.500000 0.941771

loop_
_geom_bond_atom_site_label_1
_geom_bond_atom_site_label_2
_ccdc_geom_bond_type
C17   O6    A    
C2    C22   A    
O4    Zn2   S    
C15   H9    S    
C16   C21   S    
C4    C22   A    
C16   O7    A    
C12   O4    A    
C1    C4    S    
C13   H3    S    
O7    Zn2   S    
C14   H11   S    
C2    C3    A    
O1    Zn1   S    
C15   H10   S    
C7    N2    A    
C11   H7    S    
C7    C11   S    
C11   C13   S    
C1    O1    A    
C9    H20   S    
C11   H6    S    
O3    Zn2   S    
O5    Zn1   S    
C17   O8    A    
C4    C6    A    
C19   C21   D    
O8    Zn2   S    
C18   C20   D    
C5    C6    A    
C13   H4    S    
C9    N1    A    
O6    Zn1   S    
C18   H1    S    
C20   H14   S    
N2    Zn2   S    
C17   C20   S    
C21   H15   S    
C16   O5    A    
O2    Zn1   S    
C15   H8    S    
C12   O2    A    
C18   C19   S    
C5    H18   S    
C6    H19   S    
C14   H13   S    
C7    C9    A    
C14   C15   S    
C1    O3    A    
C8    C14   S    
C3    C12   S    
C10   H2    S    
C10   N1    A    
C2    H17   S    
N1    Zn1   S    
C8    C10   A    
C13   H5    S    
C8    N2    A    
C3    C5    A    
C19   H12   S    
C22   H16   S    
