data_mof_unit_45974.cif
_audit_creation_date              2012-12-11T16:24:13-0500
_audit_creation_method            fapswitch 2.2
_symmetry_space_group_name_H-M    P1
_symmetry_Int_Tables_number       1
_space_group_crystal_system       triclinic
_cell_length_a                    8.310953
_cell_length_b                    17.32458
_cell_length_c                    17.284713
_cell_angle_alpha                 98.106036
_cell_angle_beta                  96.39167
_cell_angle_gamma                 97.483413
_cell_volume                      2421.45144708

loop_
_atom_site_label
_atom_site_type_symbol
_atom_type_description
_atom_site_fract_x
_atom_site_fract_y
_atom_site_fract_z
_atom_type_partial_charge
Ba1   Ba    Ba6+2 0.160000 0.538340 0.465920 1.636326
Ba2   Ba    Ba6+2 0.650170 0.461650 0.534010 1.634899
C1    C     C_3   0.359464 0.843710 0.229183 -0.171892
C2    C     C_3   0.413648 0.781534 0.277597 0.390957
C3    C     C_3   0.593022 0.700816 0.660561 0.321424
C4    C     C_3   0.648327 0.790322 0.686401 -0.044368
C5    C     C_3   0.864277 0.244930 0.707506 0.405465
C6    C     C_3   0.851685 0.171425 0.748264 -0.038675
C7    C     C_3   0.377922 0.265157 0.734761 0.359739
C8    C     C_3   0.436121 0.242635 0.814581 -0.179970
C9    C     C_2   0.750774 0.721605 0.477708 -0.237446
C10   C     C_3   0.661350 0.773749 0.430597 -0.055672
C11   C     C_2   0.713513 0.860270 0.459967 -0.102736
C12   C     C_3   0.863601 0.743690 0.254349 0.404105
C13   C     C_2   0.861421 0.886085 0.503000 0.008674
C14   C     C_2   0.957175 0.825816 0.532882 -0.135922
C15   C     C_1   0.892479 0.749820 0.521972 0.072271
C16   C     C_R   0.106381 0.140110 0.535958 -0.126324
C17   C     C_R   0.168879 0.220302 0.548637 -0.008786
C18   C     C_R   0.918868 0.249517 0.478699 0.079208
C19   C     C_R   0.856093 0.168506 0.465988 -0.129773
C20   C     C_R   0.947513 0.113219 0.496120 0.010650
C21   C     C_2   0.931070 0.972011 0.520731 -0.082527
C22   C     C_2   0.878599 0.027535 0.479707 -0.079784
C23   C     C_3   0.806850 0.765923 0.174270 -0.376552
C24   C     C_R   0.072539 0.274983 0.523101 -0.265646
C25   C     C_R   0.603853 0.529903 0.283348 -0.276931
C26   C     C_R   0.442309 0.494814 0.257531 0.090443
C27   C     C_R   0.376982 0.491891 0.178407 -0.129051
C28   C     C_R   0.476488 0.518891 0.124321 0.003461
C29   C     C_R   0.640361 0.551759 0.150456 -0.146099
C30   C     C_R   0.703041 0.558254 0.230200 -0.009572
C31   C     C_R   0.413335 0.517727 0.837416 -0.117764
C32   C     C_R   0.360790 0.509193 0.756463 0.038115
C33   C     C_R   0.103892 0.433054 0.774412 -0.006623
C34   C     C_3   0.703990 0.340148 0.282930 0.309976
C35   C     C_R   0.156686 0.441566 0.855685 -0.133976
C36   C     C_R   0.312403 0.483430 0.887267 0.006592
C37   C     C_1   0.366165 0.495635 0.971250 -0.010786
C38   C     C_1   0.414862 0.506619 0.041155 -0.005448
C39   C     C_R   0.209220 0.464348 0.724979 -0.267780
C40   C     C_3   0.620175 0.285819 0.207145 -0.210098
C41   C     C_3   0.110216 0.663945 0.718121 0.323524
C42   C     C_3   0.215097 0.718266 0.788086 -0.335371
C43   C     C_3   0.182001 0.287626 0.301546 0.339444
C44   C     C_3   0.115370 0.235351 0.220537 -0.014265
H1    H     H_    0.517673 0.244670 0.221388 0.119901
H2    H     H_    0.191197 0.632585 0.682264 0.039408
H3    H     H_    0.293148 0.684347 0.822625 0.080022
H4    H     H_    0.136673 0.747610 0.827512 0.093429
H5    H     H_    0.546334 0.800198 0.297050 -0.040881
H6    H     H_    0.429886 0.845301 0.178224 0.063865
H7    H     H_    0.717591 0.808106 0.180421 0.071582
H8    H     H_    0.992725 0.261676 0.697687 -0.103180
H9    H     H_    0.402427 0.330482 0.739900 0.020000
H10   H     H_    0.570148 0.261166 0.829587 0.148259
H11   H     H_    0.779934 0.010538 0.431358 0.065679
H12   H     H_    0.185182 0.099210 0.554221 0.067038
H13   H     H_    0.030802 0.988990 0.568644 0.072913
H14   H     H_    0.635403 0.900524 0.439269 0.059257
H15   H     H_    0.737656 0.148388 0.431098 0.079259
H16   H     H_    0.123541 0.336721 0.531322 0.075990
H17   H     H_    0.530151 0.552960 0.861757 0.068912
H18   H     H_    0.754481 0.716898 0.278330 -0.065151
H19   H     H_    0.719479 0.570816 0.108900 0.068215
H20   H     H_    0.074735 0.418553 0.894290 0.071520
H21   H     H_    0.252667 0.463595 0.157844 0.083652
H22   H     H_    0.166938 0.459829 0.662755 0.063459
H23   H     H_    0.912781 0.793449 0.148701 0.111222
H24   H     H_    0.746951 0.712645 0.132813 0.093342
H25   H     H_    0.612967 0.364994 0.316788 0.058677
H26   H     H_    0.788870 0.389574 0.268582 0.002874
O1    O     O_2   0.169780 0.691990 0.551040 -0.456325
O2    O     O_3   0.321464 0.336958 0.290192 -0.667761
O3    O     O_3   0.983719 0.693833 0.244930 -0.576966
O4    O     O_2   0.640500 0.307960 0.448930 -0.451799
O5    O     O_3   0.913680 0.405980 0.454370 -0.486417
O6    O     O_3   0.425430 0.355970 0.589750 -0.465970
O7    O     O_3   0.795226 0.293842 0.324869 -0.678402
O8    O     O_3   0.389690 0.539950 0.593560 -0.469167
O9    O     O_3   0.853010 0.395500 0.630820 -0.476664
O10   O     O_2   0.777695 0.452087 0.771459 -0.473364
O11   O     O_3   0.806791 0.305409 0.754749 -0.603387
O12   O     O_3   0.896620 0.594010 0.545570 -0.492333
O13   O     O_3   0.420600 0.460050 0.406370 -0.468539
O14   O     O_2   0.650040 0.537900 0.687840 -0.457140
O15   O     O_3   0.513553 0.667663 0.718508 -0.663538
O16   O     O_2   0.493487 0.217473 0.527043 -0.481196
O17   O     O_3   0.461378 0.229776 0.676293 -0.591480
O18   O     O_3   0.384860 0.644020 0.410190 -0.462643
O19   O     O_2   0.368653 0.781950 0.494750 -0.490003
O20   O     O_3   0.018585 0.709891 0.675360 -0.653128
O21   O     O_3   0.321433 0.777896 0.341511 -0.561665
O22   O     O_2   0.160250 0.462050 0.312130 -0.469726
O23   O     O_3   0.957280 0.604490 0.369120 -0.459393
O24   O     O_2   0.033169 0.548006 0.228505 -0.483870
P1    P     P_3+3 0.996700 0.679700 0.572930 0.970315
P2    P     P_3+3 0.328720 0.438370 0.322170 0.978787
P3    P     P_3+3 0.917136 0.600077 0.266923 0.977717
P4    P     P_3+3 0.813590 0.320290 0.427010 0.976455
P5    P     P_3+3 0.887872 0.396639 0.733022 0.952670
P6    P     P_3+3 0.434800 0.745964 0.419886 0.969965
P7    P     P_3+3 0.477305 0.564670 0.692097 0.933846
P8    P     P_3+3 0.386253 0.254173 0.585602 0.956208
C45   C     C_3   0.389828 0.700984 0.225016 -0.325685
H27   H     H_    0.431439 0.656656 0.259692 0.087633
H28   H     H_    0.259503 0.681832 0.200621 0.164767
H29   H     H_    0.462641 0.703292 0.175146 0.044148
C46   C     C_3   0.557803 0.329650 0.142467 -0.497155
H30   H     H_    0.443065 0.350609 0.155992 0.146111
H31   H     H_    0.650816 0.379523 0.135718 0.131754
H32   H     H_    0.529671 0.288721 0.085582 0.135010
H33   H     H_    0.707897 0.248862 0.182936 0.121758
C47   C     C_3   0.992724 0.605100 0.749219 -0.308534
H34   H     H_    0.945264 0.556362 0.700311 0.139338
H35   H     H_    0.054932 0.581806 0.799085 0.044951
H36   H     H_    0.890304 0.633316 0.771033 0.126022
H37   H     H_    0.295148 0.764462 0.766879 0.126497
H38   H     H_    0.087494 0.320734 0.324187 0.064879
C48   C     C_3   0.239314 0.237729 0.362341 -0.338034
H39   H     H_    0.299104 0.277492 0.416642 0.127336
H40   H     H_    0.135101 0.198228 0.376877 0.046690
H41   H     H_    0.330251 0.201464 0.339998 0.110166
H42   H     H_    0.228018 0.827852 0.205044 0.113917
C49   C     C_3   0.049737 0.285762 0.161322 -0.357182
H43   H     H_    0.987551 0.248287 0.105889 0.102281
H44   H     H_    0.152270 0.325600 0.145660 0.101553
H45   H     H_    0.963539 0.322709 0.186588 0.119956
C50   C     C_3   0.987335 0.163986 0.225271 -0.473470
H46   H     H_    0.046956 0.119083 0.252988 0.113467
H47   H     H_    0.890182 0.180773 0.259968 0.164178
H48   H     H_    0.929804 0.135013 0.165360 0.124228
H49   H     H_    0.219545 0.210476 0.196219 0.106789
H50   H     H_    0.703720 0.673413 0.650724 0.022617
H51   H     H_    0.510826 0.690373 0.603587 0.037400
C51   C     C_3   0.744665 0.808949 0.769574 -0.353449
H52   H     H_    0.664624 0.794004 0.814343 0.134848
H53   H     H_    0.848510 0.775000 0.773690 0.131574
H54   H     H_    0.794764 0.872710 0.783541 0.100090
H55   H     H_    0.733517 0.809436 0.645345 0.052889
C52   C     C_3   0.505906 0.838843 0.679679 -0.364935
H56   H     H_    0.392067 0.802957 0.647062 0.154745
H57   H     H_    0.478212 0.864478 0.738434 0.103439
H58   H     H_    0.538938 0.888801 0.647768 0.114185
C53   C     C_3   0.389495 0.926088 0.278282 -0.417234
H59   H     H_    0.348714 0.969228 0.241370 0.112493
H60   H     H_    0.320099 0.927670 0.329647 0.152058
H61   H     H_    0.522057 0.943804 0.299766 0.110387
H62   H     H_    0.786984 0.231213 0.649105 0.064063
H63   H     H_    0.720826 0.152261 0.752501 0.123640
C54   C     C_3   0.913593 0.103253 0.699736 -0.482789
H64   H     H_    0.902324 0.050259 0.729334 0.134039
H65   H     H_    0.837848 0.087677 0.641218 0.130632
H66   H     H_    0.043667 0.119503 0.691813 0.130147
C55   C     C_3   0.944038 0.190004 0.832305 -0.376198
H67   H     H_    0.880449 0.229748 0.870512 0.128863
H68   H     H_    0.948614 0.135218 0.858491 0.109305
H69   H     H_    0.070513 0.219750 0.832371 0.111933
H70   H     H_    0.244992 0.244719 0.720746 -0.055217
H71   H     H_    0.375921 0.274740 0.860856 0.054118
C56   C     C_3   0.939431 0.818021 0.311830 -0.286219
H72   H     H_    0.846669 0.857714 0.321694 0.043520
H73   H     H_    0.987626 0.801686 0.368763 0.130983
H74   H     H_    0.041445 0.851029 0.288568 0.116039
C57   C     C_3   0.396110 0.154041 0.815281 -0.424899
H75   H     H_    0.449082 0.119772 0.767853 0.148379
H76   H     H_    0.447437 0.140181 0.872946 0.114836
H77   H     H_    0.261966 0.135069 0.806650 0.125025
H78   H     H_    0.078666 0.845116 0.565390 0.084500
H79   H     H_    0.710244 0.658567 0.463599 0.072531
H80   H     H_    0.655057 0.531588 0.344024 0.068510

loop_
_geom_bond_atom_site_label_1
_geom_bond_atom_site_label_2
_ccdc_geom_bond_type
C42   H3    S    
O16   P8    D    
C5    O11   S    
Ba1   O18   S    
C25   H80   S    
C55   H68   S    
Ba1   O5    S    
C44   C49   S    
C34   C40   S    
C56   H74   S    
C44   C50   S    
C56   H72   S    
C5    C6    S    
O2    P2    S    
C11   H14   S    
O9    P5    S    
C43   C44   S    
C48   H39   S    
Ba1   O12   S    
C21   H13   S    
C45   H28   S    
C57   H75   S    
Ba2   O13   S    
O12   P1    S    
C26   C27   A    
C33   C35   A    
C40   C46   S    
C23   H7    S    
Ba1   Ba2   S    
C52   H57   S    
C41   C47   S    
C3    C4    S    
O23   P3    S    
O22   P2    D    
C26   P2    S    
C13   C14   S    
O24   P3    D    
O5    P4    S    
C3    H51   S    
C16   C17   A    
C54   H66   S    
C6    C55   S    
C17   C24   A    
O18   P6    S    
C4    C51   S    
O13   P2    S    
C53   H60   S    
C5    H62   S    
Ba2   O12   S    
C14   H78   S    
C16   H12   S    
C22   H11   S    
C49   H45   S    
C21   C22   D    
C7    H9    S    
C8    H10   S    
C7    C8    S    
C19   H15   S    
C34   H25   S    
C31   H17   S    
C50   H48   S    
C43   H38   S    
C13   C21   S    
C54   H64   S    
Ba2   P4    S    
C57   H76   S    
C27   H21   S    
C19   C20   A    
C55   H69   S    
C32   C39   A    
C51   H54   S    
O1    P1    D    
O14   P7    D    
C56   H73   S    
C48   H40   S    
O20   P1    S    
C53   H59   S    
C39   H22   S    
Ba1   O13   S    
C3    H50   S    
C45   H29   S    
O8    P7    S    
O6    P8    S    
O7    P4    S    
C6    C54   S    
C51   H53   S    
C46   H32   S    
C7    O17   S    
C37   C38   T    
C14   C15   D    
C2    H5    S    
C43   O2    S    
C35   C36   A    
C6    H63   S    
C41   C42   S    
C10   P6    S    
C27   C28   A    
Ba2   O6    S    
C17   P8    S    
C40   H33   S    
C29   C30   A    
C18   P4    S    
C42   H37   S    
C28   C29   A    
Ba1   O23   S    
C12   H18   S    
C35   H20   S    
O3    P3    S    
C31   C32   A    
C28   C38   S    
C10   C11   S    
C4    C52   S    
O15   P7    S    
C43   C48   S    
C1    C53   S    
C57   H77   S    
C11   C13   D    
O17   P8    S    
C49   H43   S    
C20   C22   S    
C52   H58   S    
C23   H23   S    
O19   P6    D    
Ba1   P1    S    
C1    C2    S    
C8    H71   S    
C55   H67   S    
C53   H61   S    
Ba2   O4    S    
C1    H42   S    
C50   H46   S    
C41   H2    S    
C2    C45   S    
C42   H4    S    
C29   H19   S    
C9    C15   D    
O11   P5    S    
C25   C30   A    
C16   C20   A    
C31   C36   A    
C51   H52   S    
C33   P5    S    
C34   O7    S    
O21   P6    S    
Ba1   O22   S    
C47   H35   S    
C1    H6    S    
C48   H41   S    
C47   H34   S    
O4    P4    D    
C45   H27   S    
C41   O20   S    
C30   P3    S    
Ba1   O1    S    
C12   O3    S    
C12   C56   S    
C46   H31   S    
C24   H16   S    
Ba1   P2    S    
Ba2   O5    S    
C52   H56   S    
C44   H49   S    
C36   C37   S    
C18   C24   A    
C8    C57   S    
C32   P7    S    
O10   P5    D    
Ba2   O14   S    
C40   H1    S    
C54   H65   S    
C12   C23   S    
C4    H55   S    
C33   C39   A    
C47   H36   S    
Ba2   O8    S    
C2    O21   S    
C3    O15   S    
C18   C19   A    
C9    H79   S    
C25   C26   A    
C49   H44   S    
Ba1   O8    S    
C7    H70   S    
Ba2   O9    S    
C23   H24   S    
C5    H8    S    
C46   H30   S    
C15   P1    S    
C34   H26   S    
C9    C10   S    
C50   H47   S    
