data_mof_unit_26052.cif
_audit_creation_date              2012-12-10T17:43:36-0500
_audit_creation_method            fapswitch 2.2
_symmetry_space_group_name_H-M    P1
_symmetry_Int_Tables_number       1
_space_group_crystal_system       triclinic
_cell_length_a                    14.861257
_cell_length_b                    10.639699
_cell_length_c                    9.911073
_cell_angle_alpha                 91.890763
_cell_angle_beta                  90.644956
_cell_angle_gamma                 92.131739
_cell_volume                      1565.07248497

loop_
_atom_site_label
_atom_site_type_symbol
_atom_type_description
_atom_site_fract_x
_atom_site_fract_y
_atom_site_fract_z
_atom_type_partial_charge
C1    C     C_R   0.508329 0.260792 0.498362 0.907550
C2    C     C_R   0.909658 0.607265 0.552476 0.186505
C3    C     C_R   0.946246 0.268395 0.460039 0.436215
C4    C     C_R   0.040497 0.267792 0.464114 0.432101
C5    C     C_R   0.090600 0.381692 0.488315 -0.078137
C6    C     C_R   0.046712 0.494227 0.520148 -0.011122
C7    C     C_R   0.096716 0.608135 0.548297 0.176113
C8    C     C_R   0.053173 0.718430 0.584057 -0.212449
C9    C     C_R   0.959798 0.717758 0.587129 -0.206338
C10   C     C_R   0.183968 0.386217 0.480063 -0.233938
C11   C     C_R   0.231710 0.499906 0.501359 -0.032799
C12   C     C_R   0.327133 0.500611 0.499773 0.849587
C13   C     C_R   0.189602 0.609954 0.538384 -0.241107
C14   C     C_R   0.593748 0.124813 0.722074 0.518683
C15   C     C_R   0.587237 0.075060 0.852317 -0.495984
C16   C     C_R   0.533360 0.966370 0.874952 0.454829
C17   C     C_R   0.488487 0.904517 0.765074 0.456596
C18   C     C_R   0.503207 0.945675 0.631470 -0.190528
C19   C     C_R   0.540166 0.066679 0.616158 -0.071249
C20   C     C_R   0.517995 0.127360 0.495901 -0.053253
C21   C     C_R   0.483492 0.059738 0.382727 -0.242364
C22   C     C_R   0.468162 0.932674 0.389169 -0.200250
C23   C     C_R   0.491739 0.739738 0.503049 0.882110
C24   C     C_R   0.481402 0.873850 0.511155 -0.065294
C25   C     C_R   0.389304 0.323380 0.131270 -0.305756
C26   C     C_R   0.339501 0.229257 0.055538 0.565401
C27   C     C_R   0.338798 0.233921 0.916057 -0.268082
C28   C     C_R   0.386988 0.327849 0.851652 -0.237911
C29   C     C_R   0.444160 0.415087 0.923689 0.182688
C30   C     C_R   0.444563 0.414232 0.068089 0.108842
C31   C     C_R   0.554145 0.580351 0.075282 -0.079837
C32   C     C_R   0.553949 0.580640 0.932189 -0.038148
C33   C     C_R   0.672876 0.501272 0.500803 0.902850
C34   C     C_R   0.816628 0.608314 0.547040 -0.279449
C35   C     C_R   0.768180 0.500032 0.503761 -0.063849
C36   C     C_R   0.809655 0.388358 0.470928 -0.173988
C37   C     C_R   0.902615 0.382410 0.484131 -0.107143
C38   C     C_R   0.953045 0.494107 0.520417 -0.017304
H1    H     H_    0.599160 0.644767 0.132099 0.135453
H2    H     H_    0.768604 0.306744 0.437499 0.179780
H3    H     H_    0.091295 0.805229 0.608038 0.131137
H4    H     H_    0.926793 0.804048 0.613651 0.131168
N1    N     N_R   0.499150 0.498800 0.142780 -0.109784
N2    N     N_R   0.499120 0.498720 0.857170 -0.104224
O1    O     O_R   0.500000 0.316780 0.614690 -0.604198
O2    O     O_R   0.499990 0.316750 0.385360 -0.661801
O3    O     O_R   0.367850 0.499980 0.614680 -0.623596
O4    O     O_R   0.367840 0.499960 0.385350 -0.629028
O5    O     O_R   0.500010 0.683250 0.614640 -0.569392
O6    O     O_R   0.500000 0.683220 0.385310 -0.630814
O7    O     O_R   0.632160 0.500040 0.614650 -0.596089
O8    O     O_R   0.632150 0.500020 0.385320 -0.623080
Zn1   Zn    Zn3+2 0.500010 0.500020 0.653130 0.988976
Zn2   Zn    Zn3+2 0.499990 0.499980 0.346870 0.938550
H5    H     H_    0.781795 0.693539 0.572954 0.123295
O9    O     O_3   0.650137 0.227971 0.690794 -0.599929
C39   C     C_3   0.715708 0.262207 0.790670 -0.312040
H6    H     H_    0.754694 0.180077 0.820644 0.145681
H7    H     H_    0.684310 0.309712 0.878897 0.177124
H8    H     H_    0.764373 0.331286 0.748151 0.196162
H9    H     H_    0.620049 0.123654 0.937489 0.177799
O10   O     O_3   0.517097 0.922040 0.003419 -0.559693
C40   C     C_3   0.595762 0.928056 0.085120 -0.319392
H10   H     H_    0.606720 0.023656 0.132152 0.178361
H11   H     H_    0.656296 0.898360 0.028775 0.145116
H12   H     H_    0.586241 0.862724 0.168841 0.193366
O11   O     O_3   0.426125 0.809030 0.792107 -0.546512
C41   C     C_3   0.338990 0.856451 0.783682 -0.260007
H13   H     H_    0.323377 0.888185 0.680430 0.122950
H14   H     H_    0.330394 0.934284 0.859669 0.189019
H15   H     H_    0.289357 0.779812 0.806352 0.190431
H16   H     H_    0.446175 0.880255 0.298368 0.208316
H17   H     H_    0.384955 0.323102 0.238049 0.207219
O12   O     O_3   0.296964 0.124789 0.110943 -0.615793
C42   C     C_3   0.251949 0.155753 0.230863 -0.268733
H18   H     H_    0.214164 0.243689 0.222406 0.176200
H19   H     H_    0.299875 0.161548 0.317772 0.143178
H20   H     H_    0.202160 0.078494 0.250337 0.241646
H21   H     H_    0.299351 0.164339 0.856315 0.150214
H22   H     H_    0.377980 0.327797 0.745142 0.217111
H23   H     H_    0.598048 0.646566 0.881485 0.134795
O13   O     O_3   0.898386 0.158208 0.422977 -0.571111
C43   C     C_3   0.862106 0.102047 0.538845 -0.312854
H24   H     H_    0.789693 0.122171 0.547101 0.199102
H25   H     H_    0.897266 0.131248 0.635593 0.122422
H26   H     H_    0.866652 0.998587 0.526150 0.185649
O14   O     O_3   0.082915 0.157710 0.430504 -0.589987
C44   C     C_3   0.106932 0.098116 0.550107 -0.353870
H27   H     H_    0.145748 0.162302 0.622255 0.149563
H28   H     H_    0.150742 0.019196 0.523166 0.181864
H29   H     H_    0.046458 0.057826 0.599981 0.179319
H30   H     H_    0.220447 0.301891 0.459599 0.146431
H31   H     H_    0.229281 0.696324 0.558775 0.119864
H32   H     H_    0.467074 0.104956 0.289719 0.200871

loop_
_geom_bond_atom_site_label_1
_geom_bond_atom_site_label_2
_ccdc_geom_bond_type
C14   O9    S    
O14   C44   S    
C40   H11   S    
C35   C36   A    
C9    H4    S    
C12   O4    A    
C7    C8    A    
C4    O14   S    
C33   O8    A    
O4    Zn2   S    
C32   H23   S    
C26   C27   A    
C29   C30   A    
C31   N1    A    
C18   C24   A    
C36   C37   A    
C18   C19   A    
C27   H21   S    
C5    C6    A    
C1    O2    A    
C23   O5    A    
C21   H32   S    
C15   C16   A    
O9    C39   S    
C34   C35   A    
C33   C35   S    
N2    Zn1   S    
C31   C32   A    
C41   H13   S    
C23   C24   S    
C6    C38   A    
O3    Zn1   S    
C2    C34   A    
C40   H12   S    
C10   H30   S    
C34   H5    S    
C21   C22   A    
C16   O10   S    
C3    O13   S    
C12   O3    A    
C22   H16   S    
O8    Zn2   S    
C15   H9    S    
C17   O11   S    
O12   C42   S    
O11   C41   S    
C36   H2    S    
C8    H3    S    
C8    C9    A    
C39   H8    S    
C25   C26   A    
C13   H31   S    
O7    Zn1   S    
C42   H18   S    
C37   C38   A    
C2    C38   A    
N1    Zn2   S    
C43   H24   S    
C44   H29   S    
O2    Zn2   S    
O10   C40   S    
C17   C18   A    
C32   N2    A    
O6    Zn2   S    
C44   H27   S    
C42   H19   S    
C43   H25   S    
C44   H28   S    
C29   N2    A    
C22   C24   A    
C30   N1    A    
C3    C4    A    
C25   C30   A    
C28   C29   A    
C1    C20   S    
C14   C19   A    
C4    C5    A    
C23   O6    A    
C11   C12   S    
C6    C7    A    
C33   O7    A    
C19   C20   A    
C5    C10   A    
C11   C13   A    
C1    O1    A    
C39   H6    S    
C16   C17   A    
C41   H15   S    
O5    Zn1   S    
C26   O12   S    
C31   H1    S    
C25   H17   S    
C28   H22   S    
C42   H20   S    
C39   H7    S    
C10   C11   A    
O1    Zn1   S    
C40   H10   S    
C7    C13   A    
C43   H26   S    
C20   C21   A    
C3    C37   A    
C41   H14   S    
O13   C43   S    
C27   C28   A    
C14   C15   A    
C2    C9    A    
