data_mof_unit_46227.cif
_audit_creation_date              2012-12-10T19:44:26-0500
_audit_creation_method            fapswitch 2.2
_symmetry_space_group_name_H-M    P1
_symmetry_Int_Tables_number       1
_space_group_crystal_system       triclinic
_cell_length_a                    10.786612
_cell_length_b                    12.374792
_cell_length_c                    13.244209
_cell_angle_alpha                 116.680571
_cell_angle_beta                  75.881173
_cell_angle_gamma                 101.426528
_cell_volume                      1523.88613583

loop_
_atom_site_label
_atom_site_type_symbol
_atom_type_description
_atom_site_fract_x
_atom_site_fract_y
_atom_site_fract_z
_atom_type_partial_charge
C1    C     C_R   0.516334 0.855245 0.286679 0.805919
C2    C     C_R   0.305525 0.239838 0.288121 -0.219181
C3    C     C_R   0.381460 0.155148 0.196559 -0.214037
C4    C     C_R   0.736961 0.001638 0.502564 0.836862
C5    C     C_R   0.359942 0.032812 0.177087 -0.101595
C6    C     C_R   0.263603 0.995142 0.250110 -0.210926
C7    C     C_R   0.188165 0.080015 0.343552 0.003628
C8    C     C_R   0.341140 0.284038 0.021867 -0.213171
C9    C     C_R   0.474305 0.228392 0.835094 -0.078290
C10   C     C_R   0.657076 0.809075 0.100302 -0.119762
C11   C     C_R   0.724303 0.722280 0.005140 -0.115217
C12   C     C_R   0.627977 0.836191 0.803067 0.665087
C13   C     C_R   0.681574 0.599599 0.971886 -0.138523
C14   C     C_R   0.560558 0.560740 0.023716 0.104620
C15   C     C_R   0.494867 0.650084 0.123859 0.095734
C16   C     C_R   0.486765 0.144948 0.713109 0.780097
C17   C     C_R   0.504052 0.436837 0.983080 0.070832
C18   C     C_R   0.395529 0.404582 0.054310 0.116715
C19   C     C_R   0.335357 0.493820 0.153651 -0.229078
C20   C     C_R   0.379224 0.614969 0.183568 -0.192818
C21   C     C_R   0.541827 0.346450 0.870719 0.084596
C22   C     C_R   0.381382 0.196164 0.913472 -0.241657
C23   C     C_R   0.036374 0.954037 0.566351 -0.244888
C24   C     C_R   0.548574 0.772958 0.165289 -0.090819
C25   C     C_R   0.702478 0.339955 0.321834 -0.263925
C26   C     C_R   0.327077 0.760959 0.648293 0.078075
C27   C     C_R   0.289636 0.665607 0.681236 -0.194826
C28   C     C_R   0.263023 0.998436 0.497605 0.784427
C29   C     C_R   0.354472 0.561659 0.624848 -0.073998
C30   C     C_R   0.458875 0.551323 0.534112 -0.094564
C31   C     C_R   0.495152 0.651720 0.502687 0.151365
C32   C     C_R   0.528856 0.445401 0.474006 -0.044798
C33   C     C_R   0.631922 0.440757 0.383045 0.058935
C34   C     C_R   0.129332 0.996604 0.494771 -0.084259
C35   C     C_R   0.665998 0.537050 0.353397 -0.321635
C36   C     C_R   0.602225 0.640078 0.411172 0.604723
C37   C     C_R   0.502178 0.342625 0.499294 0.062271
C38   C     C_R   0.671665 0.242902 0.351196 0.101677
C39   C     C_R   0.641922 0.958134 0.821589 -0.205593
C40   C     C_R   0.734050 0.998433 0.747853 -0.221546
C41   C     C_R   0.812616 0.916559 0.654594 0.133825
C42   C     C_R   0.799109 0.794500 0.637373 -0.231290
C43   C     C_R   0.706779 0.754547 0.711230 -0.230004
C44   C     C_R   0.093234 0.041224 0.426029 0.060665
C45   C     C_R   0.963680 0.045043 0.433014 -0.164687
C46   C     C_R   0.870639 0.002975 0.505054 -0.094210
C47   C     C_R   0.906801 0.957591 0.573274 0.032964
C48   C     C_R   0.208870 0.202735 0.361490 0.628485
Cu1   Cu    Cu3+1 0.529370 0.098270 0.475420 0.948958
Cu2   Cu    Cu3+1 0.470630 0.901730 0.524580 0.987795
F1    F     F_    0.537823 0.797028 0.873953 -0.694309
F2    F     F_    0.655066 0.724153 0.371985 -0.655352
F3    F     F_    0.138708 0.286818 0.452031 -0.689421
H1    H     H_    0.457174 0.184369 0.140810 0.164900
H2    H     H_    0.580917 0.021381 0.892689 0.147351
H3    H     H_    0.321822 0.681094 0.255292 0.150112
H4    H     H_    0.725086 0.164205 0.304570 0.112185
H5    H     H_    0.745978 0.533674 0.284239 0.182879
H6    H     H_    0.781229 0.336495 0.251939 0.134485
H7    H     H_    0.425270 0.336620 0.566436 0.127120
H8    H     H_    0.276134 0.841300 0.692769 0.116032
H9    H     H_    0.320800 0.490757 0.654074 0.145798
H10   H     H_    0.209802 0.672267 0.750909 0.141365
H11   H     H_    0.743265 0.092892 0.762514 0.127406
H12   H     H_    0.418897 0.967365 0.106186 0.185808
H13   H     H_    0.858366 0.730011 0.565617 0.164224
H14   H     H_    0.695734 0.660060 0.696690 0.164099
H15   H     H_    0.064873 0.921512 0.620140 0.153068
H16   H     H_    0.935297 0.077273 0.378953 0.153926
H17   H     H_    0.322736 0.334594 0.303016 0.159578
H18   H     H_    0.699652 0.308191 0.741601 0.229326
H19   H     H_    0.596448 0.396445 0.737135 0.258699
H20   H     H_    0.249398 0.900404 0.235344 0.128701
H21   H     H_    0.331159 0.105492 0.887514 0.162768
H22   H     H_    0.249135 0.470319 0.205142 0.150138
H23   H     H_    0.261030 0.259197 0.077700 0.152158
H24   H     H_    0.698735 0.902918 0.130502 0.130464
H25   H     H_    0.749790 0.538396 0.910254 0.171932
H26   H     H_    0.815063 0.749658 0.961727 0.129718
N1    N     N_R   0.573890 0.246290 0.438210 -0.187263
N2    N     N_R   0.426890 0.754320 0.561170 -0.194538
N3    N     N_3   0.638901 0.377251 0.789455 -0.621714
O1    O     O_R   0.536940 0.972510 0.318130 -0.593316
O2    O     O_R   0.487330 0.806530 0.359650 -0.514733
O3    O     O_R   0.705160 0.082990 0.479250 -0.601550
O4    O     O_R   0.655550 0.917010 0.520760 -0.497565
O5    O     O_R   0.512670 0.193470 0.640350 -0.593424
O6    O     O_R   0.463060 0.027490 0.681870 -0.591332
O7    O     O_R   0.344450 0.082990 0.479240 -0.568922
O8    O     O_R   0.294840 0.917010 0.520750 -0.603757

loop_
_geom_bond_atom_site_label_1
_geom_bond_atom_site_label_2
_ccdc_geom_bond_type
C27   C29   A    
C41   C42   A    
Cu1   O5    S    
C19   C20   A    
C20   H3    S    
Cu2   O2    S    
C4    C46   S    
C45   C46   A    
C1    O2    A    
C26   C27   A    
C35   H5    S    
C26   H8    S    
C12   C43   A    
C5    C6    A    
C3    H1    S    
C9    C22   A    
C4    O4    A    
C8    H23   S    
C18   C19   A    
C46   C47   A    
Cu2   O8    S    
C39   H2    S    
C35   C36   A    
C16   O5    A    
C8    C22   A    
C28   O7    A    
C36   F2    S    
Cu2   O6    S    
H18   N3    S    
C28   C34   S    
C13   C14   A    
C14   C17   A    
C15   C20   A    
C10   H24   S    
C48   F3    S    
C37   N1    A    
C23   C47   A    
C45   H16   S    
Cu1   O3    S    
C34   C44   A    
C5    H12   S    
C39   C40   A    
C4    O3    A    
C2    C48   A    
C32   C37   A    
C13   H25   S    
C8    C18   A    
C23   H15   S    
C29   C30   A    
C25   C38   A    
C38   H4    S    
C23   C34   A    
C17   C18   A    
C41   C47   S    
C7    C44   S    
C11   H26   S    
C40   C41   A    
C26   N2    A    
C42   C43   A    
C22   H21   S    
C12   F1    S    
C44   C45   A    
C6    H20   S    
C16   O6    A    
C29   H9    S    
C15   C24   A    
C31   C36   A    
C9    C16   S    
Cu1   O7    S    
C3    C5    A    
C31   N2    A    
C6    C7    A    
C1    O1    A    
C40   H11   S    
Cu1   N1    S    
C10   C24   A    
C7    C48   A    
Cu1   O1    S    
C12   C39   A    
C19   H22   S    
C2    C3    A    
C32   C33   A    
C30   C32   A    
C11   C13   A    
C9    C21   A    
C30   C31   A    
C38   N1    A    
C33   C35   A    
C17   C21   A    
C37   H7    S    
C10   C11   A    
Cu2   O4    S    
C21   N3    S    
C1    C24   S    
C43   H14   S    
Cu1   Cu2   S    
C42   H13   S    
C14   C15   A    
C27   H10   S    
C28   O8    A    
C25   H6    S    
C2    H17   S    
H19   N3    S    
Cu2   N2    S    
C25   C33   A    
