data_mof_unit_60041.cif
_audit_creation_date              2012-12-10T20:10:25-0500
_audit_creation_method            fapswitch 2.2
_symmetry_space_group_name_H-M    P1
_symmetry_Int_Tables_number       1
_space_group_crystal_system       triclinic
_cell_length_a                    19.293982
_cell_length_b                    18.453056
_cell_length_c                    11.558162
_cell_angle_alpha                 90.000098
_cell_angle_beta                  90.120945
_cell_angle_gamma                 89.999985
_cell_volume                      4115.07711774

loop_
_atom_site_label
_atom_site_type_symbol
_atom_type_description
_atom_site_fract_x
_atom_site_fract_y
_atom_site_fract_z
_atom_type_partial_charge
C1    C     C_R   0.365549 0.500000 0.499793 0.926296
C2    C     C_R   0.634451 0.500000 0.500207 0.926296
C3    C     C_R   0.071539 0.500000 0.499522 -0.386379
C4    C     C_R   0.928461 0.500000 0.500477 -0.386379
C5    C     C_R   0.547214 0.725992 0.565430 -0.096468
C6    C     C_R   0.452786 0.274008 0.434570 -0.096468
C7    C     C_R   0.452786 0.725992 0.434570 -0.096469
C8    C     C_R   0.547214 0.274008 0.565430 -0.096469
C9    C     C_R   0.548199 0.802069 0.566835 0.525266
C10   C     C_R   0.451801 0.197931 0.433165 0.525266
C11   C     C_R   0.451801 0.802069 0.433165 0.525266
C12   C     C_R   0.548199 0.197931 0.566835 0.525266
C13   C     C_R   0.500000 0.841483 0.500000 -0.191349
C14   C     C_R   0.500000 0.158517 0.500000 -0.191349
C15   C     C_R   0.497563 0.961940 0.395558 -0.087941
C16   C     C_R   0.502437 0.038060 0.604441 -0.087941
C17   C     C_R   0.502437 0.961940 0.604442 -0.087942
C18   C     C_R   0.497563 0.038060 0.395558 -0.087942
C19   C     C_R   0.500000 0.077225 0.500000 0.188921
C20   C     C_R   0.500000 0.922775 0.500000 0.188921
C21   C     C_R   0.499980 0.500000 0.281625 0.916173
C22   C     C_R   0.500020 0.500000 0.718375 0.916173
C23   C     C_1   0.499980 0.500000 0.161307 -0.146963
C24   C     C_1   0.500020 0.500000 0.838693 -0.146963
C25   C     C_1   0.499991 0.500000 0.059257 0.045188
C26   C     C_1   0.500009 0.500000 0.940743 0.045188
C27   C     C_R   0.745948 0.434139 0.500834 -0.220405
C28   C     C_R   0.254052 0.565861 0.499165 -0.220405
C29   C     C_R   0.254052 0.434139 0.499166 -0.220405
C30   C     C_R   0.745948 0.565861 0.500835 -0.220405
C31   C     C_R   0.817794 0.433856 0.500971 0.327663
C32   C     C_R   0.182206 0.566144 0.499027 0.327663
C33   C     C_R   0.182206 0.433856 0.499028 0.327663
C34   C     C_R   0.817794 0.566144 0.500973 0.327662
C35   C     C_R   0.853625 0.500000 0.500932 0.135320
C36   C     C_R   0.146375 0.500000 0.499067 0.135320
C37   C     C_R   0.709779 0.500000 0.500620 -0.152382
C38   C     C_R   0.290221 0.500000 0.499380 -0.152382
C39   C     C_R   0.964456 0.500015 0.605686 0.588207
C40   C     C_R   0.035544 0.499985 0.394313 0.588207
C41   C     C_R   0.036302 0.500015 0.605207 0.586784
C42   C     C_R   0.963698 0.499985 0.394792 0.586785
H1    H     H_    0.718616 0.382861 0.500816 0.201835
H2    H     H_    0.281384 0.617139 0.499182 0.201834
H3    H     H_    0.281384 0.382861 0.499184 0.201835
H4    H     H_    0.718616 0.617139 0.500818 0.201834
H5    H     H_    0.584481 0.695971 0.616494 0.184735
H6    H     H_    0.415519 0.304028 0.383505 0.184735
H7    H     H_    0.415519 0.695971 0.383505 0.184735
H8    H     H_    0.584481 0.304028 0.616495 0.184735
H9    H     H_    0.496641 0.933595 0.313542 0.188825
H10   H     H_    0.503359 0.066405 0.686458 0.188825
H11   H     H_    0.503359 0.933596 0.686458 0.188825
H12   H     H_    0.496641 0.066404 0.313542 0.188825
N1    N     N_R   0.500000 0.689440 0.500000 -0.160635
N2    N     N_R   0.500000 0.310560 0.500000 -0.160635
O1    O     O_R   0.398180 0.560840 0.499970 -0.620862
O2    O     O_R   0.601820 0.439160 0.500030 -0.620862
O3    O     O_R   0.601820 0.560840 0.500030 -0.620863
O4    O     O_R   0.398180 0.439160 0.499970 -0.620862
O5    O     O_R   0.500010 0.560810 0.334440 -0.605400
O6    O     O_R   0.499990 0.439190 0.665560 -0.605400
O7    O     O_R   0.499990 0.560810 0.665560 -0.605400
O8    O     O_R   0.500010 0.439190 0.334440 -0.605400
Zn1   Zn    Zn3+2 0.500000 0.581210 0.500000 0.983025
Zn2   Zn    Zn3+2 0.500000 0.418790 0.500000 0.983025
Br1   Br    Br    0.865045 0.342244 0.501053 -0.305713
Br2   Br    Br    0.134955 0.657756 0.498944 -0.305713
Br3   Br    Br    0.134955 0.342245 0.498951 -0.305714
Br4   Br    Br    0.865045 0.657755 0.501052 -0.305714
F1    F     F_    0.929842 0.500029 0.707870 -0.540412
F2    F     F_    0.070158 0.499971 0.292129 -0.540413
F3    F     F_    0.071654 0.500029 0.706933 -0.541131
F4    F     F_    0.928346 0.499971 0.293067 -0.541132
F5    F     F_    0.597076 0.836703 0.630823 -0.616863
F6    F     F_    0.402924 0.163297 0.369176 -0.616863
F7    F     F_    0.402924 0.836703 0.369177 -0.616863
F8    F     F_    0.597076 0.163297 0.630823 -0.616863

loop_
_geom_bond_atom_site_label_1
_geom_bond_atom_site_label_2
_ccdc_geom_bond_type
C15   C18   A    
O7    Zn1   S    
C8    H8    S    
C7    N1    A    
C8    N2    A    
C39   C41   A    
C7    C11   A    
C5    H5    S    
C6    H6    S    
C32   C36   A    
C24   C26   T    
C34   C35   A    
C29   C33   A    
C17   C20   A    
C18   C19   A    
C9    C13   A    
C21   O8    A    
C11   F7    S    
C22   O7    A    
C10   F6    S    
O2    Zn2   S    
C16   C17   A    
C12   F8    S    
C29   C38   A    
C15   H9    S    
C34   Br4   S    
C21   O5    A    
C33   Br3   S    
C32   Br2   S    
C40   C42   A    
C4    C35   S    
O4    Zn2   S    
N1    Zn1   S    
C5    N1    A    
C15   C20   A    
C42   F4    S    
C30   C34   A    
C27   C31   A    
C33   C36   A    
C28   C32   A    
C7    H7    S    
C10   C14   A    
C1    O4    A    
O1    Zn1   S    
O6    Zn2   S    
C2    O3    A    
C25   C26   S    
C28   H2    S    
C30   C37   A    
C29   H3    S    
O8    Zn2   S    
C31   Br1   S    
C5    C9    A    
C1    O1    A    
C22   O6    A    
C4    C39   A    
C28   C38   A    
C8    C12   A    
C1    C38   S    
C12   C14   A    
C3    C40   A    
C21   C23   S    
C31   C35   A    
C17   H11   S    
C3    C41   A    
C40   F2    S    
C13   C20   S    
C14   C19   S    
C30   H4    S    
C16   H10   S    
C6    N2    A    
C6    C10   A    
C2    O2    A    
O3    Zn1   S    
C11   C13   A    
C2    C37   S    
C4    C42   A    
C3    C36   S    
C27   C37   A    
C16   C19   A    
N2    Zn2   S    
C22   C24   S    
C23   C25   T    
O5    Zn1   S    
C18   H12   S    
C41   F3    S    
C27   H1    S    
C39   F1    S    
C9    F5    S    
