data_mof_unit_24127.cif
_audit_creation_date              2012-12-11T15:49:48-0500
_audit_creation_method            fapswitch 2.2
_symmetry_space_group_name_H-M    P1
_symmetry_Int_Tables_number       1
_space_group_crystal_system       triclinic
_cell_length_a                    8.243088
_cell_length_b                    19.045898
_cell_length_c                    26.983616
_cell_angle_alpha                 95.076904
_cell_angle_beta                  92.745649
_cell_angle_gamma                 85.602083
_cell_volume                      4203.69517926

loop_
_atom_site_label
_atom_site_type_symbol
_atom_type_description
_atom_site_fract_x
_atom_site_fract_y
_atom_site_fract_z
_atom_type_partial_charge
Ba1   Ba    Ba6+2 0.854000 0.466860 0.523710 1.645706
Ba2   Ba    Ba6+2 0.335820 0.533080 0.476290 1.641397
C1    C     C_3   0.768120 0.229956 0.680772 -0.308839
C2    C     C_R   0.914007 0.571582 0.176688 0.572417
C3    C     C_2   0.762187 0.547507 0.271661 -0.083833
C4    C     C_3   0.241440 0.292010 0.652529 0.286810
C5    C     C_3   0.744591 0.570846 0.326136 -0.049099
C6    C     C_1   0.983664 0.490764 0.343224 0.037941
C7    C     C_2   0.024271 0.487541 0.295559 -0.108132
C8    C     C_2   0.905664 0.515411 0.256091 0.191497
C9    C     C_R   0.026146 0.508380 0.101712 -0.079457
C10   C     C_R   0.060086 0.448554 0.128717 -0.036423
C11   C     C_R   0.134366 0.387250 0.104331 -0.059930
C12   C     C_3   0.715846 0.289420 0.648106 0.323970
C13   C     C_R   0.952078 0.570047 0.126057 -0.024253
C14   C     C_2   0.852185 0.527593 0.360227 -0.292933
C15   C     C_2   0.353986 0.486857 0.641417 -0.275069
C16   C     C_3   0.243984 0.275970 0.706707 -0.342151
C17   C     C_R   0.187867 0.443671 0.975508 0.019572
C18   C     C_R   0.062770 0.565083 0.972022 0.020130
C19   C     C_R   0.145162 0.503706 0.948416 0.050495
C20   C     C_R   0.273779 0.384783 0.950433 -0.098768
C21   C     C_R   0.313664 0.384457 0.900733 -0.060442
C22   C     C_R   0.270003 0.442713 0.873381 -0.032923
C23   C     C_3   0.515387 0.646448 0.626594 0.301933
C24   C     C_R   0.185339 0.502436 0.897131 -0.078068
C25   C     C_R   0.141105 0.561000 0.869605 -0.033946
C26   C     C_R   0.182133 0.559293 0.819101 0.587723
C27   C     C_R   0.309459 0.442371 0.822745 0.589738
C28   C     C_3   0.189958 0.316981 0.416287 0.315708
C29   C     C_2   0.461967 0.488513 0.729529 -0.069573
C30   C     C_3   0.503515 0.493540 0.675530 -0.054178
C31   C     C_1   0.212872 0.514712 0.657086 0.041899
C32   C     C_2   0.174403 0.513915 0.704283 -0.089730
C33   C     C_2   0.305254 0.499571 0.743690 0.208480
C34   C     C_3   0.503101 0.674534 0.680960 -0.367175
C35   C     C_R   0.144331 0.444531 0.026431 0.019640
C36   C     C_R   0.066047 0.506674 0.050361 0.050002
C37   C     C_R   0.027229 0.567267 0.023550 0.020328
C38   C     C_R   0.175716 0.385193 0.054597 -0.098740
C39   C     C_R   0.918247 0.629752 0.099488 -0.060339
C40   C     C_3   0.199135 0.237672 0.402266 -0.384087
C41   C     C_R   0.017937 0.622365 0.942872 -0.100016
C42   C     C_R   0.056508 0.620299 0.893074 -0.060339
C43   C     C_R   0.954744 0.628544 0.049634 -0.102093
C44   C     C_R   0.394304 0.297833 0.519759 -0.292406
C45   C     C_3   0.066773 0.684294 0.337670 0.341049
C46   C     C_R   0.535745 0.275602 0.495210 0.071567
C47   C     C_R   0.587798 0.203527 0.490171 -0.108146
C48   C     C_R   0.494945 0.153068 0.508705 0.026318
C49   C     C_R   0.344770 0.176410 0.529987 -0.079460
C50   C     C_R   0.295826 0.248749 0.535481 -0.001770
C51   C     C_R   0.548871 0.032004 0.543443 -0.019248
C52   C     C_3   0.005460 0.680416 0.578177 0.302448
C53   C     C_R   0.597603 0.959568 0.535150 -0.110812
C54   C     C_R   0.651961 0.929864 0.488807 0.048604
C55   C     C_R   0.658628 0.974084 0.450248 -0.068285
C56   C     C_3   0.082568 0.704473 0.284929 -0.317914
C57   C     C_R   0.608578 0.046074 0.457543 -0.088618
C58   C     C_R   0.552042 0.076282 0.503744 0.008870
C59   C     C_R   0.842381 0.826503 0.456858 -0.131289
C60   C     C_R   0.889492 0.753678 0.453665 0.015339
C61   C     C_R   0.654373 0.732294 0.498602 0.044261
C62   C     C_R   0.606089 0.804401 0.502152 -0.118464
C63   C     C_R   0.698953 0.852566 0.481209 -0.009488
C64   C     C_3   0.984943 0.760121 0.590007 -0.372361
C65   C     C_R   0.791097 0.707002 0.472568 -0.286470
C66   C     C_3   0.671486 0.382631 0.376083 0.298874
C67   C     C_3   0.525932 0.722107 0.359592 0.367297
C68   C     C_3   0.671628 0.365619 0.319950 -0.359486
C69   C     C_2   0.500909 0.059115 0.594399 0.852726
C70   C     C_3   0.487774 0.793291 0.338571 -0.365416
C71   C     C_R   0.018057 0.450991 0.179415 0.598072
H1    H     H_    0.826421 0.305768 0.631965 0.121016
H2    H     H_    0.793922 0.396901 0.389729 0.012178
H3    H     H_    0.581356 0.427938 0.384376 0.081286
H4    H     H_    0.823888 0.183970 0.657765 0.130899
H5    H     H_    0.766465 0.322568 0.310393 0.134297
H6    H     H_    0.697374 0.412946 0.301445 0.070080
H7    H     H_    0.550604 0.348722 0.305905 0.133132
H8    H     H_    0.633253 0.269643 0.617134 0.035152
H9    H     H_    0.661453 0.213604 0.699302 0.116064
H10   H     H_    0.391894 0.633579 0.612099 0.029326
H11   H     H_    0.599911 0.598114 0.624056 0.030972
H12   H     H_    0.271637 0.224673 0.368590 0.131027
H13   H     H_    0.426801 0.725278 0.683796 0.144852
H14   H     H_    0.445895 0.636393 0.702146 0.074304
H15   H     H_    0.626398 0.683312 0.697696 0.127021
H16   H     H_    0.859073 0.248144 0.709839 0.119196
H17   H     H_    0.356533 0.294411 0.726168 0.157134
H18   H     H_    0.139233 0.633304 0.341800 0.087066
H19   H     H_    0.936427 0.678043 0.343251 -0.054180
H20   H     H_    0.201615 0.726225 0.280731 0.147503
H21   H     H_    0.075187 0.656813 0.258561 0.121217
H22   H     H_    0.983725 0.744715 0.275601 0.115973
H23   H     H_    0.257916 0.208871 0.432936 0.052134
H24   H     H_    0.660605 0.711688 0.360774 -0.068471
H25   H     H_    0.481937 0.725724 0.398085 0.076411
H26   H     H_    0.553183 0.834377 0.361540 0.067005
H27   H     H_    0.355241 0.808485 0.339077 0.149594
H28   H     H_    0.233884 0.350354 0.651238 0.028445
H29   H     H_    0.527869 0.790715 0.299700 0.120241
H30   H     H_    0.144799 0.466116 0.285154 0.134369
H31   H     H_    0.161455 0.340069 0.123773 0.122040
H32   H     H_    0.560122 0.480885 0.757256 0.098926
H33   H     H_    0.379627 0.337802 0.883693 0.121298
H34   H     H_    0.074587 0.219811 0.394511 0.124774
H35   H     H_    0.314317 0.337847 0.968289 0.069785
H36   H     H_    0.230840 0.335481 0.039202 0.069791
H37   H     H_    0.668951 0.566048 0.245154 0.120888
H38   H     H_    0.862734 0.678368 0.117272 0.122299
H39   H     H_    0.950515 0.669887 0.957089 0.070310
H40   H     H_    0.356661 0.268375 0.636505 0.020523
H41   H     H_    0.019100 0.665919 0.872857 0.124182
H42   H     H_    0.049142 0.525079 0.714804 0.122358
H43   H     H_    0.926116 0.677459 0.032934 0.069506
H44   H     H_    0.838063 0.539518 0.399924 0.083269
H45   H     H_    0.886765 0.660417 0.565955 0.006683
H46   H     H_    0.362601 0.459609 0.604411 0.073966
H47   H     H_    0.499230 0.822994 0.522694 0.089552
H48   H     H_    0.597538 0.926228 0.565682 0.103313
H49   H     H_    0.699359 0.186915 0.471448 0.080297
H50   H     H_    0.698879 0.952609 0.414013 0.064236
H51   H     H_    0.136437 0.303483 0.725150 0.128672
H52   H     H_    0.611031 0.078157 0.426428 0.066456
H53   H     H_    0.920764 0.862651 0.442843 0.078231
H54   H     H_    0.266805 0.138800 0.542402 0.072693
H55   H     H_    0.829089 0.651223 0.471095 0.060156
H56   H     H_    0.091755 0.668606 0.547806 0.075717
H57   H     H_    0.355401 0.353531 0.523883 0.067644
H58   H     H_    0.242463 0.218143 0.709218 0.120118
H59   H     H_    0.314500 0.333784 0.424031 0.007277
H60   H     H_    0.116291 0.328919 0.449810 0.050420
H61   H     H_    0.489515 0.139773 0.647827 0.302167
H62   H     H_    0.892418 0.773491 0.618598 0.140509
H63   H     H_    0.945024 0.786571 0.556153 0.062630
H64   H     H_    0.102775 0.780259 0.604278 0.132015
N1    N     N_R   0.946293 0.512341 0.203329 -0.421368
N2    N     N_R   0.265164 0.500280 0.795990 -0.424883
O1    O     O_2   0.913240 0.537010 0.617740 -0.467870
O2    O     O_2   0.226495 0.750350 0.464654 -0.484507
O3    O     O_3   0.125694 0.737379 0.371612 -0.601238
O4    O     O_3   0.145240 0.536960 0.557560 -0.489855
O5    O     O_3   0.557280 0.416300 0.475860 -0.489443
O6    O     O_2   0.376710 0.670070 0.522470 -0.460278
O7    O     O_3   0.575679 0.698425 0.600383 -0.638431
O8    O     O_2   0.416287 0.532547 0.321996 -0.498629
O9    O     O_3   0.447680 0.669292 0.329630 -0.592642
O10   O     O_2   0.043436 0.398033 0.201883 -0.596699
O11   O     O_2   0.382207 0.390185 0.802423 -0.603955
O12   O     O_3   0.631277 0.322814 0.398063 -0.637419
O13   O     O_2   0.852954 0.626437 0.197108 -0.620723
O14   O     O_2   0.145661 0.610906 0.795898 -0.596562
O15   O     O_3   0.669960 0.410470 0.588880 -0.486178
O16   O     O_2   0.837629 0.441599 0.673922 -0.493458
O17   O     O_3   0.064350 0.649814 0.621306 -0.626560
O18   O     O_3   0.633760 0.344744 0.677087 -0.618508
O19   O     O_2   0.812980 0.329910 0.477500 -0.462648
O20   O     O_3   0.078660 0.374870 0.564770 -0.479067
O21   O     O_2   0.954719 0.250031 0.539616 -0.488300
O22   O     O_2   0.435139 0.020932 0.620277 -0.605635
O23   O     O_3   0.107041 0.262559 0.626924 -0.605704
O24   O     O_R   0.533634 0.127363 0.613490 -0.783109
O25   O     O_2   0.276450 0.462960 0.382230 -0.463968
O26   O     O_3   0.044470 0.462980 0.442430 -0.493443
O27   O     O_3   0.519740 0.589470 0.411120 -0.477892
O28   O     O_3   0.118357 0.350628 0.376002 -0.624074
O29   O     O_3   0.632420 0.583650 0.524140 -0.475738
O30   O     O_3   0.111040 0.625070 0.435230 -0.492560
P1    P     P_3+3 0.082480 0.557670 0.610090 1.000339
P2    P     P_3+3 0.635220 0.340300 0.462910 0.985537
P3    P     P_3+3 0.106943 0.282826 0.564999 0.946414
P4    P     P_3+3 0.107220 0.442270 0.389900 0.994489
P5    P     P_3+3 0.088836 0.717107 0.431764 0.945096
P6    P     P_3+3 0.664146 0.425430 0.653777 0.962110
P7    P     P_3+3 0.562520 0.672392 0.536612 0.954470
P8    P     P_3+3 0.531173 0.587303 0.346602 0.944306

loop_
_geom_bond_atom_site_label_1
_geom_bond_atom_site_label_2
_ccdc_geom_bond_type
C53   C54   A    
C53   H48   S    
O9    P8    S    
C68   H5    S    
Ba2   O5    S    
C45   H19   S    
Ba1   O5    S    
C19   C24   A    
C50   P3    S    
C70   H27   S    
C61   P7    S    
O3    P5    S    
C54   C55   A    
Ba2   O6    S    
C45   O3    S    
C24   C25   A    
C69   O24   S    
O15   P6    S    
C40   H23   S    
C12   H1    S    
Ba1   O19   S    
C17   C19   A    
C56   H20   S    
C22   C24   A    
C28   O28   S    
Ba1   Ba2   S    
C35   C38   A    
Ba2   P4    S    
C52   O17   S    
C36   C37   A    
C28   H59   S    
O19   P2    D    
C55   C57   A    
C71   N1    Am   
O26   P4    S    
C54   C63   S    
C60   P5    S    
C44   C50   A    
Ba1   P1    S    
O12   P2    S    
H61   O24   S    
C5    P8    S    
C32   C33   S    
C4    H28   S    
C22   C27   A    
C11   C38   A    
C17   C35   A    
C33   N2    S    
C27   O11   D    
C9    C13   A    
C25   C42   A    
C4    O23   S    
C6    C7    D    
O7    P7    S    
C23   H11   S    
C21   C22   A    
O30   P5    S    
C23   O7    S    
C7    C8    S    
Ba2   O27   S    
C37   C43   A    
C11   H31   S    
C67   H25   S    
C42   H41   S    
C57   C58   A    
C6    C14   D    
C10   C71   A    
Ba2   O4    S    
C29   H32   S    
C16   H58   S    
Ba1   O15   S    
C26   N2    Am   
C15   C31   D    
C4    C16   S    
C31   P1    S    
C51   C58   A    
C48   C49   A    
C44   C46   A    
C51   C53   A    
C34   H14   S    
C27   N2    Am   
C30   P6    S    
C61   C65   A    
O20   P3    S    
C12   O18   S    
C68   H7    S    
C49   C50   A    
C16   H17   S    
Ba1   O20   S    
C17   C20   A    
C13   C39   A    
Ba2   O25   S    
C3    C5    S    
C18   C37   A    
C6    P4    S    
Ba2   O30   S    
Ba1   O29   S    
C34   H13   S    
C32   H42   S    
C21   H33   S    
Ba1   P2    S    
C34   H15   S    
C64   H62   S    
C66   H2    S    
C67   C70   S    
C56   H22   S    
C4    H40   S    
C35   C36   A    
Ba1   O4    S    
C55   H50   S    
C46   P2    S    
O8    P8    D    
C29   C30   S    
O5    P2    S    
O6    P7    D    
Ba1   O26   S    
C7    H30   S    
C28   H60   S    
C1    H9    S    
C31   C32   D    
O21   P3    D    
O25   P4    D    
C40   H12   S    
C18   C19   A    
C2    O13   D    
C1    C12   S    
Ba2   O26   S    
C59   H53   S    
Ba1   O1    S    
O18   P6    S    
C64   H63   S    
C60   C65   A    
C46   C47   A    
O27   P8    S    
C52   H45   S    
C41   C42   A    
C39   H38   S    
C26   O14   D    
C15   C30   S    
C29   C33   D    
C66   H3    S    
C41   H39   S    
C51   C69   S    
Ba2   O29   S    
C67   H24   S    
C18   C41   A    
C40   H34   S    
O16   P6    D    
O29   P7    S    
C52   H56   S    
C5    C14   S    
O1    P1    D    
C69   O22   D    
C71   O10   D    
C68   H6    S    
C45   H18   S    
O4    P1    S    
C44   H57   S    
C9    C10   A    
C38   H36   S    
C52   C64   S    
C57   H52   S    
C62   H47   S    
O28   P4    S    
C1    H16   S    
C48   C58   S    
C62   C63   A    
C2    C13   A    
C56   H21   S    
C49   H54   S    
C3    C8    D    
C66   O12   S    
C14   H44   S    
C45   C56   S    
C43   H43   S    
O2    P5    D    
C64   H64   S    
C70   H29   S    
C20   H35   S    
C47   H49   S    
O17   P1    S    
C59   C60   A    
C15   H46   S    
C23   C34   S    
C2    N1    Am   
C61   C62   A    
C59   C63   A    
O23   P3    S    
C10   C11   A    
C66   C68   S    
C47   C48   A    
C3    H37   S    
C25   C26   A    
C23   H10   S    
C67   O9    S    
C39   C43   A    
C20   C21   A    
C28   C40   S    
C9    C36   A    
C8    N1    S    
C12   H8    S    
C65   H55   S    
C16   H51   S    
C70   H26   S    
C1    H4    S    
