data_mof_unit_64772.cif
_audit_creation_date              2012-12-10T17:54:00-0500
_audit_creation_method            fapswitch 2.2
_symmetry_space_group_name_H-M    P1
_symmetry_Int_Tables_number       1
_space_group_crystal_system       triclinic
_cell_length_a                    18.760476
_cell_length_b                    18.750056
_cell_length_c                    18.991388
_cell_angle_alpha                 109.675718
_cell_angle_beta                  109.262096
_cell_angle_gamma                 109.11622
_cell_volume                      5165.18069952

loop_
_atom_site_label
_atom_site_type_symbol
_atom_type_description
_atom_site_fract_x
_atom_site_fract_y
_atom_site_fract_z
_atom_type_partial_charge
C1    C     C_R   0.881529 0.381296 0.000007 0.800000
C2    C     C_R   0.816501 0.314545 0.000596 -0.081737
C3    C     C_R   0.827163 0.245708 0.007601 -0.209406
C4    C     C_R   0.762606 0.181226 0.008325 -0.210838
C5    C     C_R   0.685662 0.183557 0.999101 -0.093189
C6    C     C_R   0.677457 0.251426 0.990444 0.128721
C7    C     C_3   0.619687 0.290273 0.979875 -0.472460
C8    C     C_3   0.691558 0.362196 0.981953 -0.480282
C9    C     C_R   0.248025 0.572980 0.259246 0.129777
C10   C     C_R   0.182919 0.497613 0.182541 -0.093488
C11   C     C_R   0.183237 0.419113 0.170247 -0.208691
C12   C     C_R   0.883659 0.502342 0.882325 0.843964
C13   C     C_R   0.247260 0.419045 0.235248 -0.211699
C14   C     C_R   0.312863 0.497837 0.311608 -0.081627
C15   C     C_R   0.310951 0.573311 0.319989 0.120584
C16   C     C_3   0.354157 0.668595 0.379387 -0.493413
C17   C     C_3   0.282861 0.668489 0.309540 -0.454842
C18   C     C_R   0.247732 0.763502 0.072210 0.130420
C19   C     C_R   0.183776 0.684759 0.998207 -0.094559
C20   C     C_R   0.185626 0.671002 0.921080 -0.205398
C21   C     C_R   0.250097 0.736094 0.920927 -0.215417
C22   C     C_R   0.314800 0.814191 0.998346 -0.079396
C23   C     C_R   0.118510 0.618736 0.999800 0.797932
C24   C     C_R   0.311183 0.824400 0.072532 0.122857
C25   C     C_3   0.353675 0.885639 0.166327 -0.491311
C26   C     C_3   0.281784 0.815757 0.166284 -0.459160
C27   C     C_R   0.497766 0.380972 0.379148 0.792051
C28   C     C_R   0.614755 0.498003 0.613282 0.845881
C29   C     C_R   0.496416 0.618728 0.615295 0.797625
C30   C     C_R   0.378909 0.499672 0.378808 0.800070
C31   C     C_R   0.501352 0.881857 0.882466 0.797156
C32   C     C_R   0.618770 0.118384 0.999761 0.796737
C33   C     C_R   0.498830 0.118677 0.117749 0.793571
C34   C     C_R   0.117704 0.499447 0.117613 0.798698
C35   C     C_R   0.381358 0.881386 0.999877 0.796231
C36   C     C_R   0.485582 0.314050 0.236303 0.101902
C37   C     C_R   0.495713 0.312862 0.311941 -0.079780
C38   C     C_R   0.494458 0.239806 0.318059 -0.204755
C39   C     C_R   0.495250 0.175494 0.254225 -0.215649
C40   C     C_R   0.494227 0.182519 0.182580 -0.081558
C41   C     C_R   0.483677 0.249254 0.172088 0.142456
C42   C     C_3   0.534650 0.312251 0.152740 -0.502634
C43   C     C_3   0.536819 0.383451 0.223468 -0.449561
C44   C     C_R   0.536226 0.771665 0.705166 0.071892
C45   C     C_2   0.756330 0.507573 0.682280 -0.154892
C46   C     C_R   0.497812 0.684812 0.683877 -0.109677
C47   C     C_R   0.460435 0.663379 0.732651 -0.190989
C48   C     C_R   0.462784 0.728458 0.799494 -0.215966
C49   C     C_R   0.501515 0.815214 0.817442 -0.051170
C50   C     C_R   0.537466 0.833705 0.768604 0.052903
C51   C     C_3   0.584327 0.905709 0.756452 -0.475225
C52   C     C_3   0.583280 0.835301 0.683780 -0.013405
C53   C     C_2   0.678954 0.491970 0.676326 -0.315324
C54   C     C_2   0.817290 0.495171 0.743205 -0.153410
C55   C     C_2   0.821121 0.509419 0.818788 -0.315016
C56   C     C_R   0.740639 0.314846 0.993031 0.123729
Cu1   Cu    Cu3+1 0.999590 0.561790 0.061400 0.943873
Cu2   Cu    Cu3+1 0.000410 0.438210 0.938600 0.947932
Cu3   Cu    Cu3+1 0.558560 0.561730 0.496790 0.935325
Cu4   Cu    Cu3+1 0.434970 0.438120 0.496790 0.946846
Cu5   Cu    Cu3+1 0.438600 0.999980 0.938570 0.947819
Cu6   Cu    Cu3+1 0.561400 0.999920 0.061330 0.949084
H1    H     H_    0.773198 0.524557 0.638470 0.161869
H2    H     H_    0.723605 0.427279 0.039636 0.207652
H3    H     H_    0.133648 0.358218 0.111647 0.156427
H4    H     H_    0.246146 0.358270 0.225555 0.151279
H5    H     H_    0.349541 0.683248 0.438977 0.190475
H6    H     H_    0.420083 0.704144 0.389075 0.209609
H7    H     H_    0.237890 0.684121 0.329299 0.206556
H8    H     H_    0.307613 0.703302 0.278429 0.186645
H9    H     H_    0.137022 0.610960 0.861219 0.158152
H10   H     H_    0.250147 0.725019 0.861161 0.149130
H11   H     H_    0.419478 0.895532 0.202543 0.206908
H12   H     H_    0.658173 0.465798 0.713473 0.153117
H13   H     H_    0.349381 0.946102 0.179642 0.194279
H14   H     H_    0.306173 0.785047 0.202041 0.187236
H15   H     H_    0.236437 0.836158 0.180326 0.206977
H16   H     H_    0.497197 0.234723 0.373947 0.154101
H17   H     H_    0.498377 0.121563 0.261562 0.152427
H18   H     H_    0.599595 0.318194 0.168012 0.191851
H19   H     H_    0.495746 0.300798 0.087498 0.201119
H20   H     H_    0.603047 0.430693 0.279790 0.211101
H21   H     H_    0.499203 0.413030 0.198970 0.197324
H22   H     H_    0.429993 0.596979 0.719732 0.164950
H23   H     H_    0.862635 0.478847 0.727653 0.160233
H24   H     H_    0.433596 0.710994 0.836003 0.139044
H25   H     H_    0.543868 0.934004 0.734412 0.211705
H26   H     H_    0.650333 0.953774 0.812753 0.173679
H27   H     H_    0.648510 0.843656 0.696177 0.165478
H28   H     H_    0.782563 0.535015 0.838550 0.153064
H29   H     H_    0.885380 0.242534 0.013718 0.149002
H30   H     H_    0.772197 0.129362 0.014770 0.156065
H31   H     H_    0.559056 0.248215 0.916459 0.207366
H32   H     H_    0.610746 0.313935 0.036618 0.192062
H33   H     H_    0.672648 0.361201 0.919511 0.194455
O1    O     O_R   0.909480 0.462010 0.051860 -0.584997
O2    O     O_R   0.445180 0.357580 0.407200 -0.587408
O3    O     O_R   0.638540 0.552110 0.586390 -0.579708
O4    O     O_R   0.534170 0.447730 0.586390 -0.589318
O5    O     O_R   0.548350 0.642270 0.586380 -0.596387
O6    O     O_R   0.443970 0.537890 0.586380 -0.588411
O7    O     O_R   0.459360 0.552110 0.407190 -0.589303
O8    O     O_R   0.354990 0.447740 0.407190 -0.582785
O9    O     O_R   0.448700 0.909820 0.858480 -0.585885
O10   O     O_R   0.552410 0.909770 0.962140 -0.586079
O11   O     O_R   0.538310 0.090150 0.948110 -0.586838
O12   O     O_R   0.910180 0.357650 0.948150 -0.586047
O13   O     O_R   0.642020 0.090090 0.051780 -0.586336
O14   O     O_R   0.447590 0.090130 0.037760 -0.583797
O15   O     O_R   0.551300 0.090080 0.141420 -0.585309
O16   O     O_R   0.357980 0.909810 0.948120 -0.584228
O17   O     O_R   0.461690 0.909750 0.051790 -0.586607
O18   O     O_R   0.910060 0.552180 0.962250 -0.587880
O19   O     O_R   0.910760 0.447820 0.858550 -0.580483
O20   O     O_R   0.089820 0.642350 0.051850 -0.586378
O21   O     O_R   0.090520 0.537990 0.948140 -0.590093
O22   O     O_R   0.089240 0.552180 0.141450 -0.586283
O23   O     O_R   0.089940 0.447820 0.037750 -0.588859
O24   O     O_R   0.549550 0.461960 0.407200 -0.588721
N1    N     N_3   0.529805 0.820209 0.598498 -0.571599
H34   H     H_    0.524549 0.765544 0.552785 0.231960
H35   H     H_    0.466978 0.805404 0.587657 0.226333

loop_
_geom_bond_atom_site_label_1
_geom_bond_atom_site_label_2
_ccdc_geom_bond_type
C34   O23   A    
C42   H18   S    
C43   H21   S    
C41   C42   S    
C19   C20   A    
C18   C26   S    
Cu4   O4    S    
Cu5   O14   S    
C8    C56   S    
C52   H27   S    
C7    C8    S    
Cu1   O20   S    
Cu6   O10   S    
C17   H7    S    
C22   C35   S    
C42   H19   S    
C18   C24   A    
C36   C37   A    
C31   C49   S    
C18   C19   A    
C55   H28   S    
C5    C6    A    
Cu6   O13   S    
C28   O3    A    
C15   C16   S    
Cu2   O23   S    
C3    H29   S    
Cu2   O12   S    
C23   O21   A    
C54   C55   D    
C53   H12   S    
N1    H35   S    
C16   C17   S    
Cu1   O1    S    
C30   O8    A    
C26   H14   S    
C20   H9    S    
C16   H6    S    
Cu4   O8    S    
C9    C10   A    
C25   H11   S    
C5    C32   S    
C44   C52   S    
C34   O22   A    
C45   C53   D    
C17   H8    S    
C32   O11   A    
C21   C22   A    
Cu2   O21   S    
Cu3   O5    S    
C31   O10   A    
C36   C41   A    
C8    H33   S    
C14   C30   S    
C44   C46   A    
C12   O19   A    
C13   H4    S    
C7    H31   S    
C26   H15   S    
C21   H10   S    
C51   C52   S    
C33   C40   S    
Cu5   O9    S    
C24   C25   S    
Cu4   O2    S    
C51   H25   S    
C39   C40   A    
Cu1   O18   S    
C38   H16   S    
C25   C26   S    
C45   H1    S    
C3    C4    A    
C25   H13   S    
C39   H17   S    
C19   C23   S    
C37   C38   A    
C47   C48   A    
Cu6   O15   S    
C30   O7    A    
C50   C51   S    
C29   O6    A    
C10   C34   S    
C16   H5    S    
C47   H22   S    
Cu5   O11   S    
C1    O12   A    
C52   N1    S    
C28   O4    A    
C9    C17   S    
C48   C49   A    
C8    H2    S    
C45   C54   S    
C48   H24   S    
C33   O14   A    
C42   C43   S    
Cu4   O6    S    
Cu5   O16   S    
C35   O16   A    
N1    H34   S    
Cu1   O22   S    
C12   O18   A    
C44   C50   A    
Cu3   O3    S    
C7    H32   S    
C46   C47   A    
C27   O2    A    
Cu3   O24   S    
C29   O5    A    
Cu3   O7    S    
C6    C56   A    
C4    C5    A    
C51   H26   S    
C54   H23   S    
C28   C53   S    
C6    C7    S    
C27   O24   A    
C29   C46   S    
C31   O9    A    
C2    C3    A    
C9    C15   A    
C2    C56   A    
C11   C13   A    
Cu1   Cu2   S    
C38   C39   A    
C27   C37   S    
C1    O1    A    
C1    C2    S    
C22   C24   A    
Cu5   Cu6   S    
C12   C55   S    
C10   C11   A    
C23   O20   A    
Cu3   Cu4   S    
Cu6   O17   S    
C20   C21   A    
C49   C50   A    
C32   O13   A    
Cu2   O19   S    
C43   H20   S    
C14   C15   A    
C36   C43   S    
C40   C41   A    
C33   O15   A    
C13   C14   A    
C35   O17   A    
C11   H3    S    
C4    H30   S    
