data_mof_unit_35939.cif
_audit_creation_date              2013-03-05T16:30:58-0500
_audit_creation_method            fapswitch 2.2
_symmetry_space_group_name_H-M    P1
_symmetry_Int_Tables_number       1
_space_group_crystal_system       triclinic
_cell_length_a                    12.966846
_cell_length_b                    10.863667
_cell_length_c                    9.560384
_cell_angle_alpha                 90.436765
_cell_angle_beta                  96.312228
_cell_angle_gamma                 90.578235
_cell_volume                      1338.46289355

loop_
_atom_site_label
_atom_site_type_symbol
_atom_site_description
_atom_site_fract_x
_atom_site_fract_y
_atom_site_fract_z
_atom_type_partial_charge
O1    O     O_R   0.500000 0.319640 0.618810 -0.571398
O2    O     O_R   0.500010 0.319680 0.381230 -0.585376
C1    C     C_R   0.495951 0.262501 0.498744 0.803988
O3    O     O_R   0.348990 0.499960 0.599490 -0.550289
O4    O     O_R   0.349000 0.500000 0.361910 -0.595619
C2    C     C_R   0.300746 0.502312 0.473601 0.884335
Cu1   Cu    Cu3+1 0.499990 0.499980 0.640670 1.037969
Cu2   Cu    Cu3+1 0.500010 0.500020 0.359330 1.002737
O5    O     O_R   0.499990 0.680320 0.618770 -0.560884
O6    O     O_R   0.500000 0.680360 0.381190 -0.600543
O7    O     O_R   0.651000 0.500000 0.638090 -0.592030
O8    O     O_R   0.651010 0.500040 0.400510 -0.566033
C3    C     C_R   0.501522 0.737750 0.500333 0.889523
C4    C     C_R   0.699468 0.499457 0.526687 0.850437
C5    C     C_R   0.812436 0.502369 0.543868 -0.103592
C6    C     C_R   0.187893 0.502022 0.458602 -0.161797
C7    C     C_R   0.027086 0.423503 0.338479 -0.062531
C8    C     C_R   0.134130 0.434609 0.347920 -0.202454
C9    C     C_R   0.133949 0.562076 0.559353 0.385324
C10   C     C_R   0.028372 0.531569 0.564314 -0.063779
C11   C     C_R   0.973914 0.470187 0.446363 0.068312
C12   C     C_R   0.866542 0.457206 0.436736 -0.120959
C13   C     C_R   0.866575 0.549034 0.667725 -0.204896
C14   C     C_R   0.974477 0.560217 0.681392 0.387526
H1    H     H_    0.824776 0.412853 0.345157 0.180844
H2    H     H_    0.825179 0.574266 0.755400 0.188407
H3    H     H_    0.986268 0.374516 0.249522 0.179800
H4    H     H_    0.175071 0.390571 0.268573 0.177772
C15   C     C_R   0.460446 0.063335 0.610879 0.042507
C16   C     C_R   0.484543 0.129491 0.493932 -0.126135
C17   C     C_R   0.497805 0.063702 0.369826 -0.149427
H5    H     H_    0.510901 0.111021 0.274106 0.212213
C18   C     C_R   0.501458 0.935212 0.370986 -0.131781
H6    H     H_    0.513665 0.887259 0.274659 0.172519
C19   C     C_R   0.496146 0.871151 0.497578 -0.024557
C20   C     C_R   0.474352 0.938251 0.615337 0.051713
C21   C     C_3   0.518382 0.942520 0.767447 0.024662
C22   C     C_3   0.492233 0.079429 0.764787 0.219011
H7    H     H_    0.475166 0.884644 0.836974 0.166888
H8    H     H_    0.559506 0.143159 0.789843 0.142035
C23   C     C_R   0.587950 0.531023 0.087331 0.191428
N1    N     N_R   0.500660 0.500930 0.148010 -0.227874
C24   C     C_R   0.415494 0.461736 0.061408 -0.004640
H9    H     H_    0.346456 0.431766 0.105854 0.153280
C25   C     C_R   0.415369 0.462335 0.913094 0.098093
H10   H     H_    0.345633 0.434643 0.848126 0.203547
N2    N     N_R   0.500660 0.500890 0.852110 -0.209671
C26   C     C_R   0.587606 0.531432 0.939332 0.163749
C27   C     C_3   0.640018 0.653800 0.942195 -0.423173
C28   C     C_3   0.642014 0.653321 0.100865 0.118714
H11   H     H_    0.717274 0.651106 0.903221 0.245129
H12   H     H_    0.586939 0.723066 0.892002 0.201753
H13   H     H_    0.594985 0.727130 0.142980 0.126897
N3    N     N_R   0.631194 0.926187 0.790843 0.096344
O9    O     O_R   0.682907 0.879648 0.694234 -0.338983
O10   O     O_R   0.680121 0.953574 0.913456 -0.313958
S1    S     S_3+6 0.382083 0.115432 0.855482 0.010836
O11   O     O_2   0.318971 0.212529 0.775735 -0.293609
O12   O     O_2   0.314784 0.003221 0.867134 -0.257145
O13   O     O_3   0.424276 0.168319 0.017453 -0.558683
H14   H     H_    0.360526 0.182101 0.063521 0.366836
N4    N     N_R   0.747133 0.645883 0.173391 0.170709
O14   O     O_R   0.776159 0.721433 0.276757 -0.298875
O15   O     O_R   0.813586 0.568053 0.132296 -0.348980
N5    N     N_R   0.027861 0.584538 0.818635 0.169120
O16   O     O_R   0.101859 0.511804 0.868686 -0.333552
O17   O     O_R   0.989082 0.661008 0.903830 -0.254988
S2    S     S_3+6 0.189589 0.697937 0.645021 0.069553
O18   O     O_2   0.252724 0.665486 0.780746 -0.253486
O19   O     O_2   0.258963 0.760743 0.550913 -0.312425
O20   O     O_3   0.095986 0.796742 0.678029 -0.464562
H15   H     H_    0.133096 0.866479 0.729358 0.414169

loop_
_geom_bond_atom_site_label_1
_geom_bond_atom_site_label_2
_geom_bond_distance
_ccdc_geom_bond_type
C15   C22   1.492246 S    
C1    C16   1.450909 S    
Cu1   O7    1.960988 S    
C24   H9    1.080658 S    
C17   C18   1.397237 A    
C3    C19   1.451906 S    
C21   C22   1.528605 S    
O4    Cu2   1.960985 S    
C22   S1    1.795348 S    
Cu1   N2    2.020460 S    
C23   N1    1.365422 A    
C17   H5    1.081721 S    
C9    C10   1.411250 A    
Cu2   O8    1.954283 S    
C16   C17   1.408044 A    
C13   C14   1.394835 A    
C27   H12   1.101611 S    
N4    O14   1.300569 A    
C5    C13   1.397448 A    
O2    C1    1.293759 A    
C25   H10   1.078015 S    
O20   H15   0.990636 S    
C21   H7    1.110113 S    
O1    Cu1   1.968688 S    
C11   C12   1.390842 A    
N5    O16   1.301582 A    
C22   H8    1.112204 S    
C24   C25   1.417821 A    
C15   C20   1.372959 A    
S1    O11   1.502043 D    
C15   C16   1.395971 A    
C14   N5    1.435929 S    
O13   H14   0.990593 S    
S2    O20   1.682332 S    
C21   N3    1.468063 S    
C6    C8    1.399188 A    
C20   C21   1.502918 S    
C18   C19   1.408550 A    
C23   C26   1.414480 A    
O8    C4    1.297511 A    
C7    C8    1.384994 A    
Cu1   O5    1.971896 S    
O3    Cu1   1.954283 S    
C6    C9    1.410844 A    
O4    C2    1.295831 A    
C28   N4    1.463038 S    
O7    C4    1.294806 A    
N3    O10   1.300950 A    
C18   H6    1.082105 S    
S1    O12   1.503966 D    
C28   H13   1.111690 S    
N5    O17   1.301761 A    
N1    C24   1.367639 A    
C2    C6    1.454552 S    
C7    H3    1.084011 S    
N2    C26   1.363092 A    
C10   C14   1.417458 A    
C23   C28   1.494002 S    
Cu1   Cu2   2.689750 S    
C8    H4    1.083654 S    
C10   C11   1.420863 A    
Cu2   O6    1.968686 S    
C27   C28   1.514367 S    
C25   N2    1.369184 A    
C13   H2    1.079004 S    
S2    O19   1.503058 D    
O5    C3    1.298932 A    
N3    O9    1.301631 A    
C26   C27   1.485577 S    
S1    O13   1.679615 S    
N4    O15   1.302253 A    
C27   H11   1.107134 S    
C4    C5    1.455963 S    
O3    C2    1.294505 A    
O6    C3    1.292488 A    
C5    C12   1.392575 A    
O2    Cu2   1.971896 S    
C19   C20   1.392952 A    
C9    S2    1.788815 S    
Cu2   N1    2.021343 S    
S2    O18   1.502476 D    
O1    C1    1.296500 A    
C12   H1    1.084464 S    
C7    C11   1.397087 A    
