data_mof_unit_66046.cif
_audit_creation_date              2012-12-10T16:59:20-0500
_audit_creation_method            fapswitch 2.2
_symmetry_space_group_name_H-M    P1
_symmetry_Int_Tables_number       1
_space_group_crystal_system       triclinic
_cell_length_a                    13.141968
_cell_length_b                    13.144708
_cell_length_c                    17.965612
_cell_angle_alpha                 110.25977
_cell_angle_beta                  72.856184
_cell_angle_gamma                 90.820679
_cell_volume                      2768.77935734

loop_
_atom_site_label
_atom_site_type_symbol
_atom_type_description
_atom_site_fract_x
_atom_site_fract_y
_atom_site_fract_z
_atom_type_partial_charge
C1    C     C_R   0.217017 0.545179 0.530970 0.734296
C2    C     C_R   0.589711 0.399411 0.903041 -0.219060
C3    C     C_R   0.637361 0.335317 0.932885 -0.231265
C4    C     C_R   0.781852 0.455515 0.468248 0.842091
C5    C     C_R   0.615002 0.360199 0.018100 0.166743
C6    C     C_R   0.544101 0.453112 0.075712 0.092000
C7    C     C_R   0.663702 0.292683 0.046196 -0.189835
C8    C     C_R   0.642912 0.315915 0.131128 -0.205159
C9    C     C_R   0.523967 0.474058 0.161503 -0.242455
C10   C     C_2   0.895319 0.437924 0.456467 -0.331012
C11   C     C_2   0.946527 0.520046 0.491638 -0.083818
C12   C     C_R   0.363982 0.690637 0.871161 -0.190387
C13   C     C_2   0.103212 0.569533 0.540191 0.292022
C14   C     C_2   0.057820 0.499452 0.487910 -0.174604
C15   C     C_2   0.532042 0.897186 0.533442 -0.337926
C16   C     C_R   0.472332 0.217120 0.474680 0.869467
C17   C     C_2   0.530993 0.931033 0.471334 0.480211
C18   C     C_2   0.470761 0.099431 0.457297 -0.334136
C19   C     C_2   0.527170 0.049533 0.488358 -0.290059
C20   C     C_R   0.527760 0.782686 0.524471 0.921833
C21   C     C_R   0.552297 0.432734 0.277066 0.795174
C22   C     C_R   0.448442 0.566414 0.723579 0.807147
C23   C     C_R   0.477797 0.529653 0.842101 -0.256229
C24   C     C_R   0.428931 0.596190 0.813724 -0.026019
C25   C     C_R   0.573143 0.406429 0.188353 0.016710
C26   C     C_R   0.348330 0.718109 0.956086 -0.203775
C27   C     C_R   0.465455 0.556770 0.927512 0.088970
C28   C     C_R   0.398238 0.652134 0.984644 0.173793
C29   C     C_R   0.516943 0.491693 0.957702 0.069414
C30   C     C_R   0.495941 0.520700 0.045466 0.070932
C31   C     C_R   0.428311 0.616695 0.099887 -0.214838
C32   C     C_R   0.381128 0.681050 0.069803 -0.232657
H1    H     H_    0.330186 0.754075 0.113859 0.150118
H2    H     H_    0.681247 0.263625 0.152263 0.132216
H3    H     H_    0.692383 0.265285 0.888575 0.149346
H4    H     H_    0.297294 0.791306 0.999570 0.141321
H5    H     H_    0.325349 0.743271 0.850515 0.166618
H6    H     H_    0.524101 0.456382 0.795816 0.161330
H7    H     H_    0.410700 0.645928 0.166568 0.154035
H8    H     H_    0.613646 0.374445 0.836203 0.149814
H9    H     H_    0.088078 0.705959 0.633468 0.352529
H10   H     H_    0.541174 0.894159 0.354944 0.335434
H11   H     H_    0.718049 0.221954 0.002367 0.141286
H12   H     H_    0.102793 0.423723 0.441846 0.143106
H13   H     H_    0.904309 0.601050 0.526294 0.201178
H14   H     H_    0.933954 0.355114 0.426907 0.142119
H15   H     H_    0.568529 0.097395 0.531110 0.181025
H16   H     H_    0.425241 0.053296 0.417439 0.164599
H17   H     H_    0.524222 0.956386 0.595141 0.091921
H18   H     H_    0.470225 0.541578 0.209523 0.128938
O1    O     O_3   0.500000 0.500000 0.500000 -0.487334
O2    O     O_R   0.474570 0.394560 0.317400 -0.640378
O3    O     O_R   0.403380 0.624270 0.695980 -0.650486
O4    O     O_R   0.609140 0.497770 0.314440 -0.623705
O5    O     O_R   0.512900 0.483390 0.672170 -0.644927
O6    O     O_3   0.043163 0.663495 0.600437 -0.770118
O7    O     O_3   0.530484 0.856072 0.395163 -0.752326
O8    O     O_R   0.526170 0.271940 0.521690 -0.640412
O9    O     O_R   0.451880 0.756290 0.574830 -0.654876
O10   O     O_R   0.271960 0.460780 0.472050 -0.651127
O11   O     O_R   0.749980 0.510990 0.431420 -0.636431
O12   O     O_R   0.262540 0.611050 0.579000 -0.641497
O13   O     O_R   0.715520 0.417170 0.517520 -0.633578
O14   O     O_R   0.426070 0.262540 0.438550 -0.643832
O15   O     O_R   0.595870 0.709230 0.464930 -0.597001
Zn1   Zn    Zn3+2 0.562560 0.419520 0.551940 0.964830
Zn2   Zn    Zn3+2 0.419550 0.406100 0.433160 0.973397
Zn3   Zn    Zn3+2 0.611810 0.553570 0.428930 1.005738
Zn4   Zn    Zn3+2 0.406080 0.620810 0.585960 0.979558

loop_
_geom_bond_atom_site_label_1
_geom_bond_atom_site_label_2
_ccdc_geom_bond_type
C10   H14   S    
C23   C24   A    
H9    O6    S    
C29   C30   A    
C7    H11   S    
C27   C29   A    
C23   H6    S    
C5    C7    A    
C12   C24   A    
C14   H12   S    
C26   C28   A    
C31   C32   A    
O11   Zn3   S    
C3    H3    S    
C21   O4    A    
O15   Zn3   S    
O3    Zn4   S    
C1    O12   A    
C13   O6    S    
C6    C9    A    
C2    C3    A    
O13   Zn1   S    
C9    C25   A    
C7    C8    A    
O10   Zn2   S    
C16   O8    A    
C13   C14   D    
C32   H1    S    
C20   O9    A    
C8    C25   A    
C4    O13   A    
C15   C20   S    
O2    Zn2   S    
O9    Zn4   S    
C2    C29   A    
C5    C6    A    
C22   C24   S    
C26   H4    S    
C6    C30   A    
C31   H7    S    
C16   O14   A    
C22   O3    A    
C23   C27   A    
O1    Zn3   S    
C15   H17   S    
C30   C31   A    
C11   C14   S    
C19   H15   S    
C11   H13   S    
O4    Zn3   S    
C10   C11   D    
C4    C10   S    
O14   Zn2   S    
C2    H8    S    
C20   O15   A    
C28   C32   A    
O5    Zn1   S    
C1    C13   S    
H10   O7    S    
C16   C18   S    
C18   C19   D    
C12   H5    S    
C1    O10   A    
C12   C26   A    
C27   C28   A    
C15   C17   D    
C21   C25   S    
O1    Zn2   S    
C22   O5    A    
O1    Zn4   S    
C17   C19   S    
C8    H2    S    
C4    O11   A    
O8    Zn1   S    
C21   O2    A    
C9    H18   S    
O12   Zn4   S    
C17   O7    S    
C3    C5    A    
O1    Zn1   S    
C18   H16   S    
