data_mof_unit_38773.cif
_audit_creation_date              2012-12-10T17:03:24-0500
_audit_creation_method            fapswitch 2.2
_symmetry_space_group_name_H-M    P1
_symmetry_Int_Tables_number       1
_space_group_crystal_system       triclinic
_cell_length_a                    15.042599
_cell_length_b                    11.03409
_cell_length_c                    9.956562
_cell_angle_alpha                 111.486042
_cell_angle_beta                  98.330952
_cell_angle_gamma                 92.109361
_cell_volume                      1514.2652796

loop_
_atom_site_label
_atom_site_type_symbol
_atom_type_description
_atom_site_fract_x
_atom_site_fract_y
_atom_site_fract_z
_atom_type_partial_charge
C1    C     C_R   0.494439 0.254022 0.439731 0.844890
C2    C     C_R   0.508398 0.746130 0.559898 0.794901
C3    C     C_R   0.060619 0.405225 0.689516 0.245353
C4    C     C_R   0.937599 0.574109 0.293138 0.251940
C5    C     C_2   0.491579 0.113211 0.402748 -0.023442
C6    C     C_2   0.518155 0.887179 0.593891 -0.017162
C7    C     C_2   0.521516 0.068348 0.507905 -0.184196
C8    C     C_2   0.513486 0.929443 0.483050 -0.148841
C9    C     C_2   0.511077 0.509881 0.084249 0.327011
C10   C     C_2   0.498350 0.483135 0.920804 0.264162
C11   C     C_R   0.329012 0.499363 0.500517 0.796325
C12   C     C_R   0.670980 0.500190 0.499279 0.799965
C13   C     C_R   0.805092 0.536795 0.396926 -0.247856
C14   C     C_R   0.194166 0.456149 0.598008 -0.236742
C15   C     C_R   0.767531 0.498476 0.497443 -0.069977
C16   C     C_R   0.232238 0.498077 0.500445 -0.079728
C17   C     C_R   0.821971 0.458123 0.596277 -0.223643
C18   C     C_R   0.177608 0.535985 0.399468 -0.223589
C19   C     C_R   0.914222 0.454972 0.594903 0.088974
C20   C     C_R   0.084895 0.535078 0.397203 0.063109
C21   C     C_R   0.952661 0.494319 0.494355 0.019442
C22   C     C_R   0.046079 0.493709 0.495790 0.005231
C23   C     C_R   0.897770 0.534806 0.393157 0.045896
C24   C     C_R   0.100718 0.451276 0.595262 0.089020
C25   C     C_R   0.968020 0.410755 0.691076 -0.280585
C26   C     C_R   0.030754 0.574510 0.297133 -0.238654
Cu1   Cu    Cu3+1 0.515770 0.521810 0.644910 0.923752
Cu2   Cu    Cu3+1 0.484230 0.478190 0.355090 0.957412
H1    H     H_    0.761647 0.571214 0.325127 0.162762
H2    H     H_    0.237571 0.426149 0.674594 0.181201
H3    H     H_    0.792197 0.427388 0.673014 0.149796
H4    H     H_    0.207568 0.568015 0.323806 0.142687
H5    H     H_    0.937653 0.376791 0.764918 0.148518
H6    H     H_    0.060785 0.604967 0.220456 0.155904
H7    H     H_    0.501338 0.859664 0.370740 0.147756
H8    H     H_    0.551310 0.136350 0.616552 0.185371
N1    N     N_2   0.460520 0.445420 0.137370 -0.080494
N2    N     N_2   0.539480 0.554580 0.862630 -0.100868
O1    O     O_R   0.508410 0.332340 0.577400 -0.624183
O2    O     O_R   0.491590 0.667660 0.422600 -0.583838
O3    O     O_R   0.481780 0.295500 0.332650 -0.549239
O4    O     O_R   0.518220 0.704500 0.667350 -0.580875
O5    O     O_R   0.383570 0.518390 0.622380 -0.595350
O6    O     O_R   0.616430 0.481610 0.377620 -0.552235
O7    O     O_R   0.356940 0.481550 0.377630 -0.591774
O8    O     O_R   0.643060 0.518450 0.622370 -0.580189
N3    N     N_2   0.111899 0.347509 0.777928 -0.438382
H9    H     H_    0.090382 0.363844 0.876379 0.252239
C27   C     C_3   0.121023 0.210379 0.700084 -0.700947
H10   H     H_    0.162038 0.171117 0.773701 0.222010
H11   H     H_    0.155216 0.197187 0.604656 0.236104
H12   H     H_    0.053533 0.153419 0.661562 0.227035
N4    N     N_2   0.885987 0.612036 0.186046 -0.436583
H13   H     H_    0.825384 0.556535 0.134774 0.238502
C28   C     C_3   0.880313 0.751418 0.230870 -0.704709
H14   H     H_    0.846643 0.773357 0.136780 0.225059
H15   H     H_    0.948934 0.804905 0.267504 0.239799
H16   H     H_    0.840578 0.786029 0.321319 0.224498
N5    N     N_3   0.532440 0.977794 0.743488 -0.599412
H17   H     H_    0.591115 0.957548 0.798500 0.221670
H18   H     H_    0.478327 0.960416 0.791251 0.225305
N6    N     N_3   0.455228 0.027496 0.254853 -0.598199
H19   H     H_    0.399937 0.967865 0.256083 0.220802
H20   H     H_    0.504906 0.968785 0.210699 0.218947
N7    N     N_3   0.448331 0.360736 0.828686 -0.574501
H21   H     H_    0.493072 0.291774 0.788916 0.231044
H22   H     H_    0.401283 0.370770 0.746835 0.260534
N8    N     N_3   0.590234 0.587747 0.179001 -0.545702
H23   H     H_    0.646030 0.562212 0.126757 0.194058
H24   H     H_    0.582198 0.686653 0.203237 0.215369
N9    N     N_2   0.568109 0.681896 0.954467 -0.381644
H25   H     H_    0.523092 0.746874 0.942342 0.263006
C29   C     C_3   0.659665 0.722480 0.949994 -0.608171
H26   H     H_    0.682947 0.816243 0.043387 0.185636
H27   H     H_    0.663614 0.737755 0.846949 0.247542
H28   H     H_    0.705213 0.647873 0.959144 0.219013
N10   N     N_2   0.372750 0.407120 0.065353 -0.338209
H29   H     H_    0.328721 0.473715 0.110880 0.251674
C30   C     C_3   0.342527 0.274991 0.045326 -0.513521
H30   H     H_    0.275022 0.246635 0.975585 0.180441
H31   H     H_    0.336863 0.267487 0.151795 0.235515
H32   H     H_    0.390022 0.206149 0.990496 0.226257

loop_
_geom_bond_atom_site_label_1
_geom_bond_atom_site_label_2
_ccdc_geom_bond_type
C28   H14   S    
C4    N4    S    
C7    H8    S    
C7    C8    S    
N3    C27   S    
N4    H13   S    
C1    C5    S    
C13   H1    S    
C19   C21   A    
Cu2   O2    S    
Cu1   N2    S    
Cu2   O3    S    
C13   C23   A    
C29   H26   S    
C14   C24   A    
N6    H20   S    
C26   H6    S    
Cu1   O1    S    
N8    H23   S    
C27   H11   S    
C11   O5    A    
C9    C10   S    
C18   C20   A    
N10   C30   S    
N5    H17   S    
C21   C22   A    
C29   H27   S    
C3    C24   A    
C2    C6    S    
C14   H2    S    
N4    C28   S    
C21   C23   A    
Cu2   O7    S    
N5    H18   S    
C3    C25   A    
C12   O8    A    
C5    C7    D    
C4    C23   A    
C6    C8    D    
N7    H22   S    
N10   H29   S    
N1    N10   S    
Cu2   O6    S    
C8    H7    S    
N6    H19   S    
C2    O2    A    
C11   C16   S    
N3    H9    S    
C12   C15   S    
C27   H12   S    
C9    N1    D    
Cu1   O8    S    
C1    O3    A    
C20   C22   A    
N7    H21   S    
C28   H15   S    
C17   H3    S    
C29   H28   S    
C22   C24   A    
C11   O7    A    
C18   H4    S    
C30   H31   S    
C10   N7    S    
C15   C17   A    
N2    N9    S    
C6    N5    S    
C30   H32   S    
C4    C26   A    
C10   N2    D    
C13   C15   A    
C9    N8    S    
N9    H25   S    
C12   O6    A    
Cu1   O4    S    
C20   C26   A    
Cu2   N1    S    
C2    O4    A    
C3    N3    S    
C17   C19   A    
C5    N6    S    
C14   C16   A    
C19   C25   A    
C1    O1    A    
C30   H30   S    
Cu1   O5    S    
C16   C18   A    
C27   H10   S    
C28   H16   S    
N9    C29   S    
Cu1   Cu2   S    
N8    H24   S    
C25   H5    S    
