data_mof_unit_55480.cif
_audit_creation_date              2012-12-10T17:13:33-0500
_audit_creation_method            fapswitch 2.2
_symmetry_space_group_name_H-M    P1
_symmetry_Int_Tables_number       1
_space_group_crystal_system       triclinic
_cell_length_a                    27.760559
_cell_length_b                    10.724133
_cell_length_c                    10.016862
_cell_angle_alpha                 89.680946
_cell_angle_beta                  89.57027
_cell_angle_gamma                 90.462782
_cell_volume                      2981.87082301

loop_
_atom_site_label
_atom_site_type_symbol
_atom_type_description
_atom_site_fract_x
_atom_site_fract_y
_atom_site_fract_z
_atom_type_partial_charge
C1    C     C_R   0.498833 0.262620 0.500168 0.914288
C2    C     C_R   0.974412 0.375995 0.513463 -0.001088
C3    C     C_R   0.975321 0.599949 0.457367 -0.003331
C4    C     C_R   0.406073 0.499234 0.500449 0.867290
C5    C     C_R   0.949513 0.487730 0.484072 0.070802
C6    C     C_R   0.947633 0.264630 0.529420 -0.332612
C7    C     C_R   0.897545 0.263543 0.528744 0.492218
C8    C     C_R   0.872427 0.374830 0.503851 -0.112800
C9    C     C_R   0.898406 0.487366 0.481969 -0.172284
C10   C     C_R   0.873244 0.599675 0.458697 -0.115681
C11   C     C_R   0.822664 0.597267 0.462482 0.526999
C12   C     C_R   0.278275 0.493748 0.381026 -0.101975
C13   C     C_R   0.821874 0.377349 0.500417 0.524768
C14   C     C_R   0.723256 0.461932 0.607256 -0.225025
C15   C     C_R   0.672952 0.460683 0.613176 0.467296
C16   C     C_R   0.501162 0.737335 0.499625 0.941458
C17   C     C_R   0.671284 0.519005 0.377493 -0.290936
C18   C     C_R   0.721186 0.515645 0.372067 -0.110070
C19   C     C_R   0.747165 0.488032 0.487032 0.255995
C20   C     C_R   0.025249 0.378531 0.525259 0.071850
C21   C     C_R   0.050997 0.489089 0.491185 0.072335
C22   C     C_R   0.026337 0.598786 0.452898 0.071583
C23   C     C_R   0.253096 0.491438 0.502375 0.317097
C24   C     C_R   0.051375 0.274503 0.572167 -0.225577
C25   C     C_R   0.103660 0.702900 0.412655 -0.138600
C26   C     C_R   0.949240 0.710619 0.437489 -0.323993
C27   C     C_R   0.899211 0.710982 0.434154 0.492428
C28   C     C_R   0.593970 0.498437 0.499667 0.886596
C29   C     C_R   0.053759 0.703656 0.410182 -0.225180
C30   C     C_2   0.497682 0.933480 0.387261 -0.156455
C31   C     C_2   0.505837 0.868943 0.498872 -0.322807
C32   C     C_2   0.500378 0.067524 0.387347 -0.147298
C33   C     C_2   0.494291 0.130908 0.500506 -0.326715
C34   C     C_R   0.101980 0.489991 0.495450 -0.059795
C35   C     C_2   0.526279 0.575377 0.924913 0.056505
C36   C     C_2   0.519611 0.588168 0.073817 -0.095310
C37   C     C_R   0.177318 0.386234 0.541308 0.504980
C38   C     C_R   0.178414 0.596177 0.460926 0.505767
C39   C     C_R   0.277890 0.490769 0.623333 -0.098424
C40   C     C_R   0.327950 0.493179 0.623018 -0.216255
C41   C     C_R   0.328269 0.496281 0.380326 -0.206751
C42   C     C_3   0.875043 0.850215 0.276894 0.103257
C43   C     C_3   0.849573 0.974425 0.255463 -0.216566
C44   C     C_3   0.844268 0.004435 0.107291 -1.033480
C45   C     C_R   0.126943 0.383486 0.538564 -0.020368
C46   C     C_3   0.448960 0.341857 0.876863 0.179926
C47   C     C_3   0.410961 0.289104 0.973481 -0.420251
C48   C     C_3   0.399601 0.152707 0.943294 -0.931326
C49   C     C_3   0.653655 0.308745 0.768413 0.051503
C50   C     C_3   0.607678 0.238662 0.729143 -0.303619
C51   C     C_3   0.609300 0.101916 0.771450 -0.975582
C52   C     C_3   0.871490 0.121489 0.682970 0.124845
C53   C     C_3   0.841713 0.003112 0.702951 -0.709493
C54   C     C_R   0.101261 0.277053 0.578127 -0.138991
C55   C     C_R   0.128105 0.597396 0.456497 -0.021373
C56   C     C_R   0.353456 0.496470 0.501371 -0.044212
C57   C     C_R   0.646697 0.493380 0.497855 -0.141911
H1    H     H_    0.347088 0.498266 0.285218 0.169638
H2    H     H_    0.506970 0.114023 0.292190 0.169013
H3    H     H_    0.258987 0.493887 0.287444 0.141803
H4    H     H_    0.484633 0.087398 0.595033 0.146518
H5    H     H_    0.553980 0.631898 0.876625 0.102046
H6    H     H_    0.533216 0.671907 0.121175 0.134076
H7    H     H_    0.496363 0.415156 0.105152 0.198870
H8    H     H_    0.119630 0.194849 0.614182 0.192209
H9    H     H_    0.743833 0.442196 0.696285 0.143200
H10   H     H_    0.964467 0.175025 0.540239 0.159418
H11   H     H_    0.034325 0.190255 0.608573 0.141775
H12   H     H_    0.258308 0.489166 0.717245 0.143193
H13   H     H_    0.346573 0.492700 0.717659 0.173017
H14   H     H_    0.854907 0.775756 0.222974 0.147043
H15   H     H_    0.912223 0.858214 0.234708 0.112933
H16   H     H_    0.813242 0.970474 0.302844 0.262678
H17   H     H_    0.870708 0.050134 0.303270 0.254302
H18   H     H_    0.880212 0.009950 0.057999 0.263477
H19   H     H_    0.826135 0.095681 0.095254 0.277854
H20   H     H_    0.822115 0.931543 0.058025 0.271571
H21   H     H_    0.482286 0.284912 0.885541 0.111853
H22   H     H_    0.434309 0.334050 0.774937 0.192572
H23   H     H_    0.123026 0.785692 0.379470 0.192551
H24   H     H_    0.424048 0.296206 0.077727 0.228166
H25   H     H_    0.377386 0.344344 0.965040 0.237258
H26   H     H_    0.385481 0.143336 0.840316 0.269237
H27   H     H_    0.371886 0.117263 0.014760 0.280945
H28   H     H_    0.432510 0.095276 0.953589 0.258972
H29   H     H_    0.657619 0.302752 0.878542 0.165428
H30   H     H_    0.685766 0.261655 0.724509 0.142910
H31   H     H_    0.576146 0.283207 0.777823 0.240748
H32   H     H_    0.603148 0.243791 0.619139 0.211978
H33   H     H_    0.640050 0.054618 0.722087 0.277861
H34   H     H_    0.966493 0.800503 0.427195 0.159278
H35   H     H_    0.575376 0.054463 0.741633 0.261433
H36   H     H_    0.613017 0.094011 0.881503 0.262976
H37   H     H_    0.853989 0.197669 0.740564 0.139196
H38   H     H_    0.908193 0.104890 0.723178 0.116210
H39   H     H_    0.859510 0.923677 0.652709 0.283720
H40   H     H_    0.838306 0.981515 0.811034 0.183855
H41   H     H_    0.805146 0.015544 0.660886 0.278817
H42   H     H_    0.651980 0.542754 0.287404 0.185535
H43   H     H_    0.739786 0.535600 0.278853 0.147134
H44   H     H_    0.037858 0.787289 0.370825 0.141858
H45   H     H_    0.489293 0.887937 0.293496 0.172336
H46   H     H_    0.517111 0.911532 0.591542 0.144487
N1    N     N_R   0.201774 0.491440 0.502360 -0.357363
N2    N     N_R   0.798527 0.487431 0.482314 -0.350993
N3    N     N_2   0.500520 0.501330 0.852150 0.048608
N4    N     N_2   0.500540 0.501360 0.147810 -0.177751
O1    O     O_R   0.499990 0.319060 0.613040 -0.670700
O2    O     O_R   0.571240 0.499960 0.613080 -0.585532
O3    O     O_R   0.571250 0.500000 0.386950 -0.628445
O4    O     O_2   0.201763 0.284413 0.581048 -0.555190
O5    O     O_3   0.876149 0.823488 0.415062 -0.600170
O6    O     O_3   0.457860 0.467897 0.908040 -0.568629
O7    O     O_3   0.649800 0.436623 0.733741 -0.635595
O8    O     O_3   0.873583 0.150825 0.545403 -0.574824
O9    O     O_2   0.795862 0.271173 0.514672 -0.532741
O10   O     O_2   0.203903 0.698833 0.424755 -0.552371
O11   O     O_2   0.797441 0.703533 0.448338 -0.525149
O12   O     O_R   0.500010 0.319100 0.386900 -0.620371
O13   O     O_R   0.428750 0.500000 0.613050 -0.612722
O14   O     O_R   0.428760 0.500040 0.386920 -0.611201
O15   O     O_R   0.499990 0.680900 0.613100 -0.616177
O16   O     O_R   0.500010 0.680940 0.386960 -0.616647
Zn1   Zn    Zn3+2 0.499990 0.499970 0.650990 0.974547
Zn2   Zn    Zn3+2 0.500010 0.500030 0.349010 0.943815

loop_
_geom_bond_atom_site_label_1
_geom_bond_atom_site_label_2
_ccdc_geom_bond_type
C10   C27   A    
C43   H16   S    
C8    C13   A    
C22   C29   A    
C25   H23   S    
C49   H30   S    
C35   C36   S    
C1    C33   S    
C7    C8    A    
C54   H8    S    
C28   C57   S    
C16   C31   S    
O14   Zn2   S    
C12   C23   A    
C26   C27   A    
C40   H13   S    
C44   H20   S    
C16   O16   A    
C41   H1    S    
C51   H33   S    
C30   C31   D    
O16   Zn2   S    
C24   C54   A    
C52   H38   S    
C18   C19   A    
C1    O12   A    
C47   H25   S    
C7    O8    S    
C44   H19   S    
C42   O5    S    
C38   N1    A    
C38   O10   S    
C38   C55   A    
C20   C24   A    
C8    C9    A    
C40   C56   A    
C11   N2    A    
C52   H37   S    
C36   H6    S    
C9    C10   A    
C50   H31   S    
C43   H17   S    
C49   O7    S    
C34   C55   A    
C21   C22   A    
C4    C56   S    
C53   H39   S    
C15   C57   A    
C2    C6    A    
C18   H43   S    
O1    Zn1   S    
C14   C19   A    
C17   C18   A    
C25   C29   A    
N3    O6    S    
C2    C20   A    
C16   O15   A    
N4    Zn2   S    
C13   N2    A    
C39   C40   A    
C46   H21   S    
C21   C34   A    
C1    O1    A    
C28   O3    A    
C26   H34   S    
C48   H27   S    
C31   H46   S    
C44   H18   S    
C43   C44   S    
C41   C56   A    
C5    C9    A    
C12   C41   A    
C51   H35   S    
C50   H32   S    
C47   C48   S    
C30   H45   S    
C42   H15   S    
C50   C51   S    
C14   H9    S    
C15   O7    S    
C29   H44   S    
C34   C45   A    
C17   H42   S    
C51   H36   S    
C19   N2    S    
C6    H10   S    
C45   C54   A    
C28   O2    A    
C2    C5    A    
C42   C43   S    
O15   Zn1   S    
O12   Zn2   S    
C52   C53   S    
H7    N4    S    
C52   O8    S    
C46   C47   S    
C46   O6    S    
C14   C15   A    
C49   H29   S    
C3    C26   A    
C25   C55   A    
C3    C5    A    
C27   O5    S    
C37   N1    A    
O2    Zn1   S    
C6    C7    A    
C53   H41   S    
C48   H26   S    
C53   H40   S    
C32   C33   D    
C35   N3    D    
C30   C32   S    
C46   H22   S    
C23   C39   A    
C42   H14   S    
C39   H12   S    
C4    O14   A    
C35   H5    S    
C47   H24   S    
C23   N1    S    
C37   O4    S    
C13   O9    S    
C10   C11   A    
C24   H11   S    
O3    Zn2   S    
C12   H3    S    
C20   C21   A    
C33   H4    S    
C49   C50   S    
N3    Zn1   S    
C48   H28   S    
C4    O13   A    
C3    C22   A    
C32   H2    S    
C11   O11   S    
C37   C45   A    
O13   Zn1   S    
C17   C57   A    
C36   N4    D    
