data_mof_unit_13427.cif
_audit_creation_date              2012-12-11T17:07:53-0500
_audit_creation_method            fapswitch 2.2
_symmetry_space_group_name_H-M    P1
_symmetry_Int_Tables_number       1
_space_group_crystal_system       triclinic
_cell_length_a                    17.246518
_cell_length_b                    17.108609
_cell_length_c                    17.308179
_cell_angle_alpha                 89.999907
_cell_angle_beta                  90.001453
_cell_angle_gamma                 90.000436
_cell_volume                      5107.01936828

loop_
_atom_site_label
_atom_site_type_symbol
_atom_type_description
_atom_site_fract_x
_atom_site_fract_y
_atom_site_fract_z
_atom_type_partial_charge
C1    C     C_R   0.424798 0.331773 0.855163 -0.130452
C2    C     C_R   0.197336 0.894443 0.397754 -0.048238
C3    C     C_R   0.775250 0.864262 0.199227 -0.099156
C4    C     C_R   0.227487 0.317917 0.652537 -0.120777
C5    C     C_R   0.224751 0.864256 0.800769 -0.099148
C6    C     C_R   0.772518 0.682086 0.652549 -0.120794
C7    C     C_R   0.775317 0.135774 0.800805 -0.099165
C8    C     C_R   0.727552 0.182110 0.847496 -0.120756
C9    C     C_R   0.724758 0.635738 0.699239 -0.099021
C10   C     C_R   0.272514 0.817911 0.847455 -0.120772
C11   C     C_R   0.275246 0.364265 0.699230 -0.099098
C12   C     C_R   0.727486 0.817914 0.152544 -0.120769
C13   C     C_R   0.075199 0.168236 0.355172 -0.130592
C14   C     C_R   0.724764 0.364265 0.300763 -0.099090
C15   C     C_R   0.272451 0.182106 0.152505 -0.120753
C16   C     C_R   0.275233 0.635738 0.300754 -0.099021
C17   C     C_R   0.802662 0.105559 0.397758 -0.048184
C18   C     C_R   0.924798 0.168241 0.644823 -0.130599
C19   C     C_R   0.197337 0.105559 0.602244 -0.048191
C20   C     C_R   0.075206 0.831767 0.644832 -0.130495
C21   C     C_R   0.802664 0.894443 0.602248 -0.048242
C22   C     C_3   0.895461 0.313507 0.744398 0.190540
C23   C     C_3   0.659949 0.863616 0.709656 0.194841
C24   C     C_3   0.104317 0.686591 0.744669 0.190650
C25   C     C_R   0.697332 0.394452 0.897743 -0.048451
C26   C     C_3   0.340055 0.136387 0.709653 0.194780
C27   C     C_3   0.895701 0.686601 0.255314 0.190644
C28   C     C_3   0.659928 0.136392 0.290376 0.194794
C29   C     C_3   0.104510 0.313492 0.255569 0.190544
C30   C     C_3   0.340061 0.863613 0.290365 0.194855
C31   C     C_3   0.395710 0.813392 0.244724 0.190631
C32   C     C_3   0.160190 0.363689 0.209945 0.194857
C33   C     C_3   0.604279 0.186613 0.244734 0.190626
C34   C     C_3   0.840041 0.636378 0.209688 0.194850
C35   C     C_3   0.395706 0.186608 0.755293 0.190589
C36   C     C_R   0.575202 0.668229 0.855164 -0.130499
C37   C     C_3   0.159979 0.636373 0.790295 0.194855
C38   C     C_3   0.604298 0.813396 0.755294 0.190600
C39   C     C_3   0.839777 0.363699 0.790020 0.194856
C40   C     C_R   0.393205 0.697603 0.895985 -0.109172
C41   C     C_R   0.329687 0.420402 0.855622 -0.078611
C42   C     C_R   0.606797 0.302397 0.895986 -0.109027
C43   C     C_R   0.670313 0.579599 0.855624 -0.078446
C44   C     C_R   0.393202 0.302397 0.104015 -0.109029
C45   C     C_R   0.329684 0.579600 0.144373 -0.078461
C46   C     C_R   0.606794 0.697602 0.104017 -0.109171
C47   C     C_R   0.302666 0.605556 0.897748 -0.048307
C48   C     C_R   0.670317 0.420400 0.144375 -0.078617
C49   C     C_R   0.893202 0.197605 0.395993 -0.109335
C50   C     C_R   0.829688 0.920402 0.355621 -0.078573
C51   C     C_R   0.106796 0.802396 0.395990 -0.109224
C52   C     C_R   0.170310 0.079606 0.355621 -0.078503
C53   C     C_R   0.893204 0.802396 0.604011 -0.109217
C54   C     C_R   0.829685 0.079611 0.644376 -0.078498
C55   C     C_R   0.106798 0.197605 0.604008 -0.109331
C56   C     C_R   0.170316 0.920398 0.644375 -0.078567
C57   C     C_R   0.364642 0.361757 0.811818 0.072081
C58   C     C_R   0.424793 0.668234 0.144834 -0.130487
C59   C     C_R   0.683748 0.317576 0.879157 0.122827
C60   C     C_R   0.635358 0.638245 0.811821 0.072084
C61   C     C_R   0.316250 0.682433 0.879159 0.122736
C62   C     C_R   0.364636 0.638249 0.188176 0.072087
C63   C     C_R   0.683750 0.682433 0.120844 0.122735
C64   C     C_R   0.635363 0.361753 0.188178 0.072085
C65   C     C_R   0.316250 0.317575 0.120844 0.122819
C66   C     C_R   0.864644 0.861757 0.311817 0.072048
C67   C     C_R   0.183753 0.817565 0.379169 0.122716
C68   C     C_R   0.135351 0.138260 0.311827 0.071999
C69   C     C_R   0.697334 0.605556 0.102255 -0.048301
C70   C     C_R   0.816244 0.182437 0.379175 0.122669
C71   C     C_R   0.864643 0.138267 0.688167 0.071997
C72   C     C_R   0.183756 0.182438 0.620827 0.122666
C73   C     C_R   0.135362 0.861750 0.688177 0.072049
C74   C     C_R   0.816247 0.817565 0.620833 0.122714
C75   C     C_R   0.815317 0.289934 0.830091 -0.042334
C76   C     C_R   0.635737 0.743494 0.712744 0.070290
C77   C     C_R   0.184622 0.710164 0.830225 -0.042348
C78   C     C_R   0.364267 0.256510 0.712741 0.070356
C79   C     C_R   0.815385 0.710171 0.169767 -0.042354
C80   C     C_R   0.575206 0.331768 0.144835 -0.130441
C81   C     C_R   0.635734 0.256514 0.287268 0.070349
C82   C     C_R   0.184672 0.289920 0.169891 -0.042345
C83   C     C_R   0.364260 0.743492 0.287260 0.070285
C84   C     C_R   0.315386 0.789820 0.330255 -0.042312
C85   C     C_R   0.135781 0.243605 0.212876 0.070178
C86   C     C_R   0.684608 0.210185 0.330264 -0.042255
C87   C     C_R   0.864267 0.756502 0.212751 0.070235
C88   C     C_R   0.315391 0.210181 0.669746 -0.042252
C89   C     C_R   0.135741 0.756491 0.787238 0.070231
C90   C     C_R   0.684613 0.789821 0.669751 -0.042311
C91   C     C_R   0.302668 0.394451 0.102258 -0.048432
C92   C     C_R   0.864209 0.243622 0.787106 0.070173
C93   C     C_R   0.743174 0.262463 0.854947 0.077695
C94   C     C_R   0.661374 0.669834 0.737913 0.035927
C95   C     C_R   0.256829 0.737574 0.854978 0.077673
C96   C     C_R   0.338629 0.330169 0.737908 0.035873
C97   C     C_R   0.743173 0.737578 0.145021 0.077670
C98   C     C_R   0.661377 0.330170 0.262091 0.035880
C99   C     C_R   0.256823 0.262457 0.145048 0.077690
C100  C     C_R   0.338620 0.669834 0.262085 0.035931
C101  C     C_R   0.243173 0.762420 0.354991 0.077653
C102  C     C_R   0.924798 0.831773 0.355164 -0.130491
C103  C     C_R   0.161360 0.169890 0.237938 0.035869
C104  C     C_R   0.756822 0.237583 0.355001 0.077603
C105  C     C_R   0.838634 0.830166 0.237907 0.035905
C106  C     C_R   0.243179 0.237583 0.645002 0.077606
C107  C     C_R   0.161372 0.830158 0.762086 0.035903
C108  C     C_R   0.756826 0.762420 0.645011 0.077656
C109  C     C_R   0.838635 0.169901 0.762053 0.035865
C110  C     C_R   0.227476 0.682087 0.347446 -0.120782
C111  C     C_R   0.224685 0.135767 0.199194 -0.099168
C112  C     C_R   0.772520 0.317916 0.347457 -0.120763
Cl1   Cl    Cl    0.994465 0.332250 0.768903 -0.620644
Cl2   Cl    Cl    0.233055 0.404677 0.271785 -0.660833
Cl3   Cl    Cl    0.505268 0.168145 0.269410 -0.620231
Cl4   Cl    Cl    0.767324 0.595176 0.271578 -0.661057
Cl5   Cl    Cl    0.494721 0.168118 0.730630 -0.620227
Cl6   Cl    Cl    0.232704 0.595189 0.728410 -0.661050
Cl7   Cl    Cl    0.505283 0.831886 0.730628 -0.620360
Cl8   Cl    Cl    0.766895 0.404654 0.728185 -0.660807
Cl9   Cl    Cl    0.732656 0.904845 0.771533 -0.661252
Cl10  Cl    Cl    0.005305 0.668067 0.769324 -0.620454
Cl11  Cl    Cl    0.267348 0.095161 0.771528 -0.661339
Cl12  Cl    Cl    0.994715 0.668091 0.230650 -0.620448
Cl13  Cl    Cl    0.732614 0.095147 0.228502 -0.661386
Cl14  Cl    Cl    0.005504 0.332208 0.231048 -0.620637
Cl15  Cl    Cl    0.267370 0.904854 0.228491 -0.661295
Cl16  Cl    Cl    0.494721 0.831867 0.269399 -0.620363
H1    H     H_    0.466932 0.289137 0.837885 0.153549
H2    H     H_    0.253076 0.922222 0.405104 0.093009
H3    H     H_    0.033077 0.210888 0.337904 0.153689
H4    H     H_    0.746923 0.077781 0.405111 0.093007
H5    H     H_    0.966918 0.210897 0.662089 0.153701
H6    H     H_    0.253077 0.077781 0.594894 0.092993
H7    H     H_    0.033074 0.789127 0.662106 0.153537
H8    H     H_    0.746925 0.922222 0.594901 0.093000
H9    H     H_    0.883607 0.313544 0.681274 0.132479
H10   H     H_    0.631494 0.906212 0.670303 0.144776
H11   H     H_    0.116099 0.686429 0.681528 0.132415
H12   H     H_    0.753072 0.422233 0.905079 0.092789
H13   H     H_    0.368509 0.093790 0.670302 0.144783
H14   H     H_    0.883923 0.686431 0.318456 0.132412
H15   H     H_    0.631477 0.093807 0.329737 0.144783
H16   H     H_    0.116358 0.313543 0.318695 0.132473
H17   H     H_    0.368513 0.906199 0.329725 0.144775
H18   H     H_    0.383936 0.813585 0.181584 0.132389
H19   H     H_    0.131764 0.406405 0.170705 0.144702
H20   H     H_    0.616049 0.186417 0.181594 0.132373
H21   H     H_    0.868489 0.593766 0.170344 0.144743
H22   H     H_    0.383926 0.186425 0.818433 0.132376
H23   H     H_    0.533070 0.710867 0.837886 0.153549
H24   H     H_    0.131534 0.593753 0.829632 0.144744
H25   H     H_    0.616079 0.813578 0.818435 0.132392
H26   H     H_    0.868197 0.406430 0.829246 0.144700
H27   H     H_    0.420374 0.754416 0.899535 0.119011
H28   H     H_    0.281056 0.456666 0.839644 0.138085
H29   H     H_    0.579633 0.245581 0.899527 0.119004
H30   H     H_    0.718943 0.543333 0.839647 0.137877
H31   H     H_    0.420365 0.245582 0.100473 0.118990
H32   H     H_    0.281055 0.543333 0.160350 0.137901
H33   H     H_    0.579627 0.754415 0.100468 0.119001
H34   H     H_    0.246926 0.577777 0.905092 0.092943
H35   H     H_    0.718947 0.456666 0.160352 0.138092
H36   H     H_    0.920372 0.254417 0.399546 0.119179
H37   H     H_    0.781059 0.956668 0.339641 0.138176
H38   H     H_    0.079627 0.745584 0.399541 0.119043
H39   H     H_    0.218944 0.043349 0.339636 0.138194
H40   H     H_    0.920372 0.745584 0.600460 0.119048
H41   H     H_    0.781050 0.043354 0.660360 0.138177
H42   H     H_    0.079629 0.254417 0.600455 0.119191
H43   H     H_    0.218946 0.956664 0.660355 0.138150
H44   H     H_    0.174521 0.656866 0.369760 0.152235
H45   H     H_    0.466926 0.710873 0.162111 0.153535
H46   H     H_    0.243164 0.076863 0.212228 0.187269
H47   H     H_    0.825476 0.343136 0.369772 0.152326
H48   H     H_    0.756724 0.923141 0.212313 0.187255
H49   H     H_    0.174533 0.343138 0.630217 0.152329
H50   H     H_    0.243275 0.923135 0.787684 0.187242
H51   H     H_    0.825473 0.656865 0.630232 0.152234
H52   H     H_    0.756843 0.076867 0.787776 0.187262
H53   H     H_    0.674644 0.156859 0.869892 0.152177
H54   H     H_    0.743290 0.576863 0.712336 0.187093
H55   H     H_    0.325465 0.843135 0.869782 0.152222
H56   H     H_    0.753073 0.577778 0.094911 0.092954
H57   H     H_    0.256715 0.423140 0.712325 0.187237
H58   H     H_    0.674531 0.843137 0.130221 0.152219
H59   H     H_    0.743299 0.423140 0.287662 0.187242
H60   H     H_    0.325364 0.156858 0.130116 0.152173
H61   H     H_    0.256700 0.576862 0.287655 0.187108
H62   H     H_    0.533072 0.289131 0.162111 0.153530
H63   H     H_    0.246928 0.422232 0.094921 0.092808
H64   H     H_    0.966931 0.789136 0.337887 0.153531
N1    N     N_R   0.425360 0.368540 0.922560 -0.050036
N2    N     N_R   0.131460 0.925360 0.422560 -0.051248
N3    N     N_R   0.074640 0.131460 0.422560 -0.050000
N4    N     N_R   0.868540 0.074640 0.422560 -0.051249
N5    N     N_R   0.925360 0.131460 0.577440 -0.050000
N6    N     N_R   0.131460 0.074640 0.577440 -0.051245
N7    N     N_R   0.074640 0.868540 0.577440 -0.050008
N8    N     N_R   0.868540 0.925360 0.577440 -0.051245
N9    N     N_R   0.425340 0.631500 0.922560 -0.049078
N10   N     N_R   0.368500 0.425340 0.922560 -0.054409
N11   N     N_R   0.574660 0.368500 0.922560 -0.049083
N12   N     N_R   0.631460 0.425360 0.922560 -0.051180
N13   N     N_R   0.631500 0.574660 0.922560 -0.054414
N14   N     N_R   0.425340 0.368500 0.077440 -0.049084
N15   N     N_R   0.368500 0.574660 0.077440 -0.054414
N16   N     N_R   0.574660 0.631500 0.077440 -0.049078
N17   N     N_R   0.631500 0.425340 0.077440 -0.054408
N18   N     N_R   0.925340 0.131500 0.422560 -0.049078
N19   N     N_R   0.868500 0.925340 0.422560 -0.054417
N20   N     N_R   0.074660 0.868500 0.422560 -0.049087
N21   N     N_R   0.131500 0.074660 0.422560 -0.054418
N22   N     N_R   0.925340 0.868500 0.577440 -0.049086
N23   N     N_R   0.574640 0.631460 0.922560 -0.050025
N24   N     N_R   0.868500 0.074660 0.577440 -0.054417
N25   N     N_R   0.074660 0.131500 0.577440 -0.049076
N26   N     N_R   0.131500 0.925340 0.577440 -0.054417
N27   N     N_R   0.368540 0.574640 0.922560 -0.051221
N28   N     N_R   0.425360 0.631460 0.077440 -0.050024
N29   N     N_R   0.631460 0.574640 0.077440 -0.051226
N30   N     N_R   0.574640 0.368540 0.077440 -0.050035
N31   N     N_R   0.368540 0.425360 0.077440 -0.051187
N32   N     N_R   0.925360 0.868540 0.422560 -0.050008
Ni1   Ni    Ni4+2 0.500000 0.369720 0.000000 0.230708
Ni2   Ni    Ni4+2 0.630280 0.500000 0.000000 0.230656
Ni3   Ni    Ni4+2 0.500000 0.630280 0.000000 0.230716
Ni4   Ni    Ni4+2 0.369720 0.500000 0.000000 0.230655
Ni5   Ni    Ni4+2 1.000000 0.869720 0.500000 0.230715
Ni6   Ni    Ni4+2 0.130280 0.000000 0.500000 0.230654
Ni7   Ni    Ni4+2 0.000000 0.130280 0.500000 0.230752
Ni8   Ni    Ni4+2 0.869720 0.000000 0.500000 0.230654

loop_
_geom_bond_atom_site_label_1
_geom_bond_atom_site_label_2
_ccdc_geom_bond_type
C8    H53   S    
C58   C62   A    
N11   N12   A    
C53   N22   A    
C10   H55   S    
C6    H51   S    
C43   N13   A    
C111  H46   S    
C82   C99   A    
C66   C102  A    
C23   H10   S    
C1    N1    A    
C53   C74   A    
C68   C103  S    
C4    H49   S    
C25   N12   A    
C86   C104  A    
C24   C89   S    
C26   Cl11  S    
C6    C9    A    
C56   N26   A    
C42   N11   A    
C102  N32   A    
C7    C8    A    
C55   N25   A    
C32   H19   S    
C38   C76   S    
C3    C105  A    
C19   H6    S    
C54   N24   A    
C45   H32   S    
C22   H9    S    
C67   C101  S    
N15   N28   A    
C66   C105  S    
C29   C32   S    
C1    H1    S    
C52   H39   S    
C63   C69   A    
C30   C31   S    
C70   C104  S    
C92   C109  A    
C73   C107  S    
C41   C57   A    
C81   C98   A    
C22   C39   S    
C34   Cl4   S    
C39   Cl8   S    
C71   C109  S    
C45   C62   A    
C27   H14   S    
C31   C83   S    
C18   H5    S    
C103  C111  A    
C11   C96   A    
N2    Ni6   S    
N26   Ni6   S    
C49   H36   S    
C3    C12   A    
C76   C94   A    
C33   C81   S    
C47   H34   S    
C58   N28   A    
C51   N20   A    
C22   Cl1   S    
C37   Cl6   S    
N4    Ni8   S    
C78   C96   A    
C46   H33   S    
C49   N18   A    
C20   C73   A    
C15   H60   S    
N8    N22   A    
N18   Ni7   S    
C40   H27   S    
C9    H54   S    
C35   H22   S    
C39   C75   S    
N27   Ni4   S    
C26   H13   S    
C55   H42   S    
C29   C85   S    
C81   C86   A    
C52   C68   A    
C41   H28   S    
N4    N18   A    
C43   H30   S    
C64   C98   S    
C17   C70   A    
C27   C34   S    
C29   Cl14  S    
C17   H4    S    
C30   C84   S    
C84   C101  A    
C64   C80   A    
C54   H41   S    
C44   C65   A    
C51   H38   S    
N7    N26   A    
N17   N30   A    
C31   Cl16  S    
C50   H37   S    
C47   N27   A    
C79   C87   A    
C36   N23   A    
C90   C108  A    
C34   H21   S    
C14   C98   A    
N5    Ni7   S    
C24   H11   S    
C110  H44   S    
C18   N5    A    
C33   Cl3   S    
N19   Ni8   S    
C54   C71   A    
C39   H26   S    
C16   C110  A    
C15   C111  A    
C25   H12   S    
C19   C72   A    
C65   C99   S    
C23   Cl9   S    
C2    C67   A    
N15   Ni4   S    
C48   H35   S    
N31   Ni4   S    
C16   C100  A    
N10   Ni4   S    
N30   Ni1   S    
N16   N29   A    
C29   H16   S    
C4    C106  A    
N29   Ni2   S    
C77   C95   A    
C40   C61   A    
C7    C109  A    
N28   Ni3   S    
C2    N2    A    
C14   C112  A    
C20   N7    A    
C46   N16   A    
C33   H20   S    
C1    C57   A    
C34   C79   S    
C88   C106  A    
C3    H48   S    
C53   H40   S    
C102  H64   S    
C83   C84   A    
C87   C105  A    
N14   N31   A    
C12   H58   S    
C89   C107  A    
N14   Ni1   S    
C44   N14   A    
C24   C37   S    
C13   H3    S    
C23   C90   S    
N3    Ni7   S    
N13   Ni2   S    
C28   H15   S    
N9    Ni3   S    
C40   N9    A    
C4    C11   A    
C27   C87   S    
C50   C66   A    
N20   Ni5   S    
N9    N27   A    
C12   C97   A    
N5    N24   A    
C43   C60   A    
C62   C100  S    
C38   Cl7   S    
C75   C92   A    
C26   C88   S    
C72   C106  S    
C28   C33   S    
C49   C70   A    
C56   H43   S    
C28   C86   S    
C35   Cl5   S    
N6    N25   A    
N17   Ni2   S    
C37   H24   S    
C91   N31   A    
C23   C38   S    
N6    Ni6   S    
N11   Ni1   S    
C28   Cl13  S    
C75   C93   A    
C30   H17   S    
C104  C112  A    
C5    C107  A    
C78   C88   A    
C18   C71   A    
C65   C91   A    
C37   C77   S    
C30   Cl15  S    
C19   N6    A    
C6    C108  A    
C56   C73   A    
C21   H8    S    
C11   H57   S    
C80   H62   S    
C79   C97   A    
C74   C108  S    
C8    C93   A    
C55   C72   A    
C15   C99   A    
C36   C60   A    
C85   C103  A    
C42   C59   A    
C47   C61   A    
C27   Cl12  S    
C61   C95   S    
C36   H23   S    
C77   C89   A    
C82   C85   A    
C32   C82   S    
C24   Cl10  S    
C45   N15   A    
C35   C78   S    
C38   H25   S    
C46   C63   A    
C83   C100  A    
C59   C93   S    
C101  C110  A    
N1    Ni1   S    
C5    C10   A    
N16   Ni3   S    
N32   Ni5   S    
N25   Ni7   S    
C14   H59   S    
N22   Ni5   S    
C51   C67   A    
C91   H63   S    
C10   C95   A    
C57   C96   S    
N19   N32   A    
C21   C74   A    
C21   N8    A    
C52   N21   A    
C2    H2    S    
C7    H52   S    
N23   Ni3   S    
C20   H7    S    
N7    Ni5   S    
C5    H50   S    
N3    N21   A    
N2    N20   A    
C48   C64   A    
C16   H61   S    
N1    N10   A    
C69   H56   S    
C80   N30   A    
C58   H45   S    
C26   C35   S    
C112  H47   S    
C48   N17   A    
N13   N23   A    
C9    C94   A    
C63   C97   S    
C13   N3    A    
C31   H18   S    
C44   H31   S    
C22   C92   S    
N24   Ni8   S    
C17   N4    A    
C25   C59   A    
N8    Ni8   S    
C69   N29   A    
C32   Cl2   S    
C41   N10   A    
C50   N19   A    
N12   Ni2   S    
C42   H29   S    
N21   Ni6   S    
C76   C90   A    
C13   C68   A    
C60   C94   S    
