data_mof_unit_52355.cif
_audit_creation_date              2012-12-10T18:50:51-0500
_audit_creation_method            fapswitch 2.2
_symmetry_space_group_name_H-M    P1
_symmetry_Int_Tables_number       1
_space_group_crystal_system       triclinic
_cell_length_a                    10.536609
_cell_length_b                    9.867025
_cell_length_c                    15.764899
_cell_angle_alpha                 90.186467
_cell_angle_beta                  91.206372
_cell_angle_gamma                 89.953913
_cell_volume                      1638.62507055

loop_
_atom_site_label
_atom_site_type_symbol
_atom_type_description
_atom_site_fract_x
_atom_site_fract_y
_atom_site_fract_z
_atom_type_partial_charge
C1    C     C_R   0.258349 0.499909 0.496901 0.894420
C2    C     C_R   0.932971 0.620102 0.441797 0.148509
C3    C     C_R   0.866151 0.497425 0.452576 -0.160985
C4    C     C_R   0.124083 0.499019 0.479450 -0.120685
C5    C     C_R   0.574203 0.072490 0.556905 -0.027727
C6    C     C_R   0.572016 0.928262 0.558186 -0.009692
C7    C     C_R   0.499890 0.499825 0.338468 0.884340
C8    C     C_R   0.426144 0.927699 0.442756 -0.011541
C9    C     C_R   0.425488 0.072018 0.443178 -0.012925
C10   C     C_R   0.735698 0.499558 0.481380 0.868481
C11   C     C_R   0.500491 0.500243 0.661545 0.936173
C12   C     C_3   0.649630 0.571324 0.951078 0.231377
C13   C     C_3   0.407065 0.599786 0.048990 -0.242444
C14   C     C_3   0.488443 0.358358 0.049185 -0.246691
C15   C     C_3   0.482855 0.360538 0.950771 -0.202946
C16   C     C_3   0.400117 0.594722 0.949834 -0.261444
C17   C     C_1   0.504923 0.501292 0.750035 -0.173371
C18   C     C_3   0.517811 0.505031 0.083531 0.082294
C19   C     C_3   0.515503 0.507540 0.916676 0.145868
C20   C     C_1   0.347623 0.854638 0.382074 0.229949
C21   C     C_1   0.346317 0.145174 0.383164 0.227740
C22   C     C_1   0.570720 0.250091 0.085410 0.230304
C23   C     C_3   0.652646 0.557242 0.053333 -0.027049
C24   C     C_1   0.410323 0.739114 0.084498 0.224455
C25   C     C_1   0.535999 0.240314 0.907856 0.206380
C26   C     C_1   0.376173 0.726269 0.906960 0.165672
C27   C     C_1   0.684728 0.685732 0.098412 0.153071
C28   C     C_1   0.755596 0.467055 0.084868 0.158981
C29   C     C_3   0.653949 0.727453 0.923835 -0.400369
C30   C     C_3   0.783571 0.800292 0.926673 -0.858717
C31   C     C_3   0.771173 0.509288 0.906672 -0.367151
C32   C     C_3   0.792405 0.356780 0.900491 -0.832263
C33   C     C_3   0.871895 0.239070 0.423140 -0.399258
C34   C     C_1   0.509770 0.503747 0.825068 -0.063311
C35   C     C_3   0.945046 0.166777 0.353344 -0.851493
C36   C     C_3   0.872622 0.748580 0.407261 -0.369081
C37   C     C_3   0.877736 0.863268 0.472376 -0.843872
C38   C     C_1   0.656103 0.145971 0.615358 0.243031
C39   C     C_1   0.644508 0.856080 0.622275 0.242092
C40   C     C_1   0.511351 0.501432 0.175348 -0.049954
C41   C     C_1   0.505450 0.499798 0.250184 -0.141127
C42   C     C_R   0.060906 0.375247 0.470809 -0.174088
C43   C     C_R   0.062402 0.619953 0.458572 -0.185730
C44   C     C_R   0.932874 0.372967 0.449390 0.160659
H1    H     H_    0.310178 0.540969 0.932882 0.138512
H2    H     H_    0.618146 0.738580 0.857455 0.230761
H3    H     H_    0.591036 0.789339 0.963781 0.234729
H4    H     H_    0.895371 0.336477 0.893328 0.241930
H5    H     H_    0.762302 0.301833 0.957503 0.277218
H6    H     H_    0.745612 0.317367 0.841882 0.273624
H7    H     H_    0.774971 0.547020 0.840283 0.220475
H8    H     H_    0.857439 0.549813 0.939590 0.217762
H9    H     H_    0.964136 0.237515 0.300426 0.282991
H10   H     H_    0.035940 0.125156 0.378705 0.255821
H11   H     H_    0.887842 0.080714 0.327910 0.260965
H12   H     H_    0.381146 0.341740 0.934023 0.125977
H13   H     H_    0.866057 0.172443 0.479514 0.210627
H14   H     H_    0.775059 0.254690 0.396009 0.238179
H15   H     H_    0.859022 0.824371 0.536691 0.276910
H16   H     H_    0.972922 0.911548 0.473483 0.244336
H17   H     H_    0.805370 0.940784 0.455374 0.245943
H18   H     H_    0.924576 0.780860 0.350088 0.204509
H19   H     H_    0.773384 0.731642 0.384844 0.224305
H20   H     H_    0.315972 0.557253 0.071803 0.143930
H21   H     H_    0.391767 0.330713 0.070874 0.143773
H22   H     H_    0.111513 0.280390 0.478591 0.171652
H23   H     H_    0.114518 0.714211 0.454908 0.176713
H24   H     H_    0.839486 0.777254 0.985116 0.263808
H25   H     H_    0.840536 0.772235 0.870820 0.252495
H26   H     H_    0.768212 0.911619 0.924016 0.275808
N1    N     N_R   0.499970 0.857200 0.499980 -0.122801
N2    N     N_1   0.836940 0.398407 0.110405 -0.202018
N3    N     N_1   0.722328 0.204072 0.662323 -0.209870
N4    N     N_1   0.702961 0.799404 0.674090 -0.223002
N5    N     N_R   0.499970 0.142800 0.499980 -0.126687
N6    N     N_1   0.284453 0.797190 0.332955 -0.213385
N7    N     N_1   0.282792 0.203106 0.334674 -0.213111
N8    N     N_1   0.633962 0.164830 0.113731 -0.171945
N9    N     N_1   0.412052 0.847867 0.112263 -0.174846
N10   N     N_1   0.574093 0.144151 0.874587 -0.198092
N11   N     N_1   0.356819 0.828635 0.873406 -0.188682
N12   N     N_1   0.710034 0.785061 0.134278 -0.184222
O1    O     O_R   0.316750 0.614620 0.499990 -0.622001
O2    O     O_R   0.316750 0.385380 0.499990 -0.622151
O3    O     O_R   0.499990 0.614720 0.377140 -0.620871
O4    O     O_R   0.499990 0.385280 0.377140 -0.620753
O5    O     O_R   0.683220 0.614710 0.500000 -0.603119
O6    O     O_R   0.683220 0.385290 0.500000 -0.628856
O7    O     O_R   0.499980 0.614620 0.622860 -0.604169
O8    O     O_R   0.499980 0.385380 0.622860 -0.603121
Zn1   Zn    Zn3+2 0.499980 0.653120 0.500000 0.963703
Zn2   Zn    Zn3+2 0.499980 0.346880 0.500000 0.956362

loop_
_geom_bond_atom_site_label_1
_geom_bond_atom_site_label_2
_ccdc_geom_bond_type
C33   H14   S    
O5    Zn1   S    
C12   C29   S    
C35   H9    S    
C25   N10   T    
C14   C18   S    
C31   H8    S    
O3    Zn1   S    
C1    O2    A    
C15   C19   S    
C12   C23   S    
C10   O6    A    
C8    C20   S    
C13   C18   S    
C29   H3    S    
C36   C37   S    
C5    C6    A    
C15   C25   S    
C7    O4    A    
C20   N6    T    
C39   N4    T    
C18   C40   S    
O6    Zn2   S    
C8    C9    A    
C23   C27   S    
O7    Zn1   S    
C36   H19   S    
C5    C38   S    
C35   H10   S    
C32   H4    S    
C28   N2    T    
C42   C44   A    
C36   H18   S    
C30   H26   S    
C16   C26   S    
C6    N1    A    
C3    C44   A    
C10   O5    A    
C9    N5    A    
C35   H11   S    
C18   C23   S    
C22   N8    T    
C13   C24   S    
C5    N5    A    
C29   C30   S    
C11   O7    A    
C24   N9    T    
O8    Zn2   S    
C31   C32   S    
C2    C43   A    
C23   C28   S    
C32   H6    S    
C37   H15   S    
N5    Zn2   S    
C40   C41   T    
C26   N11   T    
C12   C31   S    
C17   C34   T    
C30   H25   S    
C2    C36   S    
C11   C17   S    
C8    N1    A    
C33   H13   S    
C14   C15   S    
C33   C44   S    
C27   N12   T    
C31   H7    S    
C19   C34   S    
C16   H1    S    
C37   H17   S    
C4    C43   A    
C1    O1    A    
O1    Zn1   S    
C29   H2    S    
C1    C4    S    
C15   H12   S    
C14   C22   S    
C2    C3    A    
C3    C10   S    
O4    Zn2   S    
C11   O8    A    
C9    C21   S    
C7    O3    A    
C13   H20   S    
C4    C42   A    
C16   C19   S    
C12   C19   S    
C33   C35   S    
C14   H21   S    
C7    C41   S    
C32   H5    S    
C37   H16   S    
N1    Zn1   S    
C43   H23   S    
C13   C16   S    
C21   N7    T    
C42   H22   S    
C6    C39   S    
O2    Zn2   S    
C30   H24   S    
C38   N3    T    
