data_mof_unit_41440.cif
_audit_creation_date              2012-12-10T20:39:57-0500
_audit_creation_method            fapswitch 2.2
_symmetry_space_group_name_H-M    P1
_symmetry_Int_Tables_number       1
_space_group_crystal_system       triclinic
_cell_length_a                    23.469465
_cell_length_b                    10.645251
_cell_length_c                    9.848717
_cell_angle_alpha                 89.816938
_cell_angle_beta                  90.063204
_cell_angle_gamma                 89.588098
_cell_volume                      2460.50945996

loop_
_atom_site_label
_atom_site_type_symbol
_atom_type_description
_atom_site_fract_x
_atom_site_fract_y
_atom_site_fract_z
_atom_type_partial_charge
C1    C     C_R   0.502640 0.259976 0.500440 0.883781
C2    C     C_R   0.967890 0.285321 0.580683 -0.149855
C3    C     C_R   0.027127 0.279061 0.583221 0.175021
C4    C     C_R   0.058973 0.386570 0.543783 -0.021629
C5    C     C_R   0.029979 0.497329 0.498508 -0.092881
C6    C     C_R   0.061028 0.603249 0.453013 -0.034788
C7    C     C_R   0.031893 0.717744 0.421518 0.132389
C8    C     C_R   0.971659 0.720046 0.418867 -0.025356
C9    C     C_R   0.118854 0.388574 0.547899 0.523986
C10   C     C_R   0.120622 0.589885 0.440919 0.522854
C11   C     C_R   0.236648 0.569272 0.577752 -0.151417
C12   C     C_R   0.389544 0.496578 0.500211 0.891972
C13   C     C_R   0.295595 0.572637 0.581106 -0.080175
C14   C     C_R   0.327494 0.487774 0.501184 -0.107112
C15   C     C_R   0.299315 0.394681 0.423381 0.098812
C16   C     C_R   0.239423 0.397387 0.415919 0.039653
C17   C     C_R   0.208565 0.484398 0.494255 0.218053
C18   C     C_R   0.761923 0.506387 0.623019 -0.096762
C19   C     C_R   0.702801 0.505001 0.623326 -0.210297
C20   C     C_R   0.672803 0.501772 0.499977 -0.037533
C21   C     C_R   0.702668 0.500300 0.376510 -0.216380
C22   C     C_R   0.761785 0.501543 0.376593 -0.095186
C23   C     C_R   0.503790 0.740085 0.499364 0.901585
C24   C     C_R   0.791316 0.504444 0.499746 0.320392
C25   C     C_R   0.511410 0.063367 0.624186 0.107128
C26   C     C_R   0.514708 0.129310 0.502643 -0.170247
C27   C     C_R   0.532832 0.068080 0.384598 -0.199278
C28   C     C_R   0.534489 0.937329 0.381401 0.166715
C29   C     C_R   0.516228 0.871370 0.499257 -0.129411
C30   C     C_R   0.511669 0.935420 0.622057 0.066598
C31   C     C_3   0.468150 0.926882 0.732670 -0.483961
C32   C     C_3   0.467997 0.069590 0.735095 -0.214489
C33   C     C_R   0.450387 0.515120 0.071016 0.220892
C34   C     C_R   0.610671 0.500367 0.500005 0.869141
C35   C     C_R   0.549682 0.494170 0.072050 -0.124143
C36   C     C_R   0.549681 0.494115 0.928214 -0.114685
C37   C     C_R   0.450383 0.515444 0.928269 0.225740
C38   C     C_3   0.399837 0.431788 0.922123 -0.481274
C39   C     C_3   0.400136 0.430572 0.076013 -0.500451
C40   C     C_R   0.879949 0.609878 0.460108 0.509231
C41   C     C_R   0.879943 0.397867 0.539117 0.515989
C42   C     C_R   0.939280 0.394621 0.540323 -0.045192
C43   C     C_R   0.969917 0.501792 0.499245 -0.028726
C44   C     C_R   0.940314 0.612072 0.457991 -0.095024
H1    H     H_    0.943792 0.203308 0.610668 0.197562
H2    H     H_    0.680728 0.506464 0.719798 0.153094
H3    H     H_    0.680498 0.497908 0.280093 0.152443
H4    H     H_    0.784756 0.499729 0.281302 0.140388
H5    H     H_    0.541914 0.121146 0.293089 0.184290
H6    H     H_    0.427318 0.887862 0.695636 0.214388
H7    H     H_    0.485593 0.880804 0.825589 0.210078
H8    H     H_    0.426952 0.113595 0.703312 0.152042
H9    H     H_    0.589713 0.487479 0.125886 0.148395
H10   H     H_    0.589708 0.487270 0.874623 0.148929
H11   H     H_    0.361896 0.480301 0.878627 0.216987
H12   H     H_    0.409755 0.338842 0.876388 0.214079
H13   H     H_    0.362235 0.477859 0.120859 0.220420
H14   H     H_    0.410927 0.336957 0.119766 0.223091
H15   H     H_    0.211925 0.634086 0.639228 0.156659
H16   H     H_    0.785007 0.508796 0.718240 0.140128
N1    N     N_R   0.851965 0.504090 0.499631 -0.354594
N2    N     N_R   0.147648 0.486640 0.492441 -0.347550
N3    N     N_R   0.499610 0.499140 0.142800 -0.108860
N4    N     N_R   0.499610 0.499180 0.857150 -0.110276
O1    O     O_R   0.500010 0.316790 0.614690 -0.613068
O2    O     O_2   0.850080 0.295359 0.576311 -0.551522
O3    O     O_2   0.148788 0.294847 0.607386 -0.564843
O4    O     O_2   0.151930 0.677137 0.376003 -0.560677
O5    O     O_R   0.500000 0.316760 0.385350 -0.620257
O6    O     O_R   0.416160 0.499980 0.614700 -0.616611
O7    O     O_R   0.416150 0.499940 0.385360 -0.608885
O8    O     O_R   0.500000 0.683240 0.614650 -0.610242
O9    O     O_R   0.499990 0.683210 0.385310 -0.614482
O10   O     O_R   0.583850 0.500060 0.614640 -0.630560
O11   O     O_R   0.583840 0.500020 0.385300 -0.635057
O12   O     O_2   0.848883 0.711943 0.424739 -0.547182
Zn1   Zn    Zn3+2 0.500000 0.500020 0.653130 0.958688
Zn2   Zn    Zn3+2 0.500000 0.499980 0.346870 0.946995
C45   C     C_3   0.552564 0.874163 0.251102 -0.824864
H17   H     H_    0.584609 0.799506 0.272996 0.244289
H18   H     H_    0.515028 0.833773 0.198800 0.251239
H19   H     H_    0.572563 0.941745 0.179709 0.228798
C46   C     C_1   0.491752 0.121850 0.861048 0.242203
N5    N     N_1   0.510367 0.163028 0.960121 -0.223193
C47   C     C_3   0.053868 0.154667 0.623688 -0.781534
H20   H     H_    0.082805 0.121001 0.542215 0.261962
H21   H     H_    0.077317 0.164575 0.720942 0.276238
H22   H     H_    0.021583 0.080194 0.639388 0.207393
C48   C     C_3   0.064545 0.839355 0.398929 -0.777232
H23   H     H_    0.084373 0.839303 0.296671 0.277189
H24   H     H_    0.037863 0.925275 0.406334 0.206319
H25   H     H_    0.097426 0.850534 0.479078 0.258968
C49   C     C_1   0.942905 0.833590 0.372257 0.288126
N6    N     N_1   0.920271 0.924372 0.334997 -0.153744
C50   C     C_1   0.321957 0.664450 0.668177 0.185182
N7    N     N_1   0.342669 0.737617 0.738994 -0.221044
C51   C     C_3   0.331132 0.287281 0.355863 -0.889287
H26   H     H_    0.377530 0.286471 0.375705 0.244726
H27   H     H_    0.314688 0.196689 0.395338 0.248183
H28   H     H_    0.323845 0.290328 0.244654 0.244620
C52   C     C_1   0.209255 0.311394 0.328115 0.221938
N8    N     N_1   0.185120 0.242742 0.258055 -0.184137

loop_
_geom_bond_atom_site_label_1
_geom_bond_atom_site_label_2
_ccdc_geom_bond_type
C22   H4    S    
C24   N1    S    
C35   H9    S    
C41   C42   A    
C50   N7    T    
C41   N1    A    
C51   H28   S    
C51   H26   S    
C19   H2    S    
C7    C8    A    
C47   H20   S    
C26   C27   A    
C49   N6    T    
C13   C50   S    
C46   N5    T    
C18   C24   A    
C5    C6    A    
C23   C29   S    
C28   C29   A    
C37   C38   S    
C15   C51   S    
C30   C31   S    
C3    C47   S    
C15   C16   A    
C39   H13   S    
C18   C19   A    
N4    Zn1   S    
C28   C45   S    
C32   H8    S    
O8    Zn1   S    
C38   H11   S    
C19   C20   A    
C16   C17   A    
O10   Zn1   S    
C1    O1    A    
O9    Zn2   S    
C13   C14   A    
C48   H24   S    
C34   O11   A    
C20   C34   S    
C25   C32   S    
C5    C43   A    
C21   C22   A    
O6    Zn1   S    
O5    Zn2   S    
C10   N2    A    
C23   O9    A    
C11   H15   S    
C51   H27   S    
C47   H21   S    
C2    H1    S    
O1    Zn1   S    
C9    N2    A    
C52   N8    T    
C45   H18   S    
C25   C26   A    
C39   H14   S    
C1    O5    A    
C40   N1    A    
C40   O12   S    
C35   C36   A    
C43   C44   A    
C9    O3    S    
C29   C30   A    
C17   N2    S    
C31   C32   S    
C33   N3    A    
C33   C39   S    
C48   H25   S    
C6    C7    A    
C34   O10   A    
C18   H16   S    
C12   O7    A    
C12   C14   S    
C1    C26   S    
C22   C24   A    
C42   C43   A    
C31   H6    S    
C3    C4    A    
C37   N4    A    
C47   H22   S    
C25   C30   A    
C32   C46   S    
C12   O6    A    
C11   C17   A    
C23   O8    A    
C8    C49   S    
C8    C44   A    
C31   H7    S    
C4    C5    A    
C6    C10   A    
C45   H19   S    
C41   O2    S    
C10   O4    S    
C2    C3    A    
C4    C9    A    
C11   C13   A    
C38   C39   S    
C2    C42   A    
O11   Zn2   S    
C33   C37   A    
C36   H10   S    
C45   H17   S    
C16   C52   S    
C40   C44   A    
C38   H12   S    
C20   C21   A    
C27   C28   A    
C14   C15   A    
C35   N3    A    
C48   H23   S    
C36   N4    A    
O7    Zn2   S    
C27   H5    S    
C21   H3    S    
N3    Zn2   S    
C7    C48   S    
