data_mof_unit_15184.cif
_audit_creation_date              2012-12-10T18:24:45-0500
_audit_creation_method            fapswitch 2.2
_symmetry_space_group_name_H-M    P1
_symmetry_Int_Tables_number       1
_space_group_crystal_system       triclinic
_cell_length_a                    13.989965
_cell_length_b                    14.878543
_cell_length_c                    16.329574
_cell_angle_alpha                 90.007408
_cell_angle_beta                  84.561657
_cell_angle_gamma                 90.967607
_cell_volume                      3383.21972567

loop_
_atom_site_label
_atom_site_type_symbol
_atom_type_description
_atom_site_fract_x
_atom_site_fract_y
_atom_site_fract_z
_atom_type_partial_charge
C1    C     C_R   0.500594 0.672796 0.502593 0.885040
C2    C     C_R   0.507326 0.908209 0.579300 -0.033172
C3    C     C_R   0.504130 0.046771 0.498473 -0.097493
C4    C     C_R   0.506661 0.953143 0.502015 -0.108587
C5    C     C_R   0.506166 0.096008 0.572257 0.013691
C6    C     C_R   0.510598 0.904114 0.427724 -0.008069
C7    C     C_R   0.504609 0.040571 0.347373 0.356851
C8    C     C_R   0.513800 0.958715 0.652456 0.362123
C9    C     C_R   0.517098 0.947658 0.351240 0.323215
C10   C     C_R   0.514972 0.053076 0.647833 0.322253
C11   C     C_R   0.203624 0.425175 0.474515 -0.084967
C12   C     C_R   0.499576 0.327134 0.497191 0.883756
C13   C     C_R   0.796079 0.573709 0.527751 -0.022939
C14   C     C_R   0.200105 0.572947 0.528821 -0.010211
C15   C     C_R   0.799119 0.424886 0.476512 -0.052032
C16   C     C_R   0.486088 0.495592 0.655029 0.931568
C17   C     C_R   0.513820 0.499471 0.344607 0.923712
C18   C     C_R   0.099026 0.573763 0.532437 -0.098592
C19   C     C_R   0.899726 0.422328 0.476229 -0.111908
C20   C     C_R   0.050049 0.497672 0.504297 -0.018716
C21   C     C_R   0.948916 0.498196 0.504087 -0.031493
C22   C     C_R   0.102420 0.421456 0.475780 -0.071605
C23   C     C_R   0.503252 0.188653 0.569293 -0.260045
C24   C     C_R   0.896719 0.575132 0.530424 -0.052431
C25   C     C_R   0.046288 0.648971 0.562853 0.396518
C26   C     C_R   0.951423 0.345985 0.448060 0.419885
C27   C     C_R   0.945720 0.651005 0.559052 0.106290
C28   C     C_R   0.052430 0.345179 0.447626 0.113000
C29   C     C_R   0.476671 0.464957 0.741788 -0.313434
C30   C     C_R   0.522094 0.477691 0.255701 -0.316096
C31   C     C_R   0.556610 0.470147 0.788936 0.055137
C32   C     C_R   0.440268 0.480675 0.211148 0.063522
C33   C     C_R   0.552253 0.427773 0.866169 0.417738
C34   C     C_R   0.508836 0.811526 0.430441 -0.241024
C35   C     C_R   0.440289 0.434934 0.135752 0.416541
C36   C     C_R   0.472127 0.371329 0.893081 -0.139645
C37   C     C_R   0.518620 0.378737 0.108502 -0.137746
C38   C     C_R   0.394222 0.364454 0.844810 0.360329
C39   C     C_R   0.602073 0.381632 0.150814 0.378495
C40   C     C_R   0.393355 0.415682 0.772981 0.091150
C41   C     C_R   0.606505 0.437571 0.219569 0.076865
C42   C     C_2   0.457442 0.332468 0.977301 -0.165070
C43   C     C_2   0.526659 0.332002 0.027452 -0.168250
C44   C     C_3   0.724679 0.471663 0.733274 -0.684587
C45   C     C_R   0.498301 0.231968 0.495195 -0.137771
C46   C     C_3   0.271399 0.492366 0.263854 -0.671553
C47   C     C_3   0.104826 0.712485 0.675225 0.043326
C48   C     C_3   0.128675 0.803698 0.711983 -0.300996
C49   C     C_3   0.153297 0.794425 0.800668 -1.001640
C50   C     C_3   0.873930 0.210422 0.470434 0.073679
C51   C     C_3   0.806026 0.144352 0.432025 -0.311490
C52   C     C_3   0.771244 0.069099 0.491564 -0.976376
C53   C     C_3   0.879952 0.791061 0.518128 -0.764676
C54   C     C_3   0.125603 0.261370 0.331804 -0.746935
C55   C     C_3   0.752491 0.395663 0.281327 -0.646058
C56   C     C_R   0.503115 0.767831 0.505107 -0.134017
C57   C     C_3   0.288918 0.343132 0.680580 -0.671075
C58   C     C_3   0.333557 0.221188 0.853682 0.082041
C59   C     C_3   0.240957 0.165918 0.871793 -0.319591
C60   C     C_3   0.257026 0.066469 0.853861 -0.993432
C61   C     C_3   0.675496 0.246158 0.144113 0.082534
C62   C     C_3   0.766751 0.197541 0.112088 -0.331019
C63   C     C_3   0.763960 0.100027 0.141071 -0.954773
C64   C     C_3   0.367523 0.522110 0.044732 0.090012
C65   C     C_3   0.276760 0.530858 0.000344 -0.305638
C66   C     C_3   0.285147 0.609645 0.940019 -1.004444
C67   C     C_R   0.495404 0.185819 0.420724 0.188212
C68   C     C_3   0.633165 0.520101 0.950705 0.116058
C69   C     C_3   0.735252 0.540086 0.972129 -0.299043
C70   C     C_3   0.740219 0.626705 0.021693 -1.011558
C71   C     C_3   0.396641 0.263710 0.329836 -0.777321
C72   C     C_3   0.397816 0.736372 0.684763 -0.812960
C73   C     C_3   0.426265 0.062779 0.231689 0.149393
C74   C     C_3   0.435500 0.107019 0.146695 -0.348053
C75   C     C_3   0.345435 0.091609 0.102340 -0.982668
C76   C     C_3   0.465382 0.925665 0.789162 0.142972
C77   C     C_3   0.484771 0.859848 0.857455 -0.330424
C78   C     C_R   0.502550 0.813486 0.580170 0.208427
C79   C     C_3   0.406810 0.862814 0.929316 -1.011538
C80   C     C_3   0.633648 0.892145 0.259671 0.094270
C81   C     C_3   0.652626 0.849290 0.174808 -0.318808
C82   C     C_3   0.759774 0.835779 0.152265 -0.981558
C83   C     C_3   0.616073 0.123215 0.730274 0.062505
C84   C     C_3   0.618486 0.191443 0.799994 -0.330271
C85   C     C_3   0.721100 0.215095 0.817415 -0.960376
C86   C     C_R   0.500372 0.091406 0.421226 -0.046717
H1    H     H_    0.246612 0.369145 0.452650 0.140936
H2    H     H_    0.710300 0.429874 0.679305 0.245163
H3    H     H_    0.624258 0.893339 0.128053 0.223973
H4    H     H_    0.799839 0.900568 0.155049 0.269872
H5    H     H_    0.771616 0.809112 0.088729 0.273730
H6    H     H_    0.788045 0.787063 0.195127 0.268841
H7    H     H_    0.655458 0.153090 0.673985 0.134066
H8    H     H_    0.652437 0.060871 0.747328 0.180655
H9    H     H_    0.582486 0.253611 0.782497 0.222763
H10   H     H_    0.578657 0.163638 0.856799 0.217997
H11   H     H_    0.758331 0.154034 0.835904 0.259778
H12   H     H_    0.719838 0.264645 0.868349 0.287464
H13   H     H_    0.746603 0.427189 0.782454 0.261248
H14   H     H_    0.761446 0.245148 0.761925 0.257684
H15   H     H_    0.785373 0.518798 0.714998 0.207696
H16   H     H_    0.377474 0.591960 0.272370 0.230948
H17   H     H_    0.280800 0.446598 0.315649 0.232557
H18   H     H_    0.243746 0.453156 0.213185 0.263423
H19   H     H_    0.216940 0.542999 0.284592 0.219406
H20   H     H_    0.164758 0.665772 0.682381 0.147623
H21   H     H_    0.038374 0.685136 0.710495 0.121656
H22   H     H_    0.190397 0.835563 0.674373 0.226067
H23   H     H_    0.753604 0.630737 0.548704 0.166956
H24   H     H_    0.065986 0.848391 0.710476 0.216369
H25   H     H_    0.091250 0.765147 0.839800 0.270375
H26   H     H_    0.170950 0.861667 0.825143 0.267392
H27   H     H_    0.216414 0.750698 0.803661 0.272869
H28   H     H_    0.834609 0.240672 0.526110 0.115785
H29   H     H_    0.936905 0.173404 0.489073 0.162879
H30   H     H_    0.742757 0.181062 0.413681 0.217801
H31   H     H_    0.843836 0.114315 0.375861 0.228005
H32   H     H_    0.833146 0.031074 0.510600 0.262999
H33   H     H_    0.723451 0.022055 0.460977 0.265707
H34   H     H_    0.239635 0.630585 0.548892 0.165718
H35   H     H_    0.730174 0.097292 0.546827 0.259164
H36   H     H_    0.918292 0.761926 0.634360 0.246799
H37   H     H_    0.833610 0.846889 0.542080 0.234813
H38   H     H_    0.950167 0.819619 0.491871 0.258335
H39   H     H_    0.844050 0.756344 0.468848 0.239367
H40   H     H_    0.156187 0.246798 0.453640 0.206775
H41   H     H_    0.156828 0.194863 0.315566 0.223974
H42   H     H_    0.179148 0.314550 0.311575 0.221929
H43   H     H_    0.060421 0.269317 0.298742 0.275682
H44   H     H_    0.738163 0.501929 0.201821 0.232650
H45   H     H_    0.759380 0.367028 0.457416 0.169223
H46   H     H_    0.790184 0.353490 0.233134 0.244218
H47   H     H_    0.705874 0.353174 0.325030 0.217333
H48   H     H_    0.809041 0.429003 0.314084 0.232338
H49   H     H_    0.247363 0.435920 0.771656 0.238581
H50   H     H_    0.244841 0.290881 0.715637 0.214633
H51   H     H_    0.356944 0.313382 0.653510 0.229005
H52   H     H_    0.248106 0.366376 0.629912 0.235422
H53   H     H_    0.387922 0.195818 0.893083 0.143000
H54   H     H_    0.360955 0.211390 0.787975 0.175214
H55   H     H_    0.213982 0.174016 0.937594 0.229470
H56   H     H_    0.598146 0.316556 0.000335 0.243462
H57   H     H_    0.185467 0.190847 0.833420 0.220749
H58   H     H_    0.283835 0.056591 0.788292 0.267390
H59   H     H_    0.188223 0.028556 0.866688 0.267542
H60   H     H_    0.309718 0.039688 0.893842 0.267112
H61   H     H_    0.613940 0.212451 0.117838 0.145663
H62   H     H_    0.665310 0.239938 0.212410 0.166946
H63   H     H_    0.774329 0.199261 0.043703 0.223325
H64   H     H_    0.830359 0.232191 0.134290 0.224967
H65   H     H_    0.760090 0.097190 0.209290 0.264066
H66   H     H_    0.830256 0.066080 0.115478 0.259568
H67   H     H_    0.383972 0.322844 0.003615 0.245880
H68   H     H_    0.700808 0.063798 0.119750 0.272522
H69   H     H_    0.429646 0.519633 0.997545 0.127006
H70   H     H_    0.375125 0.582701 0.083719 0.150319
H71   H     H_    0.264317 0.468001 0.965880 0.253191
H72   H     H_    0.214071 0.540793 0.046379 0.222298
H73   H     H_    0.296279 0.673645 0.973080 0.274572
H74   H     H_    0.218048 0.614164 0.909094 0.270076
H75   H     H_    0.346137 0.599796 0.892276 0.261325
H76   H     H_    0.585788 0.517445 0.008905 0.130599
H77   H     H_    0.609965 0.576383 0.912534 0.130129
H78   H     H_    0.505788 0.228536 0.624725 0.170618
H79   H     H_    0.759969 0.483554 0.008880 0.251629
H80   H     H_    0.784014 0.546447 0.914509 0.222574
H81   H     H_    0.716838 0.684464 0.985838 0.267616
H82   H     H_    0.815262 0.639525 0.036002 0.272031
H83   H     H_    0.693530 0.620887 0.080490 0.266028
H84   H     H_    0.542934 0.284583 0.336018 0.199923
H85   H     H_    0.381087 0.329347 0.359150 0.246482
H86   H     H_    0.340195 0.214211 0.353115 0.232067
H87   H     H_    0.393945 0.272592 0.262753 0.238915
H88   H     H_    0.542645 0.712128 0.656278 0.210009
H89   H     H_    0.510192 0.772198 0.374324 0.175403
H90   H     H_    0.369461 0.685425 0.643554 0.248422
H91   H     H_    0.349837 0.794926 0.688231 0.246851
H92   H     H_    0.397023 0.705952 0.746841 0.227866
H93   H     H_    0.361870 0.088955 0.268616 0.126463
H94   H     H_    0.415104 0.989462 0.222878 0.178698
H95   H     H_    0.447814 0.180427 0.152993 0.227641
H96   H     H_    0.498163 0.078759 0.108898 0.217115
H97   H     H_    0.332116 0.018550 0.093806 0.267539
H98   H     H_    0.355150 0.124295 0.040919 0.266617
H99   H     H_    0.282191 0.121271 0.138117 0.269915
H100  H     H_    0.630071 0.579464 0.728956 0.222024
H101  H     H_    0.392738 0.911738 0.769155 0.134913
H102  H     H_    0.466857 0.994040 0.815914 0.184668
H103  H     H_    0.488907 0.790405 0.832823 0.238354
H104  H     H_    0.555189 0.877059 0.880286 0.219088
H105  H     H_    0.405907 0.930214 0.958541 0.268379
H106  H     H_    0.421811 0.812115 0.976120 0.267668
H107  H     H_    0.335319 0.847326 0.907908 0.278731
H108  H     H_    0.665016 0.849187 0.305820 0.139070
H109  H     H_    0.669645 0.959617 0.258200 0.157184
H110  H     H_    0.614710 0.783039 0.174220 0.222365
N1    N     N_R   0.249970 0.499930 0.499970 -0.105553
N2    N     N_2   0.494811 0.764036 0.655480 -0.265003
N3    N     N_R   0.750030 0.500070 0.500030 -0.109338
N4    N     N_2   0.640575 0.522270 0.762339 -0.282029
N5    N     N_2   0.361506 0.537308 0.236977 -0.287307
N6    N     N_2   0.893894 0.729521 0.584376 -0.312275
N7    N     N_2   0.101506 0.266103 0.419752 -0.299648
N8    N     N_2   0.697296 0.464049 0.245439 -0.268158
N9    N     N_2   0.307011 0.418616 0.733233 -0.262028
N10   N     N_2   0.491302 0.234537 0.345907 -0.267102
O1    O     O_R   0.419720 0.632140 0.499990 -0.624469
O2    O     O_3   0.904724 0.276305 0.411075 -0.648362
O3    O     O_3   0.313788 0.312610 0.870661 -0.654525
O4    O     O_3   0.684012 0.337436 0.119839 -0.653037
O5    O     O_3   0.360684 0.442135 0.091926 -0.647119
O6    O     O_3   0.631264 0.435577 0.911058 -0.646298
O7    O     O_3   0.510405 0.082076 0.270859 -0.623087
O8    O     O_3   0.538085 0.916480 0.723420 -0.628320
O9    O     O_3   0.533521 0.899108 0.279056 -0.658131
O10   O     O_3   0.519241 0.104048 0.718348 -0.685174
O11   O     O_R   0.580280 0.367860 0.500010 -0.637329
O12   O     O_R   0.580270 0.632160 0.499980 -0.631599
O13   O     O_R   0.419730 0.367840 0.500020 -0.628161
O14   O     O_R   0.410240 0.500000 0.615800 -0.579485
O15   O     O_R   0.589760 0.500000 0.384200 -0.571851
O16   O     O_R   0.570790 0.500020 0.615800 -0.615932
O17   O     O_R   0.429210 0.499980 0.384200 -0.614362
O18   O     O_3   0.093014 0.724057 0.590812 -0.647470
Zn1   Zn    Zn3+2 0.392800 0.499980 0.500010 0.920777
Zn2   Zn    Zn3+2 0.607200 0.500020 0.499990 0.926265

loop_
_geom_bond_atom_site_label_1
_geom_bond_atom_site_label_2
_ccdc_geom_bond_type
C58   H53   S    
C49   H27   S    
C47   O18   S    
C34   C56   A    
C23   C45   A    
C62   H63   S    
C27   N6    S    
C73   C74   S    
C14   C18   A    
C16   O16   A    
C24   C27   A    
C72   H92   S    
C75   H97   S    
C6    C9    A    
C66   H74   S    
C81   C82   S    
C56   C78   A    
C39   C41   A    
C74   H95   S    
C9    O9    S    
C15   C19   A    
C64   H69   S    
C17   O17   A    
C77   H104  S    
C19   C21   A    
H16   N5    S    
C55   H46   S    
H84   N10   S    
C8    O8    S    
C80   C81   S    
C33   O6    S    
C1    C56   S    
C68   H77   S    
C7    C86   A    
O16   Zn2   S    
C54   N7    S    
C83   H7    S    
C46   H19   S    
C57   N9    S    
C33   C36   A    
C82   H6    S    
C25   O18   S    
C50   H29   S    
C84   H10   S    
C32   N5    S    
C54   H43   S    
C19   C26   A    
C35   O5    S    
C69   H80   S    
C31   N4    S    
C13   H23   S    
C34   H89   S    
C51   H31   S    
C73   H94   S    
C36   C42   S    
O1    Zn1   S    
C71   N10   S    
C83   C84   S    
C11   H1    S    
C68   C69   S    
C45   C67   A    
C31   C33   A    
C30   C41   A    
C1    O12   A    
C85   H12   S    
C76   H101  S    
C13   N3    A    
C42   C43   D    
C12   O13   A    
C61   C62   S    
C76   H102  S    
O11   Zn2   S    
H49   N9    S    
C81   H3    S    
C59   H57   S    
C59   C60   S    
C38   C40   A    
C79   H105  S    
C3    C86   A    
C17   C30   S    
C73   O7    S    
C75   H99   S    
C18   C25   A    
C60   H60   S    
C72   H91   S    
C75   H98   S    
C66   H73   S    
C83   O10   S    
C80   O9    S    
C77   C79   S    
C14   N1    A    
C26   O2    S    
H88   N2    S    
C74   C75   S    
C51   C52   S    
C32   C35   A    
C42   H67   S    
C17   O15   A    
C76   C77   S    
C4    C6    A    
C53   H37   S    
C12   C45   S    
H44   N8    S    
C16   C29   S    
C55   H47   S    
C83   H8    S    
C46   H18   S    
O15   Zn2   S    
O13   Zn1   S    
C82   H5    S    
C6    C34   A    
C39   O4    S    
C50   H28   S    
C84   H9    S    
C37   C43   S    
C2    C4    A    
C11   N1    A    
C62   C63   S    
C2    C78   A    
C70   H82   S    
C57   H52   S    
C15   N3    A    
C52   H35   S    
C47   C48   S    
C5    C23   A    
C47   H20   S    
C50   C51   S    
C57   H51   S    
C64   O5    S    
C84   C85   S    
C41   N8    S    
C46   N5    S    
C63   H65   S    
C7    O7    S    
C67   N10   S    
C53   H39   S    
C49   H26   S    
C65   H71   S    
C48   C49   S    
C20   C22   A    
C44   N4    S    
C47   H21   S    
C79   H106  S    
C71   H85   S    
C60   H59   S    
C3    C4    A    
C68   O6    S    
C76   O8    S    
C12   O11   A    
C61   H62   S    
C23   H78   S    
C46   H17   S    
C58   O3    S    
C58   H54   S    
C7    C9    A    
C80   H109  S    
C40   N9    S    
C67   C86   A    
C62   H64   S    
C35   C37   A    
C28   N7    S    
C70   H83   S    
C8    C10   A    
C2    C8    A    
C51   H30   S    
C63   H68   S    
C65   H72   S    
C3    C5    A    
C53   H38   S    
C82   H4    S    
C44   H15   S    
O17   Zn1   S    
C74   H96   S    
C68   H76   S    
H40   N7    S    
C25   C27   A    
C55   H48   S    
C80   H108  S    
C54   H41   S    
C64   H70   S    
C11   C22   A    
C26   C28   A    
C53   N6    S    
C79   H107  S    
C14   H34   S    
C49   H25   S    
C77   H103  S    
C64   C65   S    
H36   N6    S    
C36   C38   A    
C58   C59   S    
C5    C10   A    
C29   C31   A    
C85   H14   S    
C70   H81   S    
C60   H58   S    
C81   H110  S    
C30   C32   A    
C10   O10   S    
C48   H22   S    
C54   H42   S    
C50   O2    S    
C55   N8    S    
C29   C40   A    
C44   H13   S    
O14   Zn1   S    
C16   O14   A    
C18   C20   A    
C61   O4    S    
C72   H90   S    
C38   O3    S    
C61   H61   S    
C69   C70   S    
C1    O1    A    
N3    Zn2   S    
C69   H79   S    
C63   H66   S    
C85   H11   S    
C72   N2    S    
C73   H93   S    
C52   H33   S    
C71   H87   S    
C66   H75   S    
C15   H45   S    
C20   C21   A    
C13   C24   A    
C37   C39   A    
C65   C66   S    
C59   H55   S    
C21   C24   A    
H100  N4    S    
C71   H86   S    
C43   H56   S    
C22   C28   A    
C78   N2    S    
C48   H24   S    
C44   H2    S    
O12   Zn2   S    
C57   H50   S    
N1    Zn1   S    
C52   H32   S    
