data_mof_unit_33596.cif
_audit_creation_date              2012-12-10T17:31:04-0500
_audit_creation_method            fapswitch 2.2
_symmetry_space_group_name_H-M    P1
_symmetry_Int_Tables_number       1
_space_group_crystal_system       triclinic
_cell_length_a                    11.992423
_cell_length_b                    12.883668
_cell_length_c                    15.568103
_cell_angle_alpha                 87.145013
_cell_angle_beta                  115.816724
_cell_angle_gamma                 93.487651
_cell_volume                      2160.55739905

loop_
_atom_site_label
_atom_site_type_symbol
_atom_type_description
_atom_site_fract_x
_atom_site_fract_y
_atom_site_fract_z
_atom_type_partial_charge
C1    C     C_R   0.477733 0.299422 0.499588 0.857416
C2    C     C_R   0.663278 0.969759 0.530882 -0.219404
C3    C     C_R   0.348902 0.137617 0.477052 -0.209650
C4    C     C_R   0.651852 0.862517 0.524928 -0.207616
C5    C     C_R   0.569462 0.132060 0.519701 -0.287758
C6    C     C_R   0.431590 0.868045 0.483389 -0.277210
C7    C     C_R   0.559004 0.025612 0.513883 0.182842
C8    C     C_R   0.442195 0.974454 0.489652 0.176942
C9    C     C_R   0.000164 0.595022 0.407057 -0.337148
C10   C     C_R   0.999596 0.404579 0.592532 -0.330932
C11   C     C_R   0.121703 0.586626 0.416852 0.012130
C12   C     C_R   0.522430 0.700621 0.500775 0.884734
C13   C     C_R   0.878241 0.413251 0.583023 0.005241
C14   C     C_R   0.162336 0.459321 0.540727 -0.032748
C15   C     C_R   0.837313 0.540266 0.458829 -0.017643
C16   C     C_R   0.576210 0.492745 0.680165 0.905224
C17   C     C_R   0.423179 0.502496 0.319774 0.900447
C18   C     C_R   0.040923 0.465400 0.533709 0.083691
C19   C     C_R   0.958761 0.534211 0.465851 0.086525
C20   C     C_R   0.623808 0.489996 0.783721 -0.162537
C21   C     C_R   0.375885 0.504670 0.216163 -0.161751
C22   C     C_R   0.787968 0.522405 0.941082 -0.202521
C23   C     C_R   0.648609 0.526127 0.110853 -0.173226
C24   C     C_R   0.220235 0.549534 0.058185 -0.203945
C25   C     C_R   0.749132 0.513194 0.843220 -0.283742
C26   C     C_R   0.256982 0.538339 0.156286 -0.282041
C27   C     C_R   0.539234 0.471527 0.823012 0.421584
C28   C     C_R   0.455481 0.478762 0.177024 0.408089
C29   C     C_R   0.572454 0.501852 0.916352 -0.037647
C30   C     C_R   0.428890 0.510506 0.083156 -0.039659
C31   C     C_R   0.699958 0.518013 0.978062 0.122386
C32   C     C_R   0.306079 0.536537 0.021152 0.123540
C33   C     C_R   0.482471 0.514619 0.950053 0.063717
C34   C     C_R   0.357977 0.536169 0.888032 -0.170912
C35   C     C_R   0.520548 0.514289 0.049171 0.063984
C36   C     C_3   0.533665 0.315595 0.203332 0.077749
C37   C     C_3   0.501092 0.250807 0.275039 -0.320975
C38   C     C_3   0.479440 0.135928 0.250488 -0.962632
C39   C     C_3   0.425852 0.316401 0.796707 0.053661
C40   C     C_3   0.452814 0.251146 0.728839 -0.342114
C41   C     C_3   0.446723 0.135090 0.751912 -0.951008
C42   C     C_R   0.736835 0.530947 0.075131 -0.244735
C43   C     C_R   0.271942 0.550074 0.923690 -0.246812
C44   C     C_R   0.536178 0.811995 0.502116 -0.052000
C45   C     C_R   0.464504 0.188112 0.499666 -0.052531
C46   C     C_R   0.337776 0.030336 0.472169 -0.226049
H1    H     H_    0.833862 0.543866 0.123584 0.145099
H2    H     H_    0.126838 0.572222 0.012002 0.141515
H3    H     H_    0.681609 0.539289 0.186190 0.192394
H4    H     H_    0.327715 0.550118 0.812323 0.200158
H5    H     H_    0.341572 0.829049 0.464598 0.158987
H6    H     H_    0.659396 0.171137 0.538335 0.158829
H7    H     H_    0.733152 0.819298 0.539479 0.161055
H8    H     H_    0.267425 0.180873 0.461841 0.162257
H9    H     H_    0.248007 0.991324 0.453935 0.140626
H10   H     H_    0.753030 0.008796 0.549075 0.137973
H11   H     H_    0.773378 0.593164 0.407086 0.127505
H12   H     H_    0.178501 0.570275 0.874896 0.147622
H13   H     H_    0.225859 0.406018 0.592056 0.155777
H14   H     H_    0.619643 0.286351 0.204602 0.165193
H15   H     H_    0.459482 0.304061 0.129339 0.121088
H16   H     H_    0.578367 0.259197 0.347551 0.247700
H17   H     H_    0.415860 0.279580 0.275449 0.205080
H18   H     H_    0.402304 0.125467 0.178194 0.262853
H19   H     H_    0.454447 0.091594 0.303066 0.280537
H20   H     H_    0.564887 0.104320 0.252850 0.262881
H21   H     H_    0.332070 0.292717 0.790549 0.160013
H22   H     H_    0.492263 0.299305 0.872349 0.130950
H23   H     H_    0.847298 0.366383 0.628801 0.126081
H24   H     H_    0.383539 0.266666 0.654384 0.232998
H25   H     H_    0.546609 0.273143 0.734240 0.205647
H26   H     H_    0.516213 0.117225 0.825849 0.263434
H27   H     H_    0.467159 0.090423 0.701611 0.279548
H28   H     H_    0.352638 0.110401 0.744475 0.259761
H29   H     H_    0.152697 0.633544 0.371129 0.122717
H30   H     H_    0.939157 0.648564 0.353879 0.140413
H31   H     H_    0.060598 0.350923 0.645593 0.145234
H32   H     H_    0.192981 0.555868 0.185127 0.173183
H33   H     H_    0.816375 0.524753 0.814182 0.176885
H34   H     H_    0.885506 0.537405 0.986992 0.142534
N1    N     N_R   0.799120 0.480200 0.517090 -0.096051
N2    N     N_R   0.200880 0.519800 0.482910 -0.098345
O1    O     O_R   0.580150 0.341050 0.504560 -0.632587
O2    O     O_3   0.424419 0.423116 0.769676 -0.662202
O3    O     O_R   0.419850 0.658950 0.495440 -0.625926
O4    O     O_R   0.388090 0.353760 0.493600 -0.634181
O5    O     O_R   0.611910 0.646240 0.506400 -0.629443
O6    O     O_R   0.650890 0.490020 0.640860 -0.633718
O7    O     O_R   0.349110 0.509980 0.359140 -0.632146
O8    O     O_R   0.458830 0.502730 0.629890 -0.563055
O9    O     O_R   0.541170 0.497270 0.370110 -0.563369
O10   O     O_3   0.558328 0.420885 0.230671 -0.647375
Zn1   Zn    Zn3+2 0.628240 0.491510 0.507320 0.944765
Zn2   Zn    Zn3+2 0.371760 0.508490 0.492680 0.946153

loop_
_geom_bond_atom_site_label_1
_geom_bond_atom_site_label_2
_ccdc_geom_bond_type
C21   C26   A    
C16   O8    A    
N2    Zn2   S    
C40   H25   S    
C13   N1    A    
C4    H7    S    
C27   C29   A    
C39   H22   S    
C14   C18   A    
C2    C7    A    
C17   O9    A    
C37   H16   S    
C7    C8    A    
C15   N1    A    
C15   C19   A    
C14   H13   S    
C26   H32   S    
C23   C42   A    
C40   H24   S    
C12   O3    A    
C36   C37   S    
C31   C42   A    
C24   C26   A    
C39   O2    S    
C3    H8    S    
C23   H3    S    
C20   C25   A    
O1    Zn1   S    
C29   C33   A    
C18   C19   A    
O7    Zn2   S    
O4    Zn2   S    
C43   H12   S    
C41   H28   S    
C9    C19   A    
C38   H20   S    
C22   C25   A    
C46   H9    S    
C5    H6    S    
C9    H30   S    
C6    H5    S    
C36   O10   S    
C6    C44   A    
C15   H11   S    
C37   H17   S    
C10   H31   S    
O8    Zn2   S    
C38   H18   S    
C11   N2    A    
C34   H4    S    
C22   C31   A    
C24   H2    S    
C17   O7    A    
C39   C40   S    
C5    C7    A    
C6    C8    A    
C4    C44   A    
C5    C45   A    
C3    C45   A    
C17   C21   S    
C2    C4    A    
C24   C32   A    
C37   C38   S    
O9    Zn1   S    
N1    Zn1   S    
O3    Zn2   S    
C38   H19   S    
C16   C20   S    
C33   C34   A    
C28   O10   S    
C9    C11   A    
C41   H26   S    
C30   C35   A    
C40   C41   S    
C21   C28   A    
C23   C35   A    
C14   N2    A    
C36   H15   S    
C1    O4    A    
O6    Zn1   S    
C27   O2    S    
C12   O5    A    
C25   H33   S    
C39   H21   S    
C34   C43   A    
C36   H14   S    
C10   C13   A    
C20   C27   A    
C1    O1    A    
C3    C46   A    
C28   C30   A    
C22   H34   S    
C12   C44   S    
C11   H29   S    
C30   C32   A    
C1    C45   S    
C13   H23   S    
C10   C18   A    
O5    Zn1   S    
C33   C35   A    
C32   C43   A    
C42   H1    S    
C8    C46   A    
C41   H27   S    
C29   C31   A    
C16   O6    A    
C2    H10   S    
