data_mof_unit_65889.cif
_audit_creation_date              2012-12-10T19:30:25-0500
_audit_creation_method            fapswitch 2.2
_symmetry_space_group_name_H-M    P1
_symmetry_Int_Tables_number       1
_space_group_crystal_system       triclinic
_cell_length_a                    25.6436
_cell_length_b                    43.104908
_cell_length_c                    25.070087
_cell_angle_alpha                 89.950333
_cell_angle_beta                  120.779619
_cell_angle_gamma                 90.094697
_cell_volume                      23808.164068

loop_
_atom_site_label
_atom_site_type_symbol
_atom_type_description
_atom_site_fract_x
_atom_site_fract_y
_atom_site_fract_z
_atom_type_partial_charge
C1    C     C_R   0.641598 0.250273 0.000153 0.820742
C2    C     C_R   0.499972 0.967373 0.000128 0.128955
C3    C     C_R   0.382409 0.249574 0.763345 -0.079026
C4    C     C_R   0.730702 0.228499 0.532576 -0.163213
C5    C     C_R   0.264243 0.768562 0.467483 -0.139691
C6    C     C_R   0.269464 0.228700 0.467419 -0.163415
C7    C     C_R   0.735162 0.768270 0.532646 -0.135127
C8    C     C_R   0.230534 0.728384 0.532502 -0.158707
C9    C     C_R   0.764569 0.268476 0.467400 -0.135139
C10   C     C_R   0.769404 0.728694 0.467405 -0.163415
C11   C     C_R   0.235160 0.268256 0.532634 -0.135318
C12   C     C_R   0.698523 0.228198 0.467874 -0.150055
C13   C     C_R   0.000061 0.532608 0.999819 0.129269
C14   C     C_R   0.296772 0.768605 0.532213 -0.131670
C15   C     C_R   0.301696 0.228408 0.532118 -0.149949
C16   C     C_R   0.702499 0.768323 0.467917 -0.127148
C17   C     C_R   0.198435 0.728101 0.467804 -0.152625
C18   C     C_R   0.797185 0.268529 0.532131 -0.127264
C19   C     C_R   0.801634 0.728392 0.532104 -0.150143
C20   C     C_R   0.202494 0.268297 0.467906 -0.127077
C21   C     C_R   0.715305 0.248243 0.435155 0.160800
C22   C     C_R   0.279842 0.748598 0.564840 0.160259
C23   C     C_R   0.284698 0.248246 0.564854 0.160845
C24   C     C_R   0.000177 0.467390 0.999838 0.129064
C25   C     C_R   0.719693 0.748621 0.435172 0.155354
C26   C     C_R   0.215146 0.748240 0.435161 0.158837
C27   C     C_R   0.780182 0.248624 0.564848 0.155397
C28   C     C_R   0.784667 0.748238 0.564853 0.160803
C29   C     C_R   0.219718 0.248604 0.435173 0.155475
C30   C     C_R   0.505878 0.615347 0.051144 -0.263279
C31   C     C_R   0.533661 0.384636 0.979465 -0.266484
C32   C     C_R   0.493766 0.615388 0.948782 -0.262373
C33   C     C_R   0.465765 0.384512 0.019917 -0.265740
C34   C     C_R   0.005802 0.115358 0.051168 -0.267572
C35   C     C_3   0.245694 0.228972 0.957139 -0.228168
C36   C     C_R   0.034456 0.884604 0.980339 -0.266062
C37   C     C_R   0.994285 0.115367 0.949062 -0.260810
C38   C     C_R   0.965521 0.884517 0.019522 -0.265662
C39   C     C_R   0.505719 0.582870 0.051526 0.187092
C40   C     C_R   0.533821 0.417112 0.979131 0.189255
C41   C     C_R   0.493722 0.582914 0.948303 0.186586
C42   C     C_R   0.465365 0.416985 0.020065 0.186962
C43   C     C_R   0.005769 0.082881 0.051637 0.188568
C44   C     C_R   0.034769 0.917081 0.980142 0.187424
C45   C     C_R   0.994388 0.082894 0.948678 0.186526
C46   C     C_3   0.754458 0.770980 0.043278 -0.258039
C47   C     C_R   0.965253 0.916989 0.019785 0.187177
C48   C     C_R   0.499672 0.566517 0.999891 0.021608
C49   C     C_R   0.499563 0.433425 0.999589 0.021474
C50   C     C_R   0.000085 0.066510 0.000173 0.021945
C51   C     C_R   0.000028 0.933413 0.999989 0.021839
C52   C     C_R   0.499880 0.631722 0.999988 -0.056806
C53   C     C_R   0.499806 0.368238 0.999779 -0.055482
C54   C     C_R   0.000020 0.131718 0.000089 -0.056686
C55   C     C_R   0.999985 0.868229 0.999926 -0.056572
C56   C     C_R   0.446723 0.516126 0.958573 -0.170410
C57   C     C_3   0.722271 0.221702 0.981571 -0.297635
C58   C     C_R   0.552628 0.483817 0.040525 -0.170384
C59   C     C_R   0.552485 0.516147 0.041040 -0.170526
C60   C     C_R   0.446537 0.483793 0.958898 -0.170596
C61   C     C_R   0.947319 0.016107 0.958577 -0.170161
C62   C     C_R   0.052965 0.983815 0.041240 -0.170532
C63   C     C_R   0.052804 0.016147 0.041717 -0.170381
C64   C     C_R   0.947146 0.983776 0.958918 -0.170433
C65   C     C_R   0.499575 0.467545 0.999659 0.160795
C66   C     C_R   0.499617 0.532396 0.999850 0.161021
C67   C     C_R   0.000053 0.967535 0.000041 0.160428
C68   C     C_3   0.245649 0.770736 0.956485 -0.253989
C69   C     C_R   0.000066 0.032388 0.000176 0.160452
C70   C     C_R   0.499968 0.334153 0.999948 0.811219
C71   C     C_R   0.499982 0.665833 0.000015 0.810597
C72   C     C_R   1.000000 0.834150 0.999973 0.810023
C73   C     C_R   0.000005 0.165832 0.000031 0.811901
C74   C     C_R   0.499965 0.166000 0.999986 0.859625
C75   C     C_R   0.500031 0.833997 0.000022 0.858898
C76   C     C_R   0.999970 0.666002 0.999976 0.860208
C77   C     C_R   0.000036 0.333999 0.000012 0.858192
C78   C     C_R   0.478696 0.884415 0.944031 0.126868
C79   C     C_3   0.745689 0.728979 0.957128 -0.228167
C80   C     C_R   0.521949 0.115600 0.056179 0.128807
C81   C     C_R   0.521492 0.884375 0.056135 0.128142
C82   C     C_R   0.477732 0.115581 0.943854 0.128174
C83   C     C_R   0.978530 0.384388 0.943874 0.127074
C84   C     C_R   0.021793 0.615573 0.056025 0.128580
C85   C     C_R   0.021822 0.384421 0.056053 0.127540
C86   C     C_R   0.978046 0.615626 0.943767 0.128681
C87   C     C_R   0.478786 0.916771 0.944451 -0.189870
C88   C     C_R   0.521753 0.083245 0.055798 -0.189959
C89   C     C_R   0.521350 0.916731 0.055762 -0.190738
C90   C     C_3   0.254451 0.270986 0.043264 -0.258049
C91   C     C_R   0.477883 0.083225 0.944301 -0.189283
C92   C     C_R   0.978695 0.416745 0.944229 -0.190367
C93   C     C_R   0.021671 0.583219 0.055579 -0.189554
C94   C     C_R   0.021717 0.416777 0.055605 -0.190515
C95   C     C_R   0.978236 0.583270 0.944140 -0.189582
C96   C     C_R   0.500041 0.933145 0.000115 0.028787
C97   C     C_R   0.499822 0.066832 0.000069 0.028304
C98   C     C_R   0.000205 0.433158 0.999891 0.028881
C99   C     C_R   0.999985 0.566845 0.999844 0.028218
C100  C     C_R   0.500092 0.867953 0.000068 -0.105324
C101  C     C_3   0.254355 0.729284 0.043514 -0.254059
C102  C     C_R   0.499875 0.132038 0.000003 -0.107052
C103  C     C_R   0.000133 0.367959 0.999983 -0.105590
C104  C     C_R   0.999915 0.632044 0.999917 -0.106748
C105  C     C_R   0.550190 0.983854 0.046094 -0.173329
C106  C     C_R   0.449619 0.016098 0.954171 -0.172870
C107  C     C_R   0.449688 0.983765 0.954165 -0.173190
C108  C     C_R   0.550146 0.016188 0.046071 -0.173113
C109  C     C_R   0.050409 0.483876 0.045782 -0.173327
C110  C     C_R   0.949835 0.516120 0.953862 -0.172908
C111  C     C_R   0.949896 0.483786 0.953867 -0.173434
C112  C     C_R   0.358534 0.750043 0.000120 0.814962
C113  C     C_3   0.777720 0.278300 0.018392 -0.299470
C114  C     C_R   0.050356 0.516209 0.045768 -0.172989
C115  C     C_3   0.455270 0.556473 0.097490 -0.760770
C116  C     C_3   0.534561 0.443554 0.894715 -0.764367
C117  C     C_3   0.544029 0.556619 0.902236 -0.759543
C118  C     C_3   0.464322 0.443307 0.104350 -0.760350
C119  C     C_3   0.954955 0.056460 0.097187 -0.763665
C120  C     C_3   0.036850 0.943570 0.896485 -0.760702
C121  C     C_3   0.045286 0.056598 0.903238 -0.759834
C122  C     C_3   0.963198 0.943321 0.103519 -0.760983
C123  C     C_3   0.769656 0.667501 0.038680 -0.732915
C124  C     C_3   0.739943 0.721856 0.014362 0.219976
C125  C     C_3   0.233952 0.333140 0.965252 -0.764200
C126  C     C_3   0.231018 0.667319 0.963565 -0.732324
C127  C     C_3   0.834145 0.269707 0.164700 -0.751986
C128  C     C_3   0.269677 0.167506 0.038725 -0.732992
C129  C     C_3   0.733980 0.833146 0.965304 -0.764102
C130  C     C_3   0.665918 0.230312 0.835229 -0.738161
C131  C     C_3   0.268851 0.832725 0.036340 -0.739015
C132  C     C_3   0.666709 0.769576 0.834696 -0.764870
C133  C     C_3   0.332056 0.231030 0.165477 -0.769116
C134  C     C_3   0.331516 0.769992 0.164796 -0.781017
C135  C     C_3   0.260207 0.278105 0.985993 0.195364
C136  C     C_3   0.700647 0.314515 0.890460 -0.763354
C137  C     C_3   0.166694 0.269547 0.834679 -0.765534
C138  C     C_3   0.832053 0.731006 0.165467 -0.769048
C139  C     C_3   0.799332 0.185487 0.109499 -0.765462
C140  C     C_3   0.168542 0.730083 0.835190 -0.769098
C141  C     C_3   0.879942 0.188745 0.615440 -0.727441
C142  C     C_3   0.096569 0.788745 0.397645 -0.705641
C143  C     C_3   0.120840 0.188166 0.384447 -0.730542
C144  C     C_3   0.902928 0.789251 0.602252 -0.706070
C145  C     C_3   0.369717 0.690583 0.602348 -0.716973
C146  C     C_3   0.260381 0.721815 0.986578 0.218354
C147  C     C_3   0.596573 0.288677 0.397663 -0.706433
C148  C     C_3   0.620617 0.688296 0.384492 -0.729422
C149  C     C_3   0.403090 0.289220 0.602358 -0.705577
C150  C     C_3   0.761378 0.256416 0.056669 0.218357
C151  C     C_3   0.239950 0.221858 0.014378 0.219954
C152  C     C_3   0.760217 0.778108 0.986011 0.195379
C153  C     C_3   0.738617 0.243589 0.943296 0.217156
C154  C     C_3   0.239614 0.778205 0.013418 0.220213
C155  C     C_3   0.698684 0.750167 0.000418 -0.147498
C156  C     C_R   0.358503 0.249939 0.000085 0.817063
C157  C     C_3   0.301468 0.249737 0.999955 -0.153608
C158  C     C_3   0.301515 0.750219 0.999961 -0.151564
C159  C     C_3   0.698271 0.250517 0.999662 -0.147889
C160  C     C_3   0.198683 0.250167 0.000417 -0.147479
C161  C     C_3   0.801468 0.749737 0.999957 -0.153650
C162  C     C_3   0.801721 0.249485 0.000311 -0.146734
C163  C     C_3   0.198485 0.749797 0.000036 -0.151034
C164  C     C_3   0.705098 0.757814 0.944196 0.194336
C165  C     C_3   0.295052 0.242154 0.056227 0.189117
C166  C     C_3   0.294826 0.758176 0.055890 0.191517
C167  C     C_R   0.641546 0.750013 0.000033 0.811233
C168  C     C_3   0.714542 0.271840 0.960909 0.225506
C169  C     C_3   0.205095 0.257806 0.944190 0.194476
C170  C     C_3   0.795050 0.742146 0.056223 0.189084
C171  C     C_3   0.785448 0.228164 0.039057 0.225772
C172  C     C_3   0.205177 0.741846 0.944106 0.188609
C173  C     C_R   0.823863 0.263645 0.730713 -0.197903
C174  C     C_R   0.158684 0.725608 0.269234 -0.192551
C175  C     C_R   0.175875 0.263966 0.269360 -0.198082
C176  C     C_R   0.841519 0.725469 0.730798 -0.194360
C177  C     C_R   0.324127 0.763952 0.730713 -0.198232
C178  C     C_R   0.141467 0.749960 0.999880 0.814827
C179  C     C_R   0.658770 0.225627 0.269211 -0.195688
C180  C     C_R   0.675905 0.763931 0.269356 -0.197925
C181  C     C_R   0.341479 0.225490 0.730789 -0.194891
C182  C     C_R   0.790448 0.263128 0.665973 0.141934
C183  C     C_R   0.190112 0.724869 0.333960 0.139730
C184  C     C_R   0.209260 0.263449 0.334099 0.141717
C185  C     C_R   0.810065 0.724725 0.666076 0.140647
C186  C     C_R   0.290628 0.763402 0.665986 0.140950
C187  C     C_R   0.690227 0.224884 0.333935 0.140821
C188  C     C_R   0.709284 0.763418 0.334095 0.141598
C189  C     C_R   0.858401 0.249727 0.999842 0.821017
C190  C     C_R   0.310037 0.224747 0.666068 0.140834
C191  C     C_R   0.814580 0.248665 0.632979 -0.001639
C192  C     C_R   0.180673 0.748379 0.367036 -0.007463
C193  C     C_R   0.185332 0.248664 0.367050 -0.001938
C194  C     C_R   0.819254 0.748364 0.632969 -0.009766
C195  C     C_R   0.314295 0.748530 0.632967 -0.005181
C196  C     C_R   0.680758 0.248370 0.367032 -0.009391
C197  C     C_R   0.685301 0.748687 0.367047 -0.001941
C198  C     C_R   0.319268 0.248374 0.632969 -0.009841
C199  C     C_R   0.872513 0.234832 0.665460 0.198408
C200  C     C_R   0.858503 0.749939 0.000086 0.817295
C201  C     C_R   0.139341 0.772589 0.334638 0.201500
C202  C     C_R   0.127623 0.234519 0.334537 0.199819
C203  C     C_R   0.860386 0.772701 0.665326 0.201322
C204  C     C_R   0.371870 0.734248 0.665423 0.199983
C205  C     C_R   0.639365 0.272560 0.334656 0.201114
C206  C     C_R   0.627539 0.734598 0.334535 0.200204
C207  C     C_R   0.360426 0.272700 0.665333 0.200970
C208  C     C_R   0.905441 0.235519 0.730449 -0.257114
C209  C     C_R   0.108329 0.773029 0.269681 -0.259197
C210  C     C_R   0.094718 0.235214 0.269550 -0.259088
C211  C     C_R   0.141545 0.250013 0.000033 0.811029
C212  C     C_R   0.891449 0.773138 0.730284 -0.258882
C213  C     C_R   0.404931 0.735070 0.730390 -0.253209
C214  C     C_R   0.608315 0.273004 0.269697 -0.257631
C215  C     C_R   0.594638 0.735290 0.269547 -0.259982
C216  C     C_R   0.391477 0.273137 0.730290 -0.256952
C217  C     C_R   0.415901 0.249992 0.831668 0.827849
C218  C     C_R   0.584155 0.749972 0.168326 0.825327
C219  C     C_R   0.584088 0.249991 0.168306 0.827358
C220  C     C_R   0.415844 0.749966 0.831697 0.823782
C221  C     C_R   0.915905 0.749989 0.831668 0.826528
C222  C     C_R   0.499857 0.032591 0.000110 0.129365
C223  C     C_R   0.084161 0.249968 0.168327 0.826727
C224  C     C_R   0.084084 0.749991 0.168307 0.825284
C225  C     C_R   0.915846 0.249966 0.831707 0.825174
C226  C     C_R   0.881303 0.249750 0.763389 -0.069349
C227  C     C_R   0.117578 0.749577 0.236643 -0.078429
C228  C     C_R   0.118666 0.249757 0.236645 -0.070640
C229  C     C_R   0.882417 0.749566 0.763346 -0.078600
C230  C     C_R   0.381233 0.749714 0.763363 -0.072430
C231  C     C_R   0.617599 0.249575 0.236641 -0.077836
C232  C     C_R   0.618647 0.749771 0.236643 -0.069460
H1    H     H_    0.949934 0.224865 0.755104 0.171398
H2    H     H_    0.277344 0.784218 0.442528 0.140696
H3    H     H_    0.074102 0.076931 0.908043 0.238588
H4    H     H_    0.890347 0.921453 0.029544 0.225773
H5    H     H_    0.932718 0.956772 0.114143 0.240410
H6    H     H_    0.001508 0.958587 0.111719 0.252451
H7    H     H_    0.981041 0.923031 0.135282 0.236975
H8    H     H_    0.714352 0.691916 0.062523 0.209302
H9    H     H_    0.752624 0.644841 0.044645 0.234315
H10   H     H_    0.814183 0.672388 0.080974 0.256291
H11   H     H_    0.775497 0.665802 0.997835 0.246633
H12   H     H_    0.283757 0.307733 0.935736 0.212396
H13   H     H_    0.282927 0.213355 0.442397 0.149353
H14   H     H_    0.252554 0.355526 0.960333 0.236996
H15   H     H_    0.230078 0.334471 0.007324 0.251310
H16   H     H_    0.188331 0.329660 0.923616 0.235625
H17   H     H_    0.286304 0.691566 0.939293 0.210133
H18   H     H_    0.248220 0.644619 0.958207 0.233653
H19   H     H_    0.186509 0.671954 0.921095 0.256797
H20   H     H_    0.225081 0.665877 0.004382 0.246857
H21   H     H_    0.749050 0.249601 0.132095 0.234414
H22   H     H_    0.836421 0.277471 0.208055 0.237957
H23   H     H_    0.853675 0.288281 0.149412 0.245351
H24   H     H_    0.721864 0.783698 0.557688 0.139227
H25   H     H_    0.861471 0.248231 0.174681 0.257352
H26   H     H_    0.214367 0.191925 0.062556 0.209277
H27   H     H_    0.252650 0.144847 0.044704 0.234290
H28   H     H_    0.314203 0.172398 0.081015 0.256281
H29   H     H_    0.275516 0.165800 0.997880 0.246677
H30   H     H_    0.783780 0.807744 0.935776 0.212450
H31   H     H_    0.752591 0.855533 0.960400 0.236987
H32   H     H_    0.730104 0.834470 0.007377 0.251267
H33   H     H_    0.688359 0.829673 0.923666 0.235691
H34   H     H_    0.751025 0.250414 0.867920 0.233275
H35   H     H_    0.217314 0.712791 0.557448 0.147285
H36   H     H_    0.663689 0.222563 0.791888 0.240302
H37   H     H_    0.638592 0.251788 0.825243 0.259702
H38   H     H_    0.646361 0.211731 0.850472 0.244321
H39   H     H_    0.213651 0.808446 0.060685 0.208833
H40   H     H_    0.251595 0.855413 0.041680 0.230507
H41   H     H_    0.274746 0.834171 0.995497 0.248009
H42   H     H_    0.313388 0.828120 0.078795 0.258228
H43   H     H_    0.627715 0.783748 0.886049 0.220779
H44   H     H_    0.623464 0.772623 0.789955 0.243699
H45   H     H_    0.689714 0.748570 0.831061 0.249299
H46   H     H_    0.777723 0.284060 0.442386 0.139357
H47   H     H_    0.695637 0.790263 0.842810 0.229340
H48   H     H_    0.384055 0.246572 0.129269 0.245362
H49   H     H_    0.372603 0.222303 0.208271 0.248110
H50   H     H_    0.294257 0.214508 0.152549 0.241665
H51   H     H_    0.319770 0.254119 0.175448 0.241686
H52   H     H_    0.383775 0.754185 0.129179 0.241173
H53   H     H_    0.371972 0.778952 0.207437 0.245002
H54   H     H_    0.319258 0.746982 0.175258 0.240799
H55   H     H_    0.293644 0.786471 0.151377 0.243884
H56   H     H_    0.655880 0.309106 0.938722 0.243688
H57   H     H_    0.782841 0.713341 0.442374 0.149405
H58   H     H_    0.666077 0.331285 0.858035 0.240431
H59   H     H_    0.714442 0.299933 0.863431 0.256141
H60   H     H_    0.740524 0.327683 0.926333 0.238634
H61   H     H_    0.127703 0.283730 0.886028 0.220652
H62   H     H_    0.123446 0.272588 0.789939 0.243294
H63   H     H_    0.189701 0.248539 0.831056 0.249422
H64   H     H_    0.195618 0.290234 0.842777 0.229395
H65   H     H_    0.884055 0.746553 0.129267 0.245413
H66   H     H_    0.872596 0.722273 0.208256 0.248129
H67   H     H_    0.794248 0.714487 0.152530 0.241662
H68   H     H_    0.221835 0.283676 0.557666 0.139120
H69   H     H_    0.819774 0.754094 0.175452 0.241665
H70   H     H_    0.844125 0.190903 0.061267 0.246868
H71   H     H_    0.833905 0.168724 0.141943 0.239964
H72   H     H_    0.759472 0.172312 0.073618 0.240278
H73   H     H_    0.785505 0.200068 0.136503 0.255316
H74   H     H_    0.116230 0.745815 0.870805 0.244527
H75   H     H_    0.128131 0.721093 0.792545 0.248185
H76   H     H_    0.206488 0.713652 0.848620 0.241578
H77   H     H_    0.180708 0.753117 0.824723 0.241456
H78   H     H_    0.944710 0.223282 0.654737 0.228657
H79   H     H_    0.660378 0.212555 0.443227 0.149677
H80   H     H_    0.829800 0.186837 0.586551 0.253584
H81   H     H_    0.899558 0.179996 0.587808 0.252277
H82   H     H_    0.896576 0.174063 0.657549 0.228647
H83   H     H_    0.116754 0.817904 0.344003 0.224274
H84   H     H_    0.086377 0.763494 0.394401 0.235972
H85   H     H_    0.123943 0.795268 0.447402 0.269452
H86   H     H_    0.052825 0.801519 0.376076 0.231033
H87   H     H_    0.055588 0.222391 0.345220 0.227563
H88   H     H_    0.101349 0.179155 0.412057 0.252314
H89   H     H_    0.171008 0.186504 0.413331 0.253995
H90   H     H_    0.334890 0.784258 0.556927 0.144057
H91   H     H_    0.104411 0.173544 0.342303 0.227577
H92   H     H_    0.882491 0.818161 0.655905 0.224318
H93   H     H_    0.913430 0.764053 0.605564 0.236010
H94   H     H_    0.875441 0.795724 0.552478 0.269401
H95   H     H_    0.946513 0.802231 0.623748 0.231202
H96   H     H_    0.444205 0.719339 0.656218 0.227944
H97   H     H_    0.329169 0.684721 0.605584 0.234548
H98   H     H_    0.355700 0.692314 0.552595 0.270376
H99   H     H_    0.402923 0.671349 0.623815 0.229013
H100  H     H_    0.616762 0.317863 0.344063 0.224560
H101  H     H_    0.340047 0.212935 0.556750 0.149655
H102  H     H_    0.586350 0.263428 0.394350 0.236011
H103  H     H_    0.623952 0.295167 0.447437 0.269441
H104  H     H_    0.552844 0.301464 0.376127 0.231214
H105  H     H_    0.555455 0.722562 0.345206 0.227262
H106  H     H_    0.601083 0.679331 0.412095 0.252395
H107  H     H_    0.670778 0.686602 0.413397 0.253834
H108  H     H_    0.604168 0.673655 0.342370 0.227931
H109  H     H_    0.382552 0.318152 0.655903 0.223849
H110  H     H_    0.413544 0.264017 0.605659 0.236338
H111  H     H_    0.375684 0.295708 0.552586 0.269205
H112  H     H_    0.076842 0.791733 0.245070 0.167835
H113  H     H_    0.664112 0.783776 0.443296 0.141766
H114  H     H_    0.446703 0.302178 0.623937 0.230920
H115  H     H_    0.160412 0.712393 0.443099 0.150533
H116  H     H_    0.835396 0.284135 0.556777 0.141722
H117  H     H_    0.839962 0.712904 0.556725 0.149543
H118  H     H_    0.164081 0.283734 0.443274 0.141814
H119  H     H_    0.510710 0.627774 0.090992 0.166240
H120  H     H_    0.560179 0.372218 0.963894 0.161292
H121  H     H_    0.489008 0.627844 0.908963 0.167263
H122  H     H_    0.439309 0.371999 0.035529 0.168257
H123  H     H_    0.010351 0.127795 0.090886 0.164879
H124  H     H_    0.050402 0.224312 0.244871 0.168413
H125  H     H_    0.061344 0.872166 0.965248 0.167670
H126  H     H_    0.989719 0.127809 0.909312 0.167049
H127  H     H_    0.938621 0.872013 0.034600 0.168068
H128  H     H_    0.405623 0.528504 0.926695 0.139968
H129  H     H_    0.593770 0.471440 0.072301 0.140288
H130  H     H_    0.593608 0.528542 0.072975 0.140158
H131  H     H_    0.405379 0.471398 0.927055 0.139738
H132  H     H_    0.906317 0.028477 0.926426 0.140514
H133  H     H_    0.094004 0.971445 0.073298 0.140026
H134  H     H_    0.093816 0.028548 0.073903 0.140159
H135  H     H_    0.922777 0.791938 0.754877 0.167594
H136  H     H_    0.906100 0.971376 0.926814 0.140023
H137  H     H_    0.463225 0.929151 0.901285 0.164243
H138  H     H_    0.537787 0.070899 0.099081 0.164471
H139  H     H_    0.536889 0.929079 0.098945 0.164079
H140  H     H_    0.461830 0.070865 0.901043 0.164573
H141  H     H_    0.962986 0.429093 0.901004 0.164147
H142  H     H_    0.037566 0.570841 0.098805 0.164544
H143  H     H_    0.037454 0.429149 0.098797 0.164150
H144  H     H_    0.962371 0.570934 0.900888 0.164488
H145  H     H_    0.589853 0.971722 0.081505 0.143534
H146  H     H_    0.449166 0.724149 0.755064 0.170877
H147  H     H_    0.409926 0.028216 0.918773 0.143819
H148  H     H_    0.410070 0.971561 0.918757 0.143804
H149  H     H_    0.589801 0.028377 0.081454 0.143434
H150  H     H_    0.090081 0.471749 0.081192 0.143588
H151  H     H_    0.910148 0.528242 0.918466 0.143759
H152  H     H_    0.910261 0.471587 0.918473 0.143433
H153  H     H_    0.089997 0.528404 0.081164 0.143766
H154  H     H_    0.242656 0.211938 0.922473 0.171820
H155  H     H_    0.757512 0.787898 0.078123 0.175311
H156  H     H_    0.699277 0.198836 0.966620 0.162734
H157  H     H_    0.576782 0.291692 0.245102 0.167772
H158  H     H_    0.242546 0.787517 0.921366 0.174454
H159  H     H_    0.742646 0.711950 0.922452 0.171783
H160  H     H_    0.257500 0.287910 0.078099 0.175344
H161  H     H_    0.257464 0.712503 0.078636 0.174167
H162  H     H_    0.800713 0.301167 0.033338 0.162083
H163  H     H_    0.804632 0.274806 0.755437 0.188034
H164  H     H_    0.166376 0.707317 0.244464 0.201227
H165  H     H_    0.194946 0.275382 0.244671 0.190134
H166  H     H_    0.834018 0.707081 0.755601 0.200993
H167  H     H_    0.305227 0.775429 0.755444 0.190696
H168  H     H_    0.550279 0.724433 0.244866 0.166349
H169  H     H_    0.666495 0.207355 0.244427 0.200250
H170  H     H_    0.695019 0.775301 0.244665 0.189949
H171  H     H_    0.333949 0.207110 0.755586 0.201160
H172  H     H_    0.538712 0.578267 0.145537 0.225380
H173  H     H_    0.464552 0.542965 0.139179 0.240409
H174  H     H_    0.430228 0.541266 0.056236 0.252358
H175  H     H_    0.426566 0.576772 0.092882 0.238106
H176  H     H_    0.607983 0.421785 0.968130 0.224996
H177  H     H_    0.564615 0.457100 0.883531 0.240610
H178  H     H_    0.496398 0.458727 0.887042 0.253063
H179  H     H_    0.422830 0.291928 0.754888 0.167663
H180  H     H_    0.516433 0.423256 0.862990 0.235873
H181  H     H_    0.460660 0.578372 0.854276 0.225820
H182  H     H_    0.534673 0.543139 0.860516 0.240276
H183  H     H_    0.569043 0.541399 0.943462 0.252265
H184  H     H_    0.572792 0.576944 0.906854 0.238615
H185  H     H_    0.391068 0.421412 0.030855 0.225772
H186  H     H_    0.434154 0.456745 0.115431 0.240415
H187  H     H_    0.502463 0.458587 0.112103 0.252479
H188  H     H_    0.482466 0.423020 0.136094 0.237022
H189  H     H_    0.038298 0.078324 0.145565 0.225065
H190  H     H_    0.717416 0.212986 0.557581 0.149696
H191  H     H_    0.964052 0.042965 0.138830 0.240469
H192  H     H_    0.930133 0.041228 0.055938 0.253144
H193  H     H_    0.926125 0.076738 0.092368 0.236086
H194  H     H_    0.109661 0.921689 0.970357 0.225991
H195  H     H_    0.067355 0.957089 0.885893 0.240573
H196  H     H_    0.998592 0.958788 0.888363 0.252414
H197  H     H_    0.018936 0.923307 0.864645 0.236984
H198  H     H_    0.961917 0.078317 0.854767 0.225910
H199  H     H_    0.036232 0.043108 0.861629 0.240450
H200  H     H_    0.070103 0.041392 0.944518 0.252263
I1    I     I_    0.448985 0.862169 0.857433 -0.359254
I2    I     I_    0.252720 0.688146 0.379107 -0.374956
I3    I     I_    0.294716 0.286309 0.379411 -0.387643
I4    I     I_    0.747816 0.687782 0.620986 -0.360358
I5    I     I_    0.205332 0.786295 0.620752 -0.387157
I6    I     I_    0.752909 0.188188 0.379046 -0.363240
I7    I     I_    0.794817 0.786203 0.379401 -0.387879
I8    I     I_    0.247749 0.187820 0.620962 -0.360403
I9    I     I_    0.552905 0.137859 0.143035 -0.354027
I10   I     I_    0.551247 0.862057 0.142702 -0.352080
I11   I     I_    0.446731 0.137809 0.856939 -0.355906
I12   I     I_    0.948406 0.362098 0.857231 -0.360498
I13   I     I_    0.052347 0.637788 0.142842 -0.352858
I14   I     I_    0.052015 0.362182 0.142781 -0.355417
I15   I     I_    0.947458 0.637932 0.857003 -0.353325
I16   I     I_    0.704624 0.285502 0.620741 -0.389517
N1    N     N_2   0.512021 0.566765 0.104125 -0.309515
N2    N     N_2   0.274169 0.308255 0.970934 -0.292033
N3    N     N_2   0.274057 0.691393 0.972544 -0.293573
N4    N     N_2   0.771634 0.263897 0.117603 -0.310125
N5    N     N_2   0.226522 0.191534 0.029241 -0.292487
N6    N     N_2   0.774189 0.808260 0.970972 -0.292031
N7    N     N_2   0.728411 0.236117 0.882375 -0.311876
N8    N     N_2   0.225888 0.808622 0.027428 -0.295936
N9    N     N_2   0.653875 0.766142 0.884191 -0.288482
N10   N     N_2   0.345723 0.233491 0.116398 -0.305736
N11   N     N_2   0.345353 0.767201 0.115898 -0.304598
N12   N     N_2   0.568844 0.433258 0.958575 -0.309115
N13   N     N_2   0.674913 0.295697 0.919084 -0.291212
N14   N     N_2   0.153866 0.266124 0.884181 -0.288519
N15   N     N_2   0.845720 0.733474 0.116390 -0.305722
N16   N     N_2   0.825077 0.204309 0.080892 -0.292571
N17   N     N_2   0.154678 0.732822 0.884079 -0.305443
N18   N     N_2   0.898243 0.220644 0.632951 -0.306434
N19   N     N_2   0.129767 0.796946 0.367082 -0.312389
N20   N     N_2   0.102092 0.220005 0.367010 -0.306033
N21   N     N_2   0.869677 0.797193 0.632839 -0.312613
N22   N     N_2   0.397396 0.719625 0.633042 -0.310457
N23   N     N_2   0.487329 0.566855 0.895660 -0.309629
N24   N     N_2   0.629784 0.296901 0.367126 -0.312526
N25   N     N_2   0.601952 0.720140 0.367009 -0.306308
N26   N     N_2   0.369761 0.297179 0.632854 -0.312702
N27   N     N_2   0.430190 0.432996 0.040491 -0.309582
N28   N     N_2   0.011815 0.066793 0.104144 -0.309357
N29   N     N_2   0.070422 0.933204 0.960332 -0.309547
N30   N     N_2   0.988397 0.066820 0.896219 -0.309609
N31   N     N_2   0.929623 0.933017 0.039632 -0.309524
N32   N     N_2   0.726507 0.691530 0.029208 -0.292440
O1    O     O_3   0.500000 0.250030 0.000000 -0.486352
O2    O     O_R   0.864560 0.268140 0.963700 -0.646708
O3    O     O_R   0.864560 0.731860 0.963700 -0.642393
O4    O     O_R   0.135440 0.268140 0.036300 -0.647471
O5    O     O_R   0.461440 0.268210 0.861400 -0.644198
O6    O     O_R   0.538560 0.731790 0.138600 -0.651574
O7    O     O_R   0.538560 0.268210 0.138600 -0.647806
O8    O     O_R   0.461440 0.731790 0.861400 -0.646481
O9    O     O_R   0.961440 0.768210 0.861400 -0.648042
O10   O     O_R   0.038560 0.231790 0.138600 -0.648002
O11   O     O_R   0.038560 0.768210 0.138600 -0.648354
O12   O     O_3   0.500000 0.749970 0.000000 -0.489283
O13   O     O_R   0.961440 0.231790 0.861400 -0.646097
O14   O     O_R   0.512550 0.319330 0.963650 -0.650589
O15   O     O_R   0.487450 0.680670 0.036350 -0.644399
O16   O     O_R   0.487450 0.319330 0.036350 -0.643265
O17   O     O_R   0.512550 0.680670 0.963650 -0.643711
O18   O     O_R   0.012550 0.819330 0.963650 -0.644875
O19   O     O_R   0.987450 0.180670 0.036350 -0.650233
O20   O     O_R   0.987450 0.819330 0.036350 -0.644155
O21   O     O_R   0.012550 0.180670 0.963650 -0.642858
O22   O     O_R   0.548940 0.180730 0.036330 -0.616713
O23   O     O_3   0.000000 0.750030 0.000000 -0.487513
O24   O     O_R   0.451060 0.819270 0.963670 -0.614874
O25   O     O_R   0.451060 0.180730 0.963670 -0.616048
O26   O     O_R   0.548940 0.819270 0.036330 -0.616593
O27   O     O_R   0.048940 0.680730 0.036330 -0.616255
O28   O     O_R   0.951060 0.319270 0.963670 -0.615413
O29   O     O_R   0.951060 0.680730 0.963670 -0.616537
O30   O     O_R   0.048940 0.319270 0.036330 -0.616069
O31   O     O_R   0.399960 0.231880 0.861420 -0.634376
O32   O     O_R   0.600040 0.768120 0.138580 -0.630436
O33   O     O_R   0.600040 0.231880 0.138580 -0.635942
O34   O     O_3   0.000000 0.249970 0.000000 -0.488019
O35   O     O_R   0.399960 0.768120 0.861420 -0.631913
O36   O     O_R   0.899960 0.731880 0.861420 -0.633840
O37   O     O_R   0.100040 0.268120 0.138580 -0.630853
O38   O     O_R   0.100040 0.731880 0.138580 -0.633803
O39   O     O_R   0.899960 0.268120 0.861420 -0.633742
O40   O     O_R   0.599090 0.268200 0.963630 -0.647306
O41   O     O_R   0.400910 0.731800 0.036370 -0.643802
O42   O     O_R   0.400910 0.268200 0.036370 -0.642130
O43   O     O_R   0.599090 0.731800 0.963630 -0.623062
O44   O     O_R   0.099090 0.768200 0.963630 -0.644312
O45   O     O_R   0.635440 0.231860 0.036300 -0.646064
O46   O     O_R   0.900910 0.231800 0.036370 -0.647377
O47   O     O_R   0.900910 0.768200 0.036370 -0.641912
O48   O     O_R   0.099090 0.231800 0.963630 -0.623327
O49   O     O_R   0.364560 0.768140 0.963700 -0.640589
O50   O     O_R   0.364560 0.231860 0.963700 -0.642402
O51   O     O_R   0.635440 0.768140 0.036300 -0.647504
O52   O     O_R   0.135440 0.731860 0.036300 -0.639832
Zn1   Zn    Zn3+2 0.430120 0.224080 0.948100 0.999916
Zn2   Zn    Zn3+2 0.482040 0.724010 0.051930 0.964520
Zn3   Zn    Zn3+2 0.482040 0.275990 0.051930 0.968406
Zn4   Zn    Zn3+2 0.517960 0.724010 0.948070 0.975780
Zn5   Zn    Zn3+2 0.017960 0.775990 0.948070 0.966126
Zn6   Zn    Zn3+2 0.982040 0.224010 0.051930 0.962653
Zn7   Zn    Zn3+2 0.982040 0.775990 0.051930 0.966827
Zn8   Zn    Zn3+2 0.017960 0.224010 0.948070 0.977072
Zn9   Zn    Zn3+2 0.569880 0.775920 0.051900 0.996767
Zn10  Zn    Zn3+2 0.569880 0.224080 0.051900 0.996266
Zn11  Zn    Zn3+2 0.430120 0.775920 0.948100 0.999573
Zn12  Zn    Zn3+2 0.930120 0.724080 0.948100 0.999473
Zn13  Zn    Zn3+2 0.069880 0.275920 0.051900 0.997221
Zn14  Zn    Zn3+2 0.069880 0.724080 0.051900 0.999670
Zn15  Zn    Zn3+2 0.930120 0.275920 0.948100 0.996255
Zn16  Zn    Zn3+2 0.517960 0.275990 0.948070 0.964641

loop_
_geom_bond_atom_site_label_1
_geom_bond_atom_site_label_2
_ccdc_geom_bond_type
O34   Zn15  S    
C38   H127  S    
C223  O10   A    
H26   N5    S    
H12   N2    S    
C115  H173  S    
C188  I7    S    
C46   C155  S    
C190  C198  A    
C112  C158  S    
O6    Zn2   S    
C24   C98   S    
C128  H28   S    
C131  H41   S    
C211  O4    A    
O19   Zn6   S    
C147  H104  S    
C130  H38   S    
C95   C99   A    
C83   I12   S    
C209  H112  S    
C106  C107  A    
C184  C193  A    
C132  H44   S    
O15   Zn2   S    
C81   I10   S    
C74   O25   A    
C142  H84   S    
C133  N10   S    
C110  C111  A    
C32   C52   A    
C207  N26   S    
C221  O9    A    
C38   C55   A    
C219  O7    A    
H198  N30   S    
C143  N20   S    
C148  H106  S    
C95   H144  S    
C4    C12   A    
C185  C194  A    
C214  H157  S    
C88   C97   A    
C85   C103  A    
C20   C29   A    
C199  N18   S    
C68   H158  S    
C57   C159  S    
C127  N4    S    
C135  N2    S    
C125  H14   S    
C15   H101  S    
C62   H133  S    
C125  N2    S    
C79   C161  S    
C64   H136  S    
C68   C158  S    
C214  C231  A    
C149  N26   S    
C14   H90   S    
C167  O43   A    
C11   C20   A    
C12   H79   S    
C141  H81   S    
C150  C159  S    
C152  N6    S    
O45   Zn10  S    
C1    C159  S    
H30   N6    S    
C168  N13   S    
C146  N3    S    
C133  H51   S    
C76   O27   A    
C141  N18   S    
C201  N19   S    
O11   Zn7   S    
C7    C28   A    
C126  H19   S    
C174  C227  A    
C35   C157  S    
C120  N29   S    
C147  H102  S    
H194  N29   S    
C181  C190  A    
C72   O20   A    
C57   H156  S    
O47   Zn7   S    
C140  H77   S    
C141  H80   S    
C163  C178  S    
C128  H29   S    
O35   Zn11  S    
C163  C172  S    
C86   I15   S    
O36   Zn12  S    
C144  H95   S    
O34   Zn13  S    
C60   C65   A    
C34   C54   A    
C153  C168  S    
C74   O22   A    
C9    H46   S    
C77   C103  S    
C1    O45   A    
C37   C45   A    
C90   C165  S    
C118  N27   S    
C33   H122  S    
C217  O31   A    
C16   C25   A    
C61   H132  S    
C218  O6    A    
C218  O32   A    
C217  O5    A    
C210  C228  A    
C136  H59   S    
O24   Zn11  S    
C221  O36   A    
C8    C17   A    
C110  H151  S    
O1    Zn10  S    
C89   C96   A    
C2    C96   S    
C59   C66   A    
C36   C55   A    
O3    Zn12  S    
C9    C21   A    
C155  C167  S    
C45   C50   A    
C138  H69   S    
C29   C193  S    
C204  C213  A    
C11   C23   A    
C207  C216  A    
C134  H54   S    
O32   Zn9   S    
C84   C93   A    
C148  H108  S    
C21   C196  S    
C101  C166  S    
C58   C59   A    
C86   C95   A    
C122  H5    S    
C181  H171  S    
C220  O35   A    
C112  O49   A    
C56   H128  S    
C80   C88   A    
C147  N24   S    
C169  N14   S    
O1    Zn1   S    
C120  H196  S    
C125  H16   S    
C71   O15   A    
C78   C87   A    
O48   Zn8   S    
C92   H141  S    
H65   N15   S    
C30   H119  S    
C135  C157  S    
C7    H24   S    
H61   N14   S    
H87   N20   S    
C86   C104  A    
C113  C168  S    
C123  H11   S    
C97   C222  S    
C76   O29   A    
H8    N32   S    
H48   N10   S    
C116  H177  S    
C83   C103  A    
C127  H23   S    
C33   C42   A    
C107  H148  S    
C122  N31   S    
C114  H153  S    
C56   C66   A    
O41   Zn2   S    
C93   H142  S    
C225  O39   A    
C40   C49   A    
C216  H179  S    
O43   Zn4   S    
C178  O52   A    
H4    N31   S    
C175  H165  S    
H21   N4    S    
C208  C226  A    
C77   O30   A    
C63   C69   A    
C202  N20   S    
O10   Zn6   S    
C8    C22   A    
C32   C41   A    
O4    Zn13  S    
C138  H66   S    
C129  H32   S    
C79   H159  S    
C123  N32   S    
C139  H71   S    
C152  C161  S    
C3    C217  S    
O17   Zn4   S    
C8    H35   S    
C201  C209  A    
C88   H138  S    
C183  I2    S    
C154  C163  S    
C139  N16   S    
C162  C171  S    
C215  C232  A    
C142  H86   S    
C120  H197  S    
C157  C165  S    
C177  C230  A    
C113  H162  S    
C44   N29   S    
C151  C165  S    
C46   C170  S    
C80   C102  A    
C13   C99   S    
C117  H183  S    
C225  O13   A    
C58   C65   A    
C160  C169  S    
C118  H188  S    
C149  H111  S    
O2    Zn15  S    
O1    Zn3   S    
O16   Zn3   S    
C51   C67   S    
C127  H22   S    
C145  H97   S    
C19   C28   A    
C218  C232  S    
C132  N9    S    
C109  C114  A    
C45   N30   S    
C177  H167  S    
C10   C25   A    
C140  H76   S    
C5    H2    S    
H185  N27   S    
C144  N21   S    
C84   C104  A    
C22   C195  S    
O22   Zn10  S    
C121  H200  S    
C37   C54   A    
C123  H9    S    
C4    C27   A    
C144  H94   S    
C32   H121  S    
C160  C211  S    
C30   C52   A    
C128  N5    S    
O18   Zn5   S    
C161  C200  S    
C198  C207  A    
O39   Zn15  S    
C126  N3    S    
O5    Zn16  S    
C34   C43   A    
C219  C231  S    
C106  H147  S    
C80   I9    S    
C43   C50   A    
C146  C158  S    
C108  H149  S    
C79   C124  S    
C156  O50   A    
C129  N6    S    
C189  O2    A    
O7    Zn3   S    
O44   Zn5   S    
C143  H91   S    
C14   C22   A    
C115  N1    S    
C130  H36   S    
C213  H146  S    
C136  H58   S    
C147  H103  S    
C212  C229  A    
C122  H6    S    
C182  I16   S    
C176  C229  A    
O23   Zn14  S    
C199  C208  A    
O26   Zn9   S    
O25   Zn1   S    
C140  N17   S    
C59   H130  S    
C220  O8    A    
C9    C18   A    
C173  H163  S    
C71   O17   A    
C124  C155  S    
C167  O51   A    
C46   H155  S    
C101  H161  S    
C36   H125  S    
O34   Zn8   S    
C48   C66   S    
C208  H1    S    
C200  O3    A    
C206  C215  A    
C76   C104  S    
O9    Zn5   S    
C165  N10   S    
C187  C196  A    
O50   Zn1   S    
C90   H160  S    
C46   C152  S    
C73   O19   A    
C79   C164  S    
C183  C192  A    
C34   H123  S    
C197  C206  A    
O29   Zn12  S    
C105  H145  S    
C176  C185  A    
H70   N16   S    
C23   C198  S    
C150  N4    S    
C60   H131  S    
C136  N13   S    
C137  H62   S    
C193  C202  A    
C109  H150  S    
C179  C187  A    
C94   C98   A    
C133  H50   S    
C119  H191  S    
C223  O37   A    
C31   C40   A    
C126  H20   S    
O40   Zn16  S    
C145  H99   S    
O13   Zn8   S    
C118  H186  S    
C180  C188  A    
H189  N28   S    
H74   N17   S    
C187  I6    S    
C192  C201  A    
C127  H25   S    
C153  N7    S    
C93   C99   A    
C13   C114  A    
C82   I11   S    
C74   C102  S    
C81   C89   A    
C63   H134  S    
C176  H166  S    
C170  N15   S    
H52   N11   S    
C35   C151  S    
C53   C70   S    
C113  C150  S    
C115  H174  S    
C4    H190  S    
H181  N23   S    
C143  H89   S    
C128  H27   S    
C124  N32   S    
C11   H68   S    
C156  O42   A    
C177  C186  A    
C131  H42   S    
C136  H60   S    
C130  H37   S    
C26   C192  S    
C180  H170  S    
C195  C204  A    
C3    C216  A    
C57   C153  S    
C112  O41   A    
C75   O24   A    
O38   Zn14  S    
C82   C102  A    
C61   C64   A    
C143  H88   S    
C62   C63   A    
C132  H45   S    
C78   I1    S    
C151  N5    S    
C55   C72   S    
C43   N28   S    
C17   H115  S    
C101  C163  S    
C10   C19   A    
H105  N25   S    
O21   Zn8   S    
C134  H55   S    
O34   Zn6   S    
C91   C97   A    
O42   Zn3   S    
H92   N21   S    
C3    C181  A    
C5    C14   A    
C7    C16   A    
C224  O11   A    
C78   C100  A    
C37   H126  S    
O49   Zn11  S    
C125  H15   S    
C212  H135  S    
C73   O21   A    
C182  C191  A    
C190  I8    S    
O51   Zn9   S    
C224  C227  S    
C129  H33   S    
C158  C166  S    
C148  N25   S    
C117  N23   S    
O20   Zn7   S    
C141  H82   S    
C137  H64   S    
C24   C109  A    
C205  N24   S    
O23   Zn12  S    
C6    C15   A    
C184  I3    S    
C174  C183  A    
C47   C51   A    
C219  O33   A    
C81   C100  A    
C75   O26   A    
C116  H178  S    
C220  C230  S    
C153  C162  S    
C126  H18   S    
O28   Zn15  S    
C171  N16   S    
C179  H169  S    
C52   C71   S    
H39   N8    S    
C68   C172  S    
C119  N28   S    
C70   O16   A    
C188  C197  A    
C186  I5    S    
C119  H192  S    
O33   Zn10  S    
C116  N12   S    
C135  C169  S    
C206  N25   S    
C90   C160  S    
C82   C91   A    
C5    C26   A    
C56   C60   A    
H172  N1    S    
H78   N18   S    
C6    C29   A    
C16   H113  S    
C175  C228  A    
C172  N17   S    
C221  C229  S    
O27   Zn14  S    
C154  C166  S    
C224  O38   A    
O12   Zn9   S    
C209  C227  A    
C138  H67   S    
C129  H31   S    
C162  C189  S    
C213  C230  A    
C39   C48   A    
C175  C184  A    
H96   N22   S    
C90   C135  S    
C146  C172  S    
C215  H168  S    
C200  O47   A    
C154  N8    S    
C6    H13   S    
H34   N7    S    
C92   C98   A    
C84   I13   S    
C77   O28   A    
C83   C92   A    
C35   H154  S    
C49   C65   S    
C62   C67   A    
C119  H193  S    
O12   Zn2   S    
C17   C26   A    
C156  C157  S    
C50   C69   S    
C191  C199  A    
C68   C154  S    
C173  C226  A    
C211  O48   A    
C133  H49   S    
C173  C182  A    
C130  N7    S    
C54   C73   S    
C2    C107  A    
H43   N9    S    
C134  H53   S    
C159  C168  S    
C148  H107  S    
C196  C205  A    
H100  N24   S    
C20   H118  S    
C113  C162  S    
C203  N21   S    
C150  C171  S    
C1    O40   A    
C121  H3    S    
O37   Zn13  S    
C30   C39   A    
C87   H137  S    
O23   Zn7   S    
C120  H195  S    
O52   Zn14  S    
C58   H129  S    
C18   H116  S    
C15   C23   A    
C131  N8    S    
C117  H182  S    
O31   Zn1   S    
C121  H199  S    
C24   C111  A    
C27   C191  S    
C202  C210  A    
C137  H63   S    
H83   N19   S    
C10   H57   S    
C166  N11   S    
C33   C53   A    
C105  C108  A    
C101  C146  S    
C116  H180  S    
C164  N9    S    
C131  H40   S    
C145  N22   S    
C64   C67   A    
C186  C195  A    
C25   C197  S    
C174  H164  S    
C115  H175  S    
C111  H152  S    
O14   Zn16  S    
C223  C228  S    
C70   O14   A    
C12   C21   A    
O46   Zn6   S    
C185  I4    S    
H109  N26   S    
C89   H139  S    
C13   C110  A    
C108  C222  A    
C85   C94   A    
C189  O46   A    
C28   C194  S    
C122  H7    S    
C138  N15   S    
O1    Zn16  S    
C87   C96   A    
C38   C47   A    
C225  C226  S    
C134  N11   S    
O12   Zn11  S    
C31   C53   A    
C39   N1    S    
C139  H72   S    
C152  C164  S    
C94   H143  S    
C161  C170  S    
C44   C51   A    
C149  H114  S    
C41   N23   S    
C178  O44   A    
C203  C212  A    
C31   H120  S    
O30   Zn13  S    
C204  N22   S    
C91   H140  S    
C61   C69   A    
C132  H47   S    
C180  C232  A    
O12   Zn4   S    
C142  H85   S    
H17   N3    S    
C18   C27   A    
C40   N12   S    
C205  C214  A    
C121  N30   S    
C139  H73   S    
C155  C164  S    
C2    C105  A    
C19   H117  S    
C151  C160  S    
O8    Zn4   S    
C85   I14   S    
O23   Zn5   S    
C117  H184  S    
C106  C222  A    
C210  H124  S    
C142  N19   S    
C35   C169  S    
C194  C203  A    
C75   C100  S    
C41   C48   A    
C137  N14   S    
C145  H98   S    
C47   N31   S    
C118  H187  S    
C36   C44   A    
C42   C49   A    
C72   O18   A    
C140  H75   S    
C124  C170  S    
C42   N27   S    
C149  H110  S    
H176  N12   S    
H56   N13   S    
C179  C231  A    
C123  H10   S    
C144  H93   S    
C57   C171  S    
