data_mof_unit_47435.cif
_audit_creation_date              2012-12-10T17:48:39-0500
_audit_creation_method            fapswitch 2.2
_symmetry_space_group_name_H-M    P1
_symmetry_Int_Tables_number       1
_space_group_crystal_system       triclinic
_cell_length_a                    15.721465
_cell_length_b                    10.608932
_cell_length_c                    9.978055
_cell_angle_alpha                 86.765114
_cell_angle_beta                  90.969322
_cell_angle_gamma                 93.037293
_cell_volume                      1659.07162213

loop_
_atom_site_label
_atom_site_type_symbol
_atom_type_description
_atom_site_fract_x
_atom_site_fract_y
_atom_site_fract_z
_atom_type_partial_charge
Br1   Br    Br    0.657433 0.238535 0.739738 -0.432969
Br2   Br    Br    0.681260 0.780252 0.332813 -0.430214
Br3   Br    Br    0.321172 0.839940 0.467642 -0.296640
Br4   Br    Br    0.082596 0.268894 0.332669 -0.198614
Br5   Br    Br    0.351275 0.053056 0.826319 -0.275733
Br6   Br    Br    0.916067 0.736155 0.352178 -0.338025
Br7   Br    Br    0.096579 0.486134 0.798846 -0.292451
C1    C     C_R   0.504245 0.260690 0.505039 0.907420
C2    C     C_R   0.736225 0.067228 0.585239 -0.119804
C3    C     C_R   0.740699 0.960658 0.511888 -0.086764
C4    C     C_R   0.338628 0.499135 0.499265 0.927877
C5    C     C_R   0.666223 0.898269 0.466807 0.239617
C6    C     C_R   0.585719 0.944069 0.495860 -0.025980
C7    C     C_R   0.583253 0.066527 0.540912 0.002205
C8    C     C_R   0.506010 0.127301 0.519582 -0.123403
C9    C     C_R   0.429806 0.060465 0.492656 -0.118487
C10   C     C_R   0.429264 0.931871 0.483678 0.309480
C11   C     C_R   0.507161 0.874000 0.483712 -0.134604
C12   C     C_3   0.944091 0.348959 0.502973 0.086835
C13   C     C_R   0.416205 0.289364 0.139021 0.307493
C14   C     C_R   0.401888 0.179233 0.068085 0.331639
C15   C     C_R   0.394409 0.190553 0.929107 0.226540
C16   C     C_R   0.504346 0.739976 0.495712 0.942287
C17   C     C_R   0.413400 0.306699 0.863592 -0.200075
C18   C     C_R   0.456582 0.404036 0.930356 0.016807
C19   C     C_R   0.457184 0.400526 0.074577 0.023155
C20   C     C_R   0.542581 0.591309 0.067689 -0.082088
C21   C     C_R   0.544559 0.589853 0.925679 0.461351
C22   C     C_R   0.661380 0.498641 0.501026 0.919278
C23   C     C_3   0.916908 0.488480 0.500184 -0.057489
C24   C     C_3   0.043656 0.346409 0.494567 0.498459
C25   C     C_3   0.050634 0.562197 0.372552 -0.447769
C26   C     C_3   0.952405 0.562483 0.371895 0.163151
C27   C     C_1   0.750146 0.494977 0.502970 -0.035568
C28   C     C_3   0.082738 0.486555 0.500317 -0.129353
C29   C     C_3   0.953955 0.549157 0.627807 -0.479066
C30   C     C_3   0.052537 0.554803 0.626645 0.569224
C31   C     C_1   0.825338 0.491677 0.502408 0.107986
C32   C     C_1   0.174386 0.489606 0.498484 0.148437
C33   C     C_1   0.249745 0.494059 0.497941 0.012574
C34   C     C_R   0.658261 0.121259 0.600760 0.233531
Cl1   Cl    Cl    0.886728 0.259077 0.378999 -0.510220
Cl2   Cl    Cl    0.082030 0.242087 0.627479 -0.428588
Cl3   Cl    Cl    0.336678 0.295220 0.258708 -0.498847
Cl4   Cl    Cl    0.374209 0.032830 0.153454 -0.424061
Cl5   Cl    Cl    0.611469 0.704334 0.840749 -0.515633
Cl6   Cl    Cl    0.091315 0.717994 0.622238 -0.416877
H1    H     H_    0.923164 0.302241 0.600473 0.174416
H2    H     H_    0.927291 0.515311 0.281495 0.202668
H3    H     H_    0.930070 0.492954 0.718287 0.210512
H4    H     H_    0.929732 0.645133 0.635376 0.262642
H5    H     H_    0.370559 0.108134 0.481920 0.220286
H6    H     H_    0.793785 0.108314 0.629774 0.208326
H7    H     H_    0.802338 0.926048 0.490847 0.230636
H8    H     H_    0.577770 0.665523 0.117885 0.211981
H9    H     H_    0.394856 0.317991 0.760543 0.232552
H10   H     H_    0.079353 0.660238 0.366905 0.283572
H11   H     H_    0.071749 0.521775 0.279171 0.228927
N1    N     N_R   0.499210 0.498800 0.142780 -0.118467
N2    N     N_R   0.499180 0.498720 0.857170 -0.121769
O1    O     O_R   0.500000 0.316780 0.614690 -0.618250
O2    O     O_R   0.499990 0.316750 0.385360 -0.593562
O3    O     O_R   0.377150 0.500020 0.614720 -0.628844
O4    O     O_R   0.377140 0.499990 0.385380 -0.547059
O5    O     O_R   0.500010 0.683250 0.614640 -0.556737
O6    O     O_R   0.500000 0.683220 0.385310 -0.585907
O7    O     O_R   0.622860 0.500010 0.614620 -0.559636
O8    O     O_R   0.622850 0.499980 0.385280 -0.592717
Zn1   Zn    Zn3+2 0.500010 0.500020 0.653130 1.059176
Zn2   Zn    Zn3+2 0.499990 0.499980 0.346870 1.061232

loop_
_geom_bond_atom_site_label_1
_geom_bond_atom_site_label_2
_ccdc_geom_bond_type
C28   C32   S    
Br6   C26   S    
C18   N2    A    
O4    Zn2   S    
C30   Cl6   S    
C22   O8    A    
C2    C3    A    
C24   Cl2   S    
C20   H8    S    
C2    C34   A    
C23   C26   S    
C12   Cl1   S    
C23   C29   S    
C1    O1    A    
Br2   C5    S    
C25   C26   S    
C16   O5    A    
C10   C11   A    
Br7   C30   S    
C29   H3    S    
C6    C11   A    
C18   C19   A    
C20   N1    A    
C14   C15   A    
C5    C6    A    
O7    Zn1   S    
C21   Cl5   S    
O6    Zn2   S    
C29   H4    S    
C13   C19   A    
C25   H11   S    
C7    C34   A    
O5    Zn1   S    
C25   H10   S    
C16   O6    A    
Br1   C34   S    
C29   C30   S    
C28   C30   S    
C1    O2    A    
Br3   C10   S    
C1    C8    S    
C4    O3    A    
C21   N2    A    
O3    Zn1   S    
C4    C33   S    
C3    C5    A    
C15   C17   A    
Br4   C24   S    
C17   H9    S    
C3    H7    S    
C26   H2    S    
C11   C16   S    
C25   C28   S    
C9    H5    S    
N2    Zn1   S    
C20   C21   A    
C2    H6    S    
C17   C18   A    
O2    Zn2   S    
O8    Zn2   S    
C4    O4    A    
C19   N1    A    
C22   O7    A    
O1    Zn1   S    
C32   C33   T    
C7    C8    A    
C24   C28   S    
N1    Zn2   S    
C23   C31   S    
C13   Cl3   S    
C13   C14   A    
C6    C7    A    
C12   C23   S    
C22   C27   S    
C12   C24   S    
Br5   C15   S    
C8    C9    A    
C12   H1    S    
C9    C10   A    
C14   Cl4   S    
C27   C31   T    
