data_mof_unit_8118.cif
_audit_creation_date              2012-12-11T14:14:05-0500
_audit_creation_method            fapswitch 2.2
_symmetry_space_group_name_H-M    P1
_symmetry_Int_Tables_number       1
_space_group_crystal_system       triclinic
_cell_length_a                    17.112302
_cell_length_b                    7.238071
_cell_length_c                    17.036408
_cell_angle_alpha                 90.596296
_cell_angle_beta                  99.400771
_cell_angle_gamma                 89.485964
_cell_volume                      2081.62204258

loop_
_atom_site_label
_atom_site_type_symbol
_atom_type_description
_atom_site_fract_x
_atom_site_fract_y
_atom_site_fract_z
_atom_type_partial_charge
O1    O     O_R   0.414560 0.494370 0.416770 -0.548627
O2    O     O_R   0.585440 0.994370 0.583230 -0.535590
O3    O     O_R   0.578370 0.819590 0.429320 -0.512339
O4    O     O_R   0.421630 0.319590 0.570680 -0.537782
C1    C     C_R   0.603830 0.654002 0.413470 0.766347
C2    C     C_R   0.396226 0.156506 0.587096 0.771045
O5    O     O_R   0.414740 0.823790 0.407360 -0.514516
O6    O     O_R   0.585260 0.323790 0.592640 -0.534333
O7    O     O_R   0.420650 0.998510 0.561120 -0.531717
O8    O     O_R   0.579350 0.498510 0.438880 -0.548825
C3    C     C_R   0.386659 0.656055 0.386859 0.754328
C4    C     C_R   0.613036 0.155907 0.613257 0.769075
O9    O     O_3   0.502130 0.662240 0.550470 -0.380321
O10   O     O_3   0.497870 0.162240 0.449530 -0.375941
V1    V     V_3+5 0.499600 0.935390 0.490640 1.611078
V2    V     V_3+5 0.500400 0.435390 0.509360 1.567313
C5    C     C_2   0.796246 0.252519 0.773127 -0.152656
C6    C     C_2   0.198230 0.746868 0.231417 -0.141455
C7    C     C_2   0.811898 0.114197 0.827465 -0.221658
C8    C     C_2   0.187851 0.618021 0.171080 -0.226878
C9    C     C_2   0.716839 0.278590 0.723615 -0.050194
C10   C     C_2   0.277362 0.780259 0.280616 0.004392
C11   C     C_2   0.687118 0.144480 0.671476 -0.361638
C12   C     C_2   0.312303 0.644245 0.328496 -0.338739
H1    H     H_    0.721181 0.017294 0.669933 0.177029
H2    H     H_    0.282201 0.512412 0.325524 0.129187
C13   C     C_R   0.333176 0.154890 0.638436 -0.233072
C14   C     C_R   0.667940 0.641056 0.364250 -0.243844
C15   C     C_R   0.170588 0.112879 0.866155 -0.295393
C16   C     C_R   0.834385 0.630812 0.139074 -0.267027
C17   C     C_R   0.294620 0.975258 0.837801 0.396309
C18   C     C_R   0.708029 0.765156 0.161510 0.398504
C19   C     C_R   0.234469 0.988115 0.885170 0.337080
C20   C     C_R   0.767137 0.742052 0.114038 0.348550
C21   C     C_R   0.171899 0.235912 0.802207 -0.095438
C22   C     C_R   0.843553 0.548047 0.215281 -0.092084
C23   C     C_R   0.222654 0.198336 0.745211 -0.039787
C24   C     C_R   0.787803 0.588302 0.267732 -0.042603
C25   C     C_R   0.286445 0.069147 0.763350 -0.096546
C26   C     C_R   0.715002 0.677433 0.236529 -0.090816
C27   C     C_R   0.340197 0.043796 0.707385 -0.035783
C28   C     C_R   0.652348 0.682387 0.282388 -0.042214
C29   C     C_R   0.266068 0.269630 0.618458 -0.078731
C30   C     C_R   0.744104 0.578762 0.398778 -0.116491
C31   C     C_R   0.209467 0.284176 0.669429 0.393581
C32   C     C_R   0.803578 0.551073 0.351027 0.400543
O11   O     O_R   0.920750 0.773600 0.061260 -0.509977
O12   O     O_R   0.079250 0.273600 0.938740 -0.526825
O13   O     O_R   0.085340 0.439850 0.092570 -0.532091
O14   O     O_R   0.914660 0.939850 0.907430 -0.520178
C33   C     C_R   0.113051 0.608281 0.113141 0.781124
C34   C     C_R   0.886863 0.107784 0.886324 0.742723
O15   O     O_R   0.921720 0.444130 0.070790 -0.548987
O16   O     O_R   0.078280 0.944130 0.929210 -0.533272
O17   O     O_R   0.914480 0.269530 0.916840 -0.534047
O18   O     O_R   0.085520 0.769530 0.083160 -0.525222
C35   C     C_R   0.896618 0.613961 0.086862 0.818804
C36   C     C_R   0.104658 0.111523 0.914350 0.811108
O19   O     O_3   0.997840 0.601520 0.949550 -0.373257
O20   O     O_3   0.002160 0.101520 0.050450 -0.384560
V3    V     V_3+5 0.000400 0.328340 0.009360 1.630707
V4    V     V_3+5 0.999600 0.828340 0.990640 1.669787
C37   C     C_2   0.860436 0.368571 0.751987 0.858563
O21   O     O_2   0.923507 0.296759 0.743866 -0.513335
O22   O     O_R   0.847250 0.556364 0.736242 -0.622911
H3    H     H_    0.895213 0.619238 0.720936 0.336761
C38   C     C_2   0.131183 0.857422 0.255010 0.848239
O23   O     O_2   0.062695 0.805591 0.237461 -0.529222
O24   O     O_R   0.147292 0.017437 0.301376 -0.641640
H4    H     H_    0.097756 0.077143 0.315989 0.323736
C39   C     C_2   0.133501 0.420766 0.802929 0.939525
O25   O     O_2   0.062525 0.435935 0.803202 -0.514904
O26   O     O_R   0.179114 0.578728 0.799243 -0.626569
H5    H     H_    0.146334 0.696475 0.796992 0.303677
C40   C     C_2   0.906825 0.407043 0.235923 0.921106
O27   O     O_2   0.889524 0.251742 0.254564 -0.516802
O28   O     O_R   0.985818 0.451508 0.234208 -0.634939
H6    H     H_    0.023176 0.343339 0.248781 0.300156
C41   C     C_2   0.750782 0.974227 0.836018 0.891205
O29   O     O_2   0.768783 0.810376 0.839917 -0.505296
O30   O     O_R   0.673041 0.029482 0.840280 -0.606812
H7    H     H_    0.637346 0.921197 0.846169 0.356031
C42   C     C_2   0.254664 0.501083 0.151571 0.849412
O31   O     O_2   0.241584 0.345178 0.124548 -0.511276
O32   O     O_R   0.331630 0.570785 0.160672 -0.624034
H8    H     H_    0.371068 0.477912 0.144825 0.357135
C43   C     C_2   0.674259 0.453388 0.734071 0.939082
O33   O     O_2   0.644050 0.477211 0.793659 -0.501120
O34   O     O_R   0.671667 0.593299 0.677799 -0.624151
H9    H     H_    0.642406 0.707448 0.692624 0.288866
C44   C     C_2   0.312982 0.963662 0.273109 0.887594
O35   O     O_2   0.325937 0.012806 0.208051 -0.500175
O36   O     O_R   0.326023 0.085295 0.338000 -0.625105
H10   H     H_    0.349662 0.206288 0.324316 0.293791
C45   C     C_2   0.401165 0.896031 0.716049 0.902631
O37   O     O_2   0.381049 0.734340 0.707657 -0.514128
O38   O     O_R   0.481386 0.942134 0.731887 -0.647413
H11   H     H_    0.517221 0.829239 0.735670 0.301814
C46   C     C_2   0.568503 0.697817 0.242796 0.866104
O39   O     O_2   0.544168 0.595978 0.186516 -0.492286
O40   O     O_R   0.517864 0.828847 0.268877 -0.646088
H12   H     H_    0.462685 0.824620 0.236616 0.330591
C47   C     C_2   0.250930 0.362159 0.540006 0.881856
O41   O     O_2   0.236296 0.527833 0.536031 -0.506039
O42   O     O_R   0.252358 0.258094 0.470733 -0.636802
H13   H     H_    0.236850 0.333588 0.420858 0.311053
C48   C     C_2   0.761699 0.540919 0.485577 0.881799
O43   O     O_2   0.745276 0.656320 0.533354 -0.534822
O44   O     O_R   0.796549 0.372810 0.512440 -0.610288
H14   H     H_    0.804998 0.362907 0.572546 0.320350
Cl1   Cl    Cl    0.381446 0.851980 0.879363 -0.408877
Cl2   Cl    Cl    0.633169 0.933040 0.130775 -0.430366
Cl3   Cl    Cl    0.115559 0.381768 0.629960 -0.482950
Cl4   Cl    Cl    0.901599 0.509960 0.401150 -0.474308
Cl5   Cl    Cl    0.244301 0.859235 0.974508 -0.495408
Cl6   Cl    Cl    0.753504 0.848153 0.019835 -0.520170

loop_
_geom_bond_atom_site_label_1
_geom_bond_atom_site_label_2
_ccdc_geom_bond_type
C43   O33   D    
C37   O22   S    
O36   H10   S    
O26   H5    S    
C45   O37   D    
O1    C3    A    
C16   C20   A    
O2    C4    A    
O11   V4    S    
C9    C43   S    
O38   H11   S    
C25   C27   A    
O32   H8    S    
O5    C3    A    
C4    C11   S    
O40   H12   S    
C21   C23   A    
C12   H2    S    
C8    C33   S    
C44   O36   S    
C20   Cl6   S    
C16   C35   S    
C15   C19   A    
C3    C12   S    
C33   O18   A    
C14   C28   A    
O15   V3    S    
C7    C34   S    
C42   O31   D    
O13   C33   A    
O14   C34   A    
C10   C44   S    
C17   C19   A    
C34   O17   A    
O18   V4    S    
O5    V1    S    
C21   C39   S    
O6    V2    S    
C48   O44   S    
C2    O7    A    
C30   C32   A    
O30   H7    S    
C19   Cl5   S    
O13   V3    S    
C32   Cl4   S    
C38   O23   D    
O4    C2    A    
C44   O35   D    
C41   O30   S    
O15   C35   A    
O16   V4    S    
C6    C38   S    
O28   H6    S    
C14   C30   A    
C5    C9    S    
C37   O21   D    
O20   V3    S    
C38   O24   S    
C18   C20   A    
O4    V2    S    
C40   O27   D    
C22   C40   S    
C31   Cl3   S    
O11   C35   A    
C1    C14   S    
C29   C31   A    
C13   C27   A    
C2    C13   S    
O6    C4    A    
C47   O42   S    
O1    V2    S    
C7    C41   S    
O2    V1    S    
C40   O28   S    
C42   O32   S    
C9    C11   D    
O14   V4    S    
C10   C12   D    
C8    C42   S    
C48   O43   D    
C23   C31   A    
O3    V1    S    
C39   O26   S    
O16   C36   A    
C30   C48   S    
O19   V4    S    
C18   Cl2   S    
C46   O40   S    
C6    C10   S    
O3    C1    A    
C45   O38   S    
O12   C36   A    
O42   H13   S    
C15   C21   A    
C46   O39   D    
C16   C22   A    
C22   C24   A    
O7    V1    S    
C39   O25   D    
C23   C25   A    
O8    V2    S    
O44   H14   S    
C5    C37   S    
C24   C26   A    
O12   V3    S    
C27   C45   S    
O17   V3    S    
C26   C28   A    
C5    C7    D    
C17   C25   A    
C6    C8    D    
C18   C26   A    
O24   H4    S    
C29   C47   S    
C24   C32   A    
C41   O29   D    
C13   C29   A    
C1    O8    A    
C11   H1    S    
C15   C36   S    
O22   H3    S    
O9    V2    S    
C47   O41   D    
C43   O34   S    
C17   Cl1   S    
O10   V1    S    
O34   H9    S    
C28   C46   S    
