data_mof_unit_68505.cif
_audit_creation_date              2012-10-26T18:47:59-0400
_audit_creation_method            fapswitch 2.2
_symmetry_space_group_name_H-M    P1
_symmetry_Int_Tables_number       1
_space_group_crystal_system       triclinic
_cell_length_a                    15.859877
_cell_length_b                    8.700174
_cell_length_c                    7.598021
_cell_angle_alpha                 103.350065
_cell_angle_beta                  94.853991
_cell_angle_gamma                 93.811042
_cell_volume                      1012.40675719

loop_
_atom_site_label
_atom_site_type_symbol
_atom_type_description
_atom_site_fract_x
_atom_site_fract_y
_atom_site_fract_z
_atom_type_partial_charge
C1    C     C_R   0.495759 0.200246 0.454397 0.560022
C2    C     C_2   0.518785 0.966600 0.563807 0.040719
C3    C     C_R   0.340827 0.499672 0.500936 0.552855
C4    C     C_R   0.503899 0.799608 0.545813 0.581764
C5    C     C_R   0.659165 0.500252 0.499088 0.549972
C6    C     C_3   0.059396 0.542429 0.697865 0.009950
C7    C     C_3   0.040920 0.334119 0.396306 -0.074940
C8    C     C_3   0.940934 0.331668 0.388676 -0.117731
C9    C     C_1   0.748462 0.499243 0.497791 -0.025605
C10   C     C_3   0.083507 0.502426 0.497094 0.012475
C11   C     C_3   0.941995 0.372125 0.787072 -0.279628
C12   C     C_3   0.959734 0.519963 0.704569 0.121037
C13   C     C_3   0.848829 0.305427 0.776577 -0.420054
C14   C     C_3   0.397704 0.371929 0.940204 -0.057961
C15   C     C_3   0.373324 0.218228 0.994183 -0.359294
C16   C     C_3   0.891131 0.269973 0.197558 -0.293846
C17   C     C_3   0.800641 0.193135 0.195790 -0.426358
C18   C     C_3   0.933107 0.809469 0.493163 -0.244567
C19   C     C_3   0.839417 0.842323 0.489071 -0.424530
C20   C     C_3   0.916522 0.497973 0.502234 0.076261
C21   C     C_3   0.951882 0.634686 0.411488 -0.082516
C22   C     C_3   0.048806 0.621543 0.390555 0.013612
C23   C     C_1   0.824064 0.498469 0.498783 -0.011327
C24   C     C_1   0.175988 0.501693 0.500325 0.041535
C25   C     C_1   0.251515 0.500693 0.502276 0.061261
C26   C     C_2   0.480392 0.033206 0.437740 0.045174
Cu1   Cu    Cu3+1 0.509300 0.517380 0.684380 1.008902
Cu2   Cu    Cu3+1 0.490700 0.482620 0.315620 0.996014
H1    H     H_    0.919531 0.610147 0.271477 0.149944
H2    H     H_    0.978888 0.272039 0.728530 0.136067
H3    H     H_    0.968813 0.406975 0.931154 0.178574
H4    H     H_    0.427650 0.143514 0.985931 0.197433
H5    H     H_    0.350221 0.239215 0.129829 0.211257
H6    H     H_    0.319964 0.150145 0.897157 0.148568
H7    H     H_    0.345131 0.450547 0.959456 0.165266
H8    H     H_    0.403380 0.326665 0.797604 0.189996
H9    H     H_    0.792971 0.142748 0.315231 0.148875
H10   H     H_    0.753134 0.279932 0.188669 0.180775
H11   H     H_    0.785315 0.094546 0.072630 0.184343
H12   H     H_    0.573566 0.609765 0.045801 0.237641
H13   H     H_    0.886484 0.368064 0.130386 0.159928
H14   H     H_    0.924263 0.175930 0.114382 0.216143
H15   H     H_    0.803972 0.780887 0.356367 0.169212
H16   H     H_    0.809305 0.808002 0.601982 0.199632
H17   H     H_    0.834676 0.971569 0.507998 0.134885
H18   H     H_    0.966451 0.856576 0.630956 0.229014
H19   H     H_    0.959232 0.883755 0.406393 0.194197
H20   H     H_    0.090325 0.456382 0.764722 0.126513
H21   H     H_    0.061299 0.249848 0.478497 0.149922
H22   H     H_    0.922497 0.236295 0.454959 0.143704
H23   H     H_    0.053281 0.569958 0.243749 0.172196
H24   H     H_    0.809679 0.395089 0.850409 0.202102
H25   H     H_    0.819421 0.258970 0.635940 0.152612
H26   H     H_    0.846306 0.200986 0.836375 0.158015
I1    I     I_    0.127738 0.757249 0.869243 -0.234801
I2    I     I_    0.909213 0.710569 0.900571 -0.470041
I3    I     I_    0.375609 0.919096 0.243518 -0.262209
I4    I     I_    0.621385 0.078439 0.764755 -0.404298
I5    I     I_    0.095650 0.238681 0.142448 -0.405874
I6    I     I_    0.131282 0.839834 0.418890 -0.278915
N1    N     N_2   0.476670 0.456430 0.038530 -0.138242
N2    N     N_2   0.523330 0.543570 0.961470 -0.218648
O1    O     O_R   0.506050 0.286130 0.619770 -0.506927
O2    O     O_R   0.490330 0.256780 0.308370 -0.498483
O3    O     O_R   0.387300 0.514690 0.655770 -0.532784
O4    O     O_R   0.371580 0.485340 0.344370 -0.497184
O5    O     O_R   0.509670 0.743220 0.691630 -0.466355
O6    O     O_R   0.493950 0.713870 0.380230 -0.488405
O7    O     O_R   0.628420 0.514660 0.655630 -0.477287
O8    O     O_R   0.612700 0.485310 0.344230 -0.509560

loop_
_geom_bond_atom_site_label_1
_geom_bond_atom_site_label_2
_ccdc_geom_bond_type
C21   H1    S    
C6    C10   S    
C4    O5    A    
C2    C4    S    
C11   C12   S    
C2    I4    S    
C5    C9    S    
C5    O8    A    
Cu1   O3    S    
Cu1   N2    S    
C8    H22   S    
C7    C10   S    
C13   H24   S    
C15   H6    S    
Cu2   O4    S    
N1    N2    D    
Cu1   O7    S    
C20   C23   S    
C6    I1    S    
C18   H18   S    
C18   H19   S    
C12   C20   S    
C19   H17   S    
C11   H3    S    
C15   H4    S    
C8    C16   S    
C12   I2    S    
C21   C22   S    
C10   C22   S    
C6    C12   S    
C11   C13   S    
C3    O3    A    
Cu1   O1    S    
C8    C20   S    
C1    O1    A    
C16   C17   S    
C7    I5    S    
Cu2   O6    S    
C19   H15   S    
C13   H26   S    
C13   H25   S    
C17   H10   S    
C19   H16   S    
C22   I6    S    
C1    C26   S    
C26   I3    S    
C3    O4    A    
Cu1   O5    S    
Cu2   N1    S    
C18   C21   S    
C1    O2    A    
Cu2   O2    S    
C3    C25   S    
H12   N2    S    
C24   C25   T    
C7    H21   S    
C2    C26   D    
C18   C19   S    
C17   H11   S    
C14   H7    S    
C4    O6    A    
C7    C8    S    
C14   C15   S    
C9    C23   T    
C14   H8    S    
C17   H9    S    
C10   C24   S    
C20   C21   S    
C14   N1    S    
C16   H14   S    
C5    O7    A    
C16   H13   S    
C15   H5    S    
Cu2   O8    S    
C11   H2    S    
C22   H23   S    
Cu1   Cu2   S    
C6    H20   S    
