data_mof_unit_17205.cif
_audit_creation_date              2012-12-10T18:38:59-0500
_audit_creation_method            fapswitch 2.2
_symmetry_space_group_name_H-M    P1
_symmetry_Int_Tables_number       1
_space_group_crystal_system       triclinic
_cell_length_a                    10.819696
_cell_length_b                    11.564046
_cell_length_c                    10.732195
_cell_angle_alpha                 89.998951
_cell_angle_beta                  91.200124
_cell_angle_gamma                 90.001031
_cell_volume                      1342.51190622

loop_
_atom_site_label
_atom_site_type_symbol
_atom_type_description
_atom_site_fract_x
_atom_site_fract_y
_atom_site_fract_z
_atom_type_partial_charge
C1    C     C_R   0.500004 0.281075 0.500001 0.925735
C2    C     C_3   0.120933 0.524702 0.494823 0.098604
C3    C     C_3   0.879060 0.524703 0.505177 0.098592
C4    C     C_1   0.500020 0.839045 0.499995 -0.209907
C5    C     C_1   0.500033 0.940984 0.499992 -0.044272
C6    C     C_R   0.257359 0.511622 0.498252 0.847641
C7    C     C_R   0.742639 0.511619 0.501746 0.847674
C8    C     C_1   0.500000 0.500204 0.069637 0.004731
C9    C     C_1   0.500000 0.500204 0.930363 0.004696
C10   C     C_R   0.500005 0.718900 0.499998 0.929558
C11   C     C_1   0.500021 0.161014 0.500001 -0.212616
C12   C     C_3   0.074590 0.451668 0.608571 -0.403695
C13   C     C_3   0.065188 0.458022 0.380977 -0.445335
C14   C     C_3   0.934800 0.458034 0.619031 -0.445435
C15   C     C_3   0.925401 0.451658 0.391450 -0.403763
C16   C     C_1   0.500033 0.059160 0.499996 -0.016635
C17   C     C_3   0.076749 0.660671 0.496636 -0.026232
C18   C     C_3   0.923245 0.660673 0.503330 -0.026197
H1    H     H_    0.120663 0.471057 0.699064 0.186352
H2    H     H_    0.088253 0.491830 0.289105 0.161747
H3    H     H_    0.911716 0.491827 0.710876 0.161767
H4    H     H_    0.879329 0.471034 0.300960 0.186356
H5    H     H_    0.100113 0.359098 0.594943 0.168140
H6    H     H_    0.102598 0.368192 0.379286 0.174419
H7    H     H_    0.897389 0.368212 0.620730 0.174427
H8    H     H_    0.899882 0.359094 0.405100 0.168151
N1    N     N_1   0.500000 0.500010 0.180630 -0.087488
N2    N     N_1   0.500000 0.500010 0.819370 -0.087502
O1    O     O_R   0.500000 0.334450 0.602530 -0.607268
O2    O     O_R   0.500000 0.334450 0.397470 -0.607260
O3    O     O_R   0.314800 0.499980 0.602530 -0.611202
O4    O     O_R   0.314800 0.499980 0.397470 -0.645627
O5    O     O_R   0.685200 0.499980 0.602530 -0.645633
O6    O     O_R   0.685200 0.499980 0.397470 -0.611215
O7    O     O_R   0.500000 0.665550 0.602530 -0.604789
O8    O     O_R   0.500000 0.665550 0.397470 -0.604781
Zn1   Zn    Zn3+2 0.500000 0.500000 0.636920 0.964592
Zn2   Zn    Zn3+2 0.500000 0.500000 0.363080 0.964615
C19   C     C_R   0.142223 0.716372 0.617453 0.089891
C20   C     C_R   0.233282 0.804512 0.609105 -0.169413
C21   C     C_R   0.288467 0.855183 0.714937 -0.113313
C22   C     C_R   0.257779 0.818488 0.833279 -0.109119
C23   C     C_R   0.168997 0.733331 0.846481 -0.137833
C24   C     C_R   0.111694 0.684426 0.741336 -0.099537
H9    H     H_    0.262685 0.837639 0.521256 0.149563
H10   H     H_    0.355491 0.923731 0.705412 0.140895
H11   H     H_    0.301353 0.857479 0.914600 0.111612
H12   H     H_    0.141888 0.706749 0.938719 0.125072
H13   H     H_    0.037665 0.626809 0.760739 0.124075
C25   C     C_R   0.121479 0.736402 0.378480 0.040841
C26   C     C_R   0.203058 0.698522 0.284166 -0.150236
C27   C     C_R   0.255858 0.773645 0.198116 -0.137353
C28   C     C_R   0.224252 0.889578 0.196226 -0.115725
C29   C     C_R   0.134775 0.928934 0.276018 -0.129840
C30   C     C_R   0.082913 0.853994 0.362598 -0.144096
H14   H     H_    0.223597 0.611733 0.264813 0.163315
H15   H     H_    0.319505 0.740578 0.130159 0.127443
H16   H     H_    0.264395 0.947479 0.128969 0.118711
H17   H     H_    0.103185 0.017609 0.269406 0.124097
H18   H     H_    0.006446 0.889896 0.408942 0.130377
C31   C     C_R   0.878497 0.736420 0.621465 0.040797
C32   C     C_R   0.796866 0.698553 0.715725 -0.150197
C33   C     C_R   0.743904 0.773718 0.801634 -0.137167
C34   C     C_R   0.775417 0.889687 0.803445 -0.115798
C35   C     C_R   0.865012 0.929016 0.723771 -0.129938
C36   C     C_R   0.917034 0.854028 0.637330 -0.144147
H19   H     H_    0.776414 0.611746 0.735149 0.163260
H20   H     H_    0.680198 0.740664 0.869537 0.127463
H21   H     H_    0.735124 0.947635 0.870569 0.118745
H22   H     H_    0.896545 0.017718 0.730350 0.124110
H23   H     H_    0.993540 0.889930 0.591053 0.130415
C37   C     C_R   0.857768 0.716365 0.382500 0.089904
C38   C     C_R   0.766722 0.804520 0.390832 -0.169423
C39   C     C_R   0.711501 0.855159 0.284998 -0.113329
C40   C     C_R   0.742135 0.818409 0.166667 -0.109056
C41   C     C_R   0.830910 0.733245 0.153474 -0.137774
C42   C     C_R   0.888263 0.684386 0.258623 -0.099503
H24   H     H_    0.737345 0.837686 0.478667 0.149624
H25   H     H_    0.644485 0.923719 0.294518 0.140897
H26   H     H_    0.698524 0.857368 0.085344 0.111645
H27   H     H_    0.857972 0.706630 0.061231 0.125031
H28   H     H_    0.962287 0.626763 0.239223 0.124066

loop_
_geom_bond_atom_site_label_1
_geom_bond_atom_site_label_2
_ccdc_geom_bond_type
C24   H13   S    
C6    O4    A    
C21   C22   A    
C1    C11   S    
C40   C41   A    
C2    C12   S    
C28   C29   A    
C12   H5    S    
C37   C42   A    
C32   H19   S    
N2    Zn1   S    
C14   H3    S    
O7    Zn1   S    
C3    C7    S    
C17   C19   S    
N1    Zn2   S    
C35   H22   S    
O2    Zn2   S    
C3    C18   S    
C26   H14   S    
C38   C39   A    
C2    C13   S    
C5    C16   S    
C33   H20   S    
C31   C36   A    
C15   H4    S    
C8    C9    S    
C21   H10   S    
C10   O7    A    
O4    Zn2   S    
C23   H12   S    
C6    O3    A    
C30   H18   S    
C2    C17   S    
C7    O5    A    
C2    C6    S    
C17   C18   S    
C29   H17   S    
C18   C37   S    
C20   H9    S    
C39   C40   A    
C26   C27   A    
C41   C42   A    
C19   C20   A    
C4    C5    T    
C15   H8    S    
O5    Zn1   S    
O3    Zn1   S    
C13   H6    S    
C17   C25   S    
C23   C24   A    
C32   C33   A    
C11   C16   T    
C36   H23   S    
C38   H24   S    
C1    O1    A    
C25   C26   A    
C34   H21   S    
C3    C14   S    
C20   C21   A    
C12   C14   S    
C39   H25   S    
C13   C15   S    
C7    O6    A    
C22   C23   A    
C4    C10   S    
C3    C15   S    
C27   C28   A    
C40   H26   S    
C29   C30   A    
C13   H2    S    
O6    Zn2   S    
C37   C38   A    
C41   H27   S    
C28   H16   S    
C18   C31   S    
C19   C24   A    
C25   C30   A    
C34   C35   A    
O8    Zn2   S    
C42   H28   S    
C12   H1    S    
C1    O2    A    
C22   H11   S    
C14   H7    S    
C31   C32   A    
C27   H15   S    
C33   C34   A    
C35   C36   A    
O1    Zn1   S    
C8    N1    T    
C10   O8    A    
C9    N2    T    
