data_mof_unit_8603.cif
_audit_creation_date              2012-12-10T18:13:55-0500
_audit_creation_method            fapswitch 2.2
_symmetry_space_group_name_H-M    P1
_symmetry_Int_Tables_number       1
_space_group_crystal_system       triclinic
_cell_length_a                    10.937498
_cell_length_b                    9.574852
_cell_length_c                    23.52596
_cell_angle_alpha                 90.127516
_cell_angle_beta                  90.398635
_cell_angle_gamma                 90.175882
_cell_volume                      2463.6769288

loop_
_atom_site_label
_atom_site_type_symbol
_atom_type_description
_atom_site_fract_x
_atom_site_fract_y
_atom_site_fract_z
_atom_type_partial_charge
C1    C     C_R   0.260880 0.499654 0.498624 0.764905
C2    C     C_R   0.282723 0.547056 0.971613 -0.212656
C3    C     C_R   0.281247 0.536626 0.030894 -0.016229
C4    C     C_R   0.394693 0.541095 0.060897 -0.027181
C5    C     C_R   0.504878 0.531629 0.030026 -0.032552
C6    C     C_R   0.615940 0.515193 0.059151 -0.053441
C7    C     C_R   0.726261 0.522614 0.029449 -0.108987
C8    C     C_R   0.728982 0.550693 0.970901 -0.006613
C9    C     C_R   0.406185 0.560873 0.120105 0.558075
C10   C     C_R   0.614169 0.493428 0.118109 0.566286
C11   C     C_R   0.608563 0.561801 0.243020 -0.052908
C12   C     C_R   0.502416 0.500183 0.391762 0.832520
C13   C     C_R   0.607707 0.555447 0.302190 -0.181591
C14   C     C_R   0.506017 0.501575 0.330136 -0.022055
C15   C     C_R   0.405896 0.451608 0.299316 -0.108334
C16   C     C_R   0.407797 0.447174 0.239909 0.036093
C17   C     C_R   0.509063 0.508222 0.210429 0.240968
C18   C     C_R   0.388232 0.511711 0.758846 -0.083331
C19   C     C_R   0.385601 0.503518 0.699308 -0.042150
C20   C     C_R   0.496263 0.503406 0.669771 -0.050757
C21   C     C_R   0.606068 0.506291 0.699449 -0.182001
C22   C     C_R   0.607559 0.517989 0.758345 -0.068654
C23   C     C_R   0.740549 0.500062 0.499798 0.749385
C24   C     C_R   0.498246 0.534708 0.789912 0.247799
C25   C     C_3   0.077852 0.636419 0.522841 -0.359909
C26   C     C_3   0.076006 0.382613 0.536549 -0.422802
C27   C     C_3   0.937768 0.634564 0.527542 -0.170213
C28   C     C_3   0.935497 0.372727 0.532220 -0.143480
C29   C     C_3   0.073833 0.480732 0.436326 -0.416976
C30   C     C_3   0.124351 0.499184 0.498045 0.043518
C31   C     C_3   0.880530 0.499571 0.496684 -0.089125
C32   C     C_3   0.929727 0.491344 0.432983 0.020100
C33   C     C_3   0.611126 0.081972 0.529864 -0.048389
C34   C     C_3   0.612558 0.915193 0.527271 -0.078713
C35   C     C_3   0.392387 0.082010 0.532268 -0.181915
C36   C     C_3   0.396991 0.916552 0.535319 -0.208599
C37   C     C_3   0.490468 0.083149 0.442011 -0.122149
C38   C     C_3   0.485324 0.915844 0.442533 -0.117926
C39   C     C_R   0.499905 0.500532 0.608175 0.765638
C40   C     C_R   0.607325 0.583794 0.881188 0.545557
C41   C     C_R   0.392992 0.574273 0.882724 0.569337
C42   C     C_R   0.393027 0.555925 0.941584 -0.008693
C43   C     C_R   0.504780 0.544863 0.970459 -0.010985
C44   C     C_R   0.615782 0.559836 0.940427 -0.089280
Cu1   Cu    Cu3+1 0.499860 0.642410 0.500030 0.916967
Cu2   Cu    Cu3+1 0.499860 0.357590 0.500030 0.960165
H1    H     H_    0.688192 0.117020 0.503782 0.158743
H2    H     H_    0.687385 0.887449 0.498256 0.117450
H3    H     H_    0.381865 0.126388 0.575149 0.222690
H4    H     H_    0.401153 0.882641 0.580104 0.219410
H5    H     H_    0.811664 0.513580 0.052709 0.219136
H6    H     H_    0.686716 0.610677 0.222936 0.192548
H7    H     H_    0.302570 0.494777 0.779541 0.230948
N1    N     N_R   0.499258 0.561852 0.851944 -0.431138
N2    N     N_R   0.509723 0.519001 0.148525 -0.468126
N3    N     N_3   0.500250 0.143650 0.501250 -0.203597
N4    N     N_3   0.500250 0.856350 0.501250 -0.218536
O1    O     O_R   0.317570 0.620260 0.500030 -0.609385
O2    O     O_R   0.317570 0.379740 0.500030 -0.616167
O3    O     O_R   0.499840 0.620290 0.417900 -0.575019
O4    O     O_R   0.499840 0.379710 0.417900 -0.558045
O5    O     O_R   0.682190 0.620260 0.500010 -0.645565
O6    O     O_R   0.682190 0.379740 0.500010 -0.544327
O7    O     O_R   0.499920 0.620230 0.582140 -0.588395
O8    O     O_R   0.499920 0.379770 0.582140 -0.544589
O9    O     O_2   0.701919 0.643674 0.854394 -0.571109
O10   O     O_2   0.288331 0.616680 0.857969 -0.530438
O11   O     O_2   0.320840 0.634393 0.148224 -0.458890
O12   O     O_2   0.716249 0.447548 0.144460 -0.513416
H8    H     H_    0.196534 0.545629 0.948582 0.211496
C45   C     C_2   0.267275 0.496890 0.668440 0.386222
H9    H     H_    0.265137 0.502422 0.622630 0.027667
O13   O     O_2   0.170653 0.486153 0.693889 -0.529212
H10   H     H_    0.691700 0.499289 0.676646 0.133587
H11   H     H_    0.696511 0.506999 0.777671 0.197856
H12   H     H_    0.110708 0.722992 0.495198 0.175372
H13   H     H_    0.121978 0.282262 0.525825 0.174809
H14   H     H_    0.118359 0.655521 0.565654 0.175779
H15   H     H_    0.101619 0.403183 0.581359 0.189895
H16   H     H_    0.915373 0.624501 0.573555 0.169434
H17   H     H_    0.897890 0.379015 0.576187 0.150399
C46   C     C_2   0.898945 0.778910 0.510432 0.310254
H18   H     H_    0.897258 0.815512 0.467352 0.106801
O14   O     O_2   0.883677 0.865571 0.547428 -0.541134
C47   C     C_2   0.912117 0.228613 0.510249 0.420770
H19   H     H_    0.941977 0.195616 0.469126 0.120584
O15   O     O_2   0.881269 0.137788 0.542957 -0.577203
H20   H     H_    0.118369 0.559915 0.408829 0.212338
H21   H     H_    0.105358 0.377859 0.420155 0.139589
C48   C     C_2   0.888281 0.617618 0.399709 0.276915
H22   H     H_    0.799967 0.663616 0.407706 0.073437
O16   O     O_2   0.948285 0.664546 0.360360 -0.521982
C49   C     C_2   0.881617 0.372298 0.395882 0.261035
H23   H     H_    0.924236 0.352333 0.355285 0.150391
O17   O     O_2   0.791697 0.302556 0.407727 -0.561083
C50   C     C_2   0.637104 0.133020 0.591002 0.514598
H24   H     H_    0.727150 0.132564 0.608512 0.131196
O18   O     O_2   0.557078 0.156503 0.625211 -0.523027
C51   C     C_2   0.640454 0.842885 0.584083 0.519008
H25   H     H_    0.701171 0.754511 0.585776 0.110282
O19   O     O_2   0.589119 0.874162 0.628379 -0.535459
C52   C     C_2   0.161899 0.498047 0.056778 0.432715
H26   H     H_    0.092838 0.448124 0.030749 0.139350
O20   O     O_2   0.138363 0.516733 0.106721 -0.481168
C53   C     C_2   0.384583 0.143682 0.406360 0.466749
H27   H     H_    0.297348 0.168168 0.424230 0.043083
O21   O     O_2   0.394450 0.156946 0.355691 -0.508691
C54   C     C_2   0.369570 0.860746 0.413038 0.518960
H28   H     H_    0.280501 0.867042 0.432569 0.020460
O22   O     O_2   0.374173 0.816678 0.364374 -0.504548
H29   H     H_    0.575323 0.112341 0.419214 0.187767
H30   H     H_    0.563470 0.878828 0.416506 0.158153
H31   H     H_    0.304707 0.112084 0.512371 0.100815
H32   H     H_    0.307880 0.873106 0.521859 0.125265
C55   C     C_2   0.852004 0.563131 0.944278 0.409842
H33   H     H_    0.870641 0.630823 0.908929 0.167203
O23   O     O_2   0.938050 0.497127 0.963128 -0.591499
H34   H     H_    0.685463 0.594709 0.325975 0.151748
H35   H     H_    0.326098 0.413920 0.321848 0.175091
C56   C     C_2   0.303148 0.382388 0.209884 0.338580
H36   H     H_    0.209290 0.409533 0.214777 0.300324
O24   O     O_2   0.225310 0.306662 0.232704 -0.583721

loop_
_geom_bond_atom_site_label_1
_geom_bond_atom_site_label_2
_ccdc_geom_bond_type
Cu1   O3    S    
C49   H23   S    
Cu2   O2    S    
C41   C42   A    
C19   C45   S    
C19   C20   A    
C36   H32   S    
C29   H21   S    
C13   H34   S    
C7    C8    A    
C41   O10   S    
Cu1   Cu2   S    
C39   O7    A    
C53   O21   D    
Cu1   N4    S    
C37   C38   S    
C18   C24   A    
C29   C32   S    
C16   C56   S    
C5    C6    A    
C24   N1    S    
C15   C16   A    
Cu1   O5    S    
C54   H28   S    
C18   C19   A    
C29   H20   S    
C11   H6    S    
C18   H7    S    
C37   N3    S    
C23   O5    A    
C32   C48   S    
C35   C36   S    
C54   O22   D    
C16   C17   A    
C55   O23   D    
C50   O18   D    
C35   H3    S    
C34   N4    S    
C9    N2    A    
C17   N2    S    
C8    C55   S    
C33   N3    S    
C23   O6    A    
C32   C49   S    
C5    C43   A    
C49   O17   D    
C40   O9    S    
C21   C22   A    
C39   O8    A    
C22   H11   S    
C56   O24   D    
C33   C34   S    
C47   O15   D    
Cu1   O1    S    
C26   H13   S    
Cu2   O4    S    
C27   C31   S    
C25   H14   S    
Cu2   O8    S    
C27   H16   S    
C45   O13   D    
C20   C39   S    
C47   H19   S    
C21   H10   S    
C23   C31   S    
C43   C44   A    
C37   C53   S    
C29   C30   S    
C38   N4    S    
C48   O16   D    
C31   C32   S    
C50   H24   S    
C34   C51   S    
C52   O20   D    
C10   N2    A    
C3    C52   S    
C51   O19   D    
C12   C14   S    
C26   C30   S    
C46   O14   D    
C28   C31   S    
C33   H1    S    
C22   C24   A    
C34   H2    S    
C42   C43   A    
C38   H30   S    
C3    C4    A    
C33   C50   S    
C36   H4    S    
C56   H36   S    
C36   N4    S    
C25   C30   S    
C11   C17   A    
C28   H17   S    
C26   C28   S    
C27   C46   S    
C8    C44   A    
C4    C5    A    
C35   N3    S    
C6    C7    A    
C25   C27   S    
C53   H27   S    
Cu1   O7    S    
C40   N1    A    
C26   H15   S    
C51   H25   S    
Cu2   O6    S    
C25   H12   S    
C1    O2    A    
C2    C3    A    
C9    O11   S    
C7    H5    S    
C45   H9    S    
C2    H8    S    
C1    O1    A    
C12   O4    A    
C11   C13   A    
C48   H22   S    
C2    C42   A    
C1    C30   S    
C15   H35   S    
C35   H31   S    
C38   C54   S    
C52   H26   S    
C41   N1    A    
C37   H29   S    
C6    C10   A    
C12   O3    A    
C10   O12   S    
C40   C44   A    
C20   C21   A    
C46   H18   S    
Cu2   N3    S    
C28   C47   S    
C14   C15   A    
C4    C9    A    
C13   C14   A    
C55   H33   S    
