data_mof_unit_11927.cif
_audit_creation_date              2013-03-05T15:42:33-0500
_audit_creation_method            fapswitch 2.2
_symmetry_space_group_name_H-M    P1
_symmetry_Int_Tables_number       1
_space_group_crystal_system       triclinic
_cell_length_a                    10.789695
_cell_length_b                    10.919228
_cell_length_c                    9.714757
_cell_angle_alpha                 89.767534
_cell_angle_beta                  91.006694
_cell_angle_gamma                 89.46196
_cell_volume                      1144.30813154

loop_
_atom_site_label
_atom_site_type_symbol
_atom_site_description
_atom_site_fract_x
_atom_site_fract_y
_atom_site_fract_z
_atom_type_partial_charge
O1    O     O_R   0.500020 0.321960 0.617040 -0.546286
O2    O     O_R   0.499980 0.321920 0.382900 -0.600541
C1    C     C_R   0.496482 0.265453 0.499980 0.848918
O3    O     O_R   0.319670 0.500020 0.617100 -0.587844
O4    O     O_R   0.319630 0.499980 0.382950 -0.595058
C2    C     C_R   0.262642 0.500995 0.498646 0.753895
Cu1   Cu    Cu3+1 0.500020 0.500020 0.638630 1.028562
Cu2   Cu    Cu3+1 0.499980 0.499980 0.361370 1.042808
O5    O     O_R   0.500020 0.678080 0.617100 -0.589566
O6    O     O_R   0.499980 0.678040 0.382960 -0.549228
O7    O     O_R   0.680370 0.500020 0.617050 -0.515462
O8    O     O_R   0.680330 0.499980 0.382900 -0.525895
C3    C     C_R   0.501305 0.734652 0.499902 0.835493
C4    C     C_R   0.737156 0.487581 0.502066 0.805007
H1    H     H_    0.102905 0.669458 0.407832 0.143688
C5    C     C_R   0.144981 0.275748 0.571848 -0.166343
H2    H     H_    0.243432 0.272831 0.553972 0.125623
C6    C     C_R   0.090906 0.169840 0.620096 -0.215805
H3    H     H_    0.147267 0.088940 0.640155 0.158062
C7    C     C_R   0.965945 0.169730 0.649603 -0.142465
H4    H     H_    0.927843 0.089112 0.697783 0.181451
C8    C     C_R   0.891713 0.274439 0.627037 0.314725
C9    C     C_R   0.942589 0.380093 0.561438 -0.027842
C10   C     C_R   0.072998 0.381850 0.543619 0.076749
C11   C     C_R   0.129412 0.489330 0.495606 -0.054205
C12   C     C_R   0.058830 0.588101 0.447467 -0.195195
H5    H     H_    0.877843 0.660534 0.410282 0.162836
C13   C     C_R   0.931177 0.583242 0.450514 -0.138319
C14   C     C_R   0.871903 0.482243 0.507996 -0.081563
C15   C     C_2   0.492855 0.933484 0.386387 -0.143592
C16   C     C_2   0.506837 0.866827 0.501742 -0.305698
H6    H     H_    0.479950 0.889036 0.287386 0.189042
H7    H     H_    0.525289 0.908097 0.601048 0.169028
C17   C     C_2   0.498545 0.067459 0.386514 -0.155509
C18   C     C_2   0.485784 0.133540 0.501427 -0.253433
H8    H     H_    0.512913 0.112319 0.288130 0.180401
H9    H     H_    0.465543 0.092084 0.599817 0.157505
C19   C     C_2   0.450461 0.413606 0.921371 0.032597
N1    N     N_2   0.498640 0.498660 0.846910 -0.238699
H10   H     H_    0.414864 0.332344 0.871225 0.140141
H11   H     H_    0.512528 0.582577 0.891779 0.232651
C20   C     C_2   0.435676 0.424442 0.075033 -0.021123
N2    N     N_2   0.498610 0.498630 0.153040 -0.065146
H12   H     H_    0.366748 0.367080 0.122498 0.111589
N3    N     N_R   0.611690 0.538667 0.103477 0.233530
O9    O     O_R   0.646069 0.650281 0.128651 -0.348480
O10   O     O_R   0.694695 0.459281 0.064612 -0.290835
N4    N     N_R   0.774565 0.276105 0.693235 0.106161
O11   O     O_R   0.762547 0.346495 0.799956 -0.277960
O12   O     O_R   0.706558 0.178541 0.686304 -0.398370

loop_
_geom_bond_atom_site_label_1
_geom_bond_atom_site_label_2
_geom_bond_distance
_ccdc_geom_bond_type
O4    Cu2   1.960842 S    
C8    N4    1.428207 S    
C9    C10   1.420993 A    
C16   H7    1.082536 S    
C15   H6    1.086417 S    
C6    C7    1.383355 A    
Cu2   N2    2.023785 S    
C1    C18   1.446119 S    
Cu2   O8    1.953473 S    
N4    O12   1.300539 A    
O2    C1    1.292877 A    
Cu1   Cu2   2.693508 S    
C5    C10   1.411980 A    
C5    C6    1.383963 A    
N3    O9    1.300171 A    
C10   C11   1.408669 A    
Cu1   O7    1.960840 S    
N2    N3    1.393035 S    
C13   C14   1.399249 A    
O4    C2    1.290636 A    
C20   H12   1.084662 S    
O3    Cu1   1.953473 S    
C9    C14   1.435531 A    
O3    C2    1.295325 A    
N4    O11   1.300680 A    
C19   H10   1.084199 S    
C7    C8    1.404063 A    
C19   C20   1.509076 S    
C17   H8    1.086423 S    
N3    O10   1.302311 A    
C15   C16   1.339306 D    
O7    C4    1.290482 A    
C2    C11   1.444127 S    
C20   N2    1.299556 D    
C15   C17   1.464768 S    
C4    C14   1.454621 S    
C19   N1    1.293391 D    
C7    H4    1.083147 S    
N1    H11   1.027433 S    
Cu2   O6    1.956403 S    
C17   C18   1.340119 D    
H5    C13   1.084663 S    
Cu1   O5    1.954652 S    
O5    C3    1.293470 A    
C8    C9    1.434091 A    
C6    H3    1.082806 S    
H1    C12   1.084054 S    
Cu1   N1    2.023701 S    
C18   H9    1.082540 S    
C11   C12   1.389182 A    
O1    Cu1   1.956404 S    
C12   C13   1.379687 A    
C3    C16   1.445218 S    
O2    Cu2   1.954653 S    
O8    C4    1.306407 A    
C5    H2    1.079559 S    
O1    C1    1.296153 A    
O6    C3    1.295480 A    
