data_mof_unit_61164.cif
_audit_creation_date              2013-03-05T16:26:37-0500
_audit_creation_method            fapswitch 2.2
_symmetry_space_group_name_H-M    P1
_symmetry_Int_Tables_number       1
_space_group_crystal_system       triclinic
_cell_length_a                    19.462659
_cell_length_b                    18.204735
_cell_length_c                    10.8182
_cell_angle_alpha                 89.847907
_cell_angle_beta                  92.991471
_cell_angle_gamma                 89.655474
_cell_volume                      3827.71470476

loop_
_atom_site_label
_atom_site_type_symbol
_atom_site_description
_atom_site_fract_x
_atom_site_fract_y
_atom_site_fract_z
_atom_type_partial_charge
O1    O     O_R   0.400190 0.561980 0.499980 -0.550220
O2    O     O_R   0.599810 0.438020 0.500020 -0.533125
O3    O     O_R   0.599810 0.561980 0.500020 -0.525287
O4    O     O_R   0.400190 0.438020 0.499980 -0.541513
C1    C     C_R   0.367986 0.500104 0.497977 0.905395
C2    C     C_R   0.632382 0.499930 0.491217 0.865835
O5    O     O_R   0.500000 0.561950 0.319660 -0.560237
O6    O     O_R   0.500000 0.438050 0.680340 -0.564799
O7    O     O_R   0.500000 0.561950 0.680340 -0.570612
O8    O     O_R   0.500000 0.438050 0.319660 -0.565915
C3    C     C_R   0.508430 0.500011 0.263033 0.835408
C4    C     C_R   0.491245 0.500007 0.736778 0.841837
Cu1   Cu    Cu3+1 0.500000 0.573360 0.500000 1.054577
Cu2   Cu    Cu3+1 0.500000 0.426640 0.500000 1.054756
H1    H     H_    0.532052 0.246844 0.101059 0.177917
H2    H     H_    0.463795 0.752907 0.898671 0.173631
H3    H     H_    0.462992 0.247624 0.902424 0.175443
H4    H     H_    0.532315 0.752926 0.097881 0.179965
C5    C     C_R   0.533646 0.635122 0.114074 -0.094829
C6    C     C_R   0.463437 0.365398 0.885710 -0.066996
C7    C     C_R   0.463689 0.635092 0.883897 -0.079654
C8    C     C_R   0.533920 0.364664 0.115406 -0.100420
C9    C     C_R   0.517156 0.701475 0.054887 -0.048050
C10   C     C_R   0.478887 0.298890 0.945226 -0.061087
C11   C     C_R   0.479452 0.701464 0.942307 -0.067658
C12   C     C_R   0.516946 0.298463 0.057441 -0.051609
C13   C     C_R   0.485809 0.567335 0.937607 0.097602
C14   C     C_R   0.512349 0.432697 0.061941 0.083718
C15   C     C_R   0.512225 0.567321 0.061265 0.083093
C16   C     C_R   0.485782 0.432881 0.938399 0.101217
C17   C     C_R   0.481812 0.500082 0.871959 -0.172822
C18   C     C_R   0.516950 0.500007 0.127597 -0.197298
H5    H     H_    0.564442 0.637628 0.199995 0.180366
H6    H     H_    0.433049 0.363294 0.799274 0.179827
H7    H     H_    0.432992 0.637467 0.797729 0.167808
H8    H     H_    0.565042 0.361853 0.201060 0.167573
C19   C     C_R   0.748542 0.435527 0.485681 0.256275
C20   C     C_R   0.256922 0.487698 0.598564 0.197197
C21   C     C_R   0.256743 0.512319 0.377095 0.257640
C22   C     C_R   0.741856 0.567114 0.443668 0.254027
C23   C     C_R   0.820019 0.439619 0.488837 -0.093944
C24   C     C_R   0.185194 0.488170 0.591204 -0.065204
C25   C     C_R   0.185197 0.516981 0.372395 -0.086877
C26   C     C_R   0.813327 0.568504 0.438755 -0.082008
H9    H     H_    0.850401 0.390029 0.504204 0.205188
H10   H     H_    0.157536 0.477059 0.673521 0.203198
H11   H     H_    0.157588 0.528436 0.284840 0.201669
H12   H     H_    0.838483 0.619038 0.414142 0.204133
C27   C     C_R   0.852776 0.505751 0.465700 0.062431
C28   C     C_R   0.149005 0.504283 0.478881 0.065133
C29   C     C_R   0.707944 0.500671 0.473930 -0.209353
C30   C     C_R   0.293051 0.500269 0.491350 -0.157663
C31   C     C_R   0.965970 0.554764 0.547177 0.226154
C32   C     C_R   0.035651 0.458694 0.391918 0.223296
C33   C     C_R   0.038043 0.556085 0.547266 0.221464
C34   C     C_R   0.963564 0.462062 0.383920 0.219425
C35   C     C_R   0.073137 0.506489 0.472382 -0.143205
C36   C     C_R   0.928499 0.508172 0.464667 -0.140543
C37   C     C_R   0.455437 0.723030 0.421412 0.308299
C38   C     C_R   0.543416 0.277418 0.581624 0.338771
C39   C     C_R   0.545228 0.721423 0.578908 0.339543
C40   C     C_R   0.456009 0.278248 0.419490 0.305408
C41   C     C_R   0.455286 0.800771 0.420131 0.162225
C42   C     C_R   0.545098 0.199677 0.581149 0.167182
C43   C     C_R   0.546679 0.799211 0.579813 0.165856
C44   C     C_R   0.455991 0.200479 0.417190 0.160483
C45   C     C_R   0.501241 0.839554 0.499961 -0.213339
C46   C     C_R   0.501057 0.160564 0.498335 -0.215260
N1    N     N_R   0.500000 0.683620 0.500000 -0.271003
N2    N     N_R   0.500000 0.316380 0.500000 -0.272850
C47   C     C_R   0.560767 0.961153 0.471802 -0.060300
C48   C     C_R   0.441926 0.039021 0.526706 -0.063571
C49   C     C_R   0.442072 0.961900 0.527659 -0.066318
C50   C     C_R   0.560658 0.038322 0.471081 -0.063768
H13   H     H_    0.607070 0.931860 0.449441 0.180294
H14   H     H_    0.395607 0.068311 0.548991 0.174762
H15   H     H_    0.395821 0.933201 0.550523 0.175064
H16   H     H_    0.606926 0.067093 0.448519 0.178394
C51   C     C_R   0.501194 0.078146 0.498356 0.193623
C52   C     C_R   0.501455 0.922016 0.500077 0.192004
Br1   Br    Br    0.713202 0.337367 0.479611 -0.356018
Br2   Br    Br    0.303278 0.470033 0.756773 -0.464037
Br3   Br    Br    0.301952 0.516682 0.223755 -0.322915
Br4   Br    Br    0.695894 0.657462 0.394964 -0.413811
Br5   Br    Br    0.919366 0.614100 0.665283 -0.296782
Br6   Br    Br    0.082200 0.385113 0.297769 -0.295087
Br7   Br    Br    0.088152 0.627919 0.647044 -0.309787
Br8   Br    Br    0.913393 0.405513 0.258282 -0.317148
Br9   Br    Br    0.392961 0.675374 0.305125 -0.317564
Br10  Br    Br    0.600644 0.325322 0.707512 -0.329412
Br11  Br    Br    0.607070 0.671487 0.696535 -0.319719
Br12  Br    Br    0.392677 0.327885 0.304338 -0.309575
N3    N     N_R   0.409697 0.840179 0.334593 0.155423
O9    O     O_R   0.434314 0.885449 0.255063 -0.292894
O10   O     O_R   0.343400 0.834933 0.341980 -0.260217
N4    N     N_R   0.590107 0.160578 0.668069 0.155321
O11   O     O_R   0.656434 0.168230 0.665447 -0.237850
O12   O     O_R   0.565163 0.113874 0.744913 -0.297565
N5    N     N_R   0.593134 0.837065 0.664736 0.153905
O13   O     O_R   0.569562 0.883364 0.743819 -0.296775
O14   O     O_R   0.659280 0.829353 0.657179 -0.240089
N6    N     N_R   0.411184 0.162181 0.330027 0.155299
O15   O     O_R   0.344772 0.167949 0.335823 -0.254981
O16   O     O_R   0.436569 0.116765 0.251449 -0.295489

loop_
_geom_bond_atom_site_label_1
_geom_bond_atom_site_label_2
_geom_bond_distance
_ccdc_geom_bond_type
C26   C27   1.394236 A    
O5    Cu1   1.962529 S    
C44   C46   1.405890 A    
N3    O9    1.301154 A    
C13   C15   1.407887 A    
C22   Br4   1.926532 S    
C48   H14   1.082917 S    
O3    C2    1.298145 A    
C6    C16   1.416873 A    
O5    C3    1.298296 A    
O1    C1    1.292032 A    
C42   C46   1.405321 A    
C10   C12   1.388689 A    
C20   C24   1.394107 A    
C48   C51   1.406281 A    
C24   H10   1.083561 S    
C16   C17   1.416910 A    
C19   C29   1.422798 A    
C34   Br8   1.934329 S    
C20   C30   1.406332 A    
C40   N2    1.380604 A    
C37   Br9   1.916414 S    
C44   N6    1.435518 S    
O7    Cu1   1.961431 S    
C6    C10   1.393632 A    
C43   C45   1.405976 A    
C40   Br12  1.925641 S    
C1    C30   1.456440 S    
C2    C29   1.492281 S    
O3    Cu1   1.952332 S    
C6    H6    1.080918 S    
C46   C51   1.500384 S    
C21   C30   1.407402 A    
C7    C13   1.417086 A    
N3    O10   1.301005 A    
C8    C14   1.417513 A    
Cu1   Cu2   2.670997 S    
C20   Br2   1.918117 S    
O4    Cu2   1.952335 S    
Cu2   N2    2.007254 S    
C19   Br1   1.918691 S    
O2    C2    1.302128 A    
C23   C27   1.393840 A    
C47   C52   1.406896 A    
C32   C34   1.402116 A    
C31   C33   1.403041 A    
C41   C45   1.405173 A    
H3    C10   1.082569 S    
C40   C44   1.416043 A    
C13   C17   1.417531 A    
H4    C9    1.082601 S    
C14   C18   1.418921 A    
C42   N4    1.435683 S    
C5    H5    1.080604 S    
C32   Br6   1.934288 S    
C48   C49   1.403952 A    
H1    C12   1.082602 S    
C21   C25   1.392820 A    
C27   C36   1.475329 S    
N4    O12   1.301158 A    
C5    C9    1.393518 A    
N5    O13   1.301145 A    
C38   N2    1.381456 A    
O6    C4    1.298535 A    
N4    O11   1.300992 A    
N6    O16   1.301129 A    
C43   N5    1.435463 S    
C24   C28   1.401776 A    
C33   Br7   1.933734 S    
N5    O14   1.301008 A    
C37   N1    1.379158 A    
C3    C18   1.483111 S    
C50   C51   1.406686 A    
C33   C35   1.411459 A    
C4    C17   1.483374 S    
O8    Cu2   1.961432 S    
O1    Cu1   1.954813 S    
C5    C15   1.417306 A    
C39   N1    1.381713 A    
H2    C11   1.082572 S    
C7    C11   1.393434 A    
O6    Cu2   1.962528 S    
C28   C35   1.474906 S    
C45   C52   1.501232 S    
O4    C1    1.288666 A    
C47   C50   1.404836 A    
C31   C36   1.411220 A    
C25   C28   1.400678 A    
C7    H7    1.081254 S    
C38   Br10  1.927565 S    
C15   C18   1.418510 A    
C22   C29   1.426869 A    
C8    H8    1.081177 S    
C41   N3    1.435748 S    
C37   C41   1.415271 A    
C38   C42   1.415467 A    
C14   C16   1.407634 A    
C21   Br3   1.919586 S    
C26   H12   1.083808 S    
C47   H13   1.082881 S    
Cu1   N1    2.007254 S    
C49   C52   1.406799 A    
C34   C36   1.411606 A    
C9    C11   1.388704 A    
C19   C23   1.392206 A    
N6    O15   1.300978 A    
O2    Cu2   1.954809 S    
O7    C4    1.297285 A    
O8    C3    1.297534 A    
C8    C12   1.393537 A    
C39   C43   1.416615 A    
C22   C26   1.395182 A    
C49   H15   1.082896 S    
C50   H16   1.082921 S    
C23   H9    1.083905 S    
C31   Br5   1.933527 S    
C25   H11   1.083450 S    
C39   Br11  1.927494 S    
C32   C35   1.411537 A    
