data_mof_unit_16600.cif
_audit_creation_date              2012-12-10T17:02:59-0500
_audit_creation_method            fapswitch 2.2
_symmetry_space_group_name_H-M    P1
_symmetry_Int_Tables_number       1
_space_group_crystal_system       triclinic
_cell_length_a                    9.865575
_cell_length_b                    11.003211
_cell_length_c                    13.568404
_cell_angle_alpha                 94.111521
_cell_angle_beta                  82.841358
_cell_angle_gamma                 110.796131
_cell_volume                      1365.59981063

loop_
_atom_site_label
_atom_site_type_symbol
_atom_type_description
_atom_site_fract_x
_atom_site_fract_y
_atom_site_fract_z
_atom_type_partial_charge
C1    C     C_R   0.556532 0.745681 0.506790 0.721253
C2    C     C_R   0.458097 0.509099 0.964695 0.059352
C3    C     C_R   0.474378 0.467165 0.864465 0.018228
C4    C     C_R   0.547532 0.490590 0.032583 -0.061102
C5    C     C_R   0.669274 0.454533 0.996384 -0.083250
C6    C     C_R   0.684690 0.414733 0.896901 -0.141074
C7    C     C_R   0.583488 0.413085 0.833967 -0.166196
C8    C     C_R   0.510294 0.493527 0.136151 0.350797
C9    C     C_R   0.747819 0.486616 0.162327 0.302078
C10   C     C_R   0.380137 0.479540 0.797776 -0.317967
C11   C     C_2   0.587977 0.886227 0.513170 0.329807
C12   C     C_R   0.422479 0.482339 0.689583 0.817442
C13   C     C_2   0.476585 0.929581 0.534949 -0.322003
C14   C     C_2   0.407983 0.113886 0.505206 0.197064
C15   C     C_2   0.498553 0.068638 0.546160 0.446061
C16   C     C_2   0.924905 0.493819 0.490121 -0.005634
C17   C     C_2   0.083587 0.520171 0.500684 0.331859
C18   C     C_R   0.442109 0.254269 0.497958 0.762643
C19   C     C_R   0.575278 0.507852 0.309817 0.878405
C20   C     C_R   0.768076 0.450751 0.061626 0.430904
C21   C     C_R   0.614019 0.499724 0.201385 -0.337103
C22   C     C_R   0.256627 0.511505 0.835931 0.389366
C23   C     C_R   0.253555 0.569831 0.930515 0.480359
C24   C     C_R   0.356002 0.571931 0.993129 -0.316653
Cu1   Cu    Cu3+1 0.362000 0.479240 0.482530 0.981245
Cu2   Cu    Cu3+1 0.638000 0.520760 0.517470 0.996937
H1    H     H_    0.365702 0.862172 0.540891 0.161402
H2    H     H_    0.880123 0.435568 0.426050 0.189881
H3    H     H_    0.770927 0.378485 0.868330 0.168820
H4    H     H_    0.354068 0.623926 0.063585 0.219987
H5    H     H_    0.591931 0.367758 0.761469 0.174580
N1    N     N_2   0.845330 0.551960 0.543750 -0.128181
N2    N     N_2   0.154690 0.448120 0.456210 -0.113635
O1    O     O_R   0.426290 0.668220 0.490680 -0.563318
O2    O     O_R   0.659360 0.703290 0.520190 -0.552072
O3    O     O_R   0.326580 0.473880 0.629020 -0.541377
O4    O     O_R   0.559660 0.508940 0.658530 -0.550597
O5    O     O_R   0.340640 0.296710 0.479810 -0.594347
O6    O     O_R   0.573710 0.331780 0.509320 -0.545906
O7    O     O_R   0.440340 0.491060 0.341470 -0.521996
O8    O     O_R   0.673420 0.526120 0.370980 -0.561622
O9    O     O_3   0.849976 0.489093 0.224313 -0.559046
C25   C     C_3   0.958264 0.614019 0.222297 -0.211100
H6    H     H_    0.039321 0.616835 0.273038 0.180698
H7    H     H_    0.911256 0.690210 0.249056 0.125592
H8    H     H_    0.017176 0.636296 0.146737 0.213923
O10   O     O_3   0.288142 0.028716 0.462079 -0.596213
C26   C     C_3   0.164282 0.003075 0.532638 -0.361346
H9    H     H_    0.136938 0.092031 0.552599 0.183432
H10   H     H_    0.179014 0.960638 0.600855 0.133087
H11   H     H_    0.069751 0.930741 0.499551 0.209764
O11   O     O_3   0.730963 0.972338 0.506181 -0.536352
C27   C     C_3   0.794754 0.969131 0.407497 -0.298794
H12   H     H_    0.730794 0.992030 0.354006 0.153907
H13   H     H_    0.807898 0.873884 0.387261 0.148497
H14   H     H_    0.905293 0.044554 0.400814 0.188062
N3    N     N_3   0.164637 0.639100 0.548528 -0.546839
H15   H     H_    0.147004 0.630475 0.625437 0.236227
H16   H     H_    0.134220 0.714165 0.526818 0.187420
N4    N     N_3   0.070187 0.323844 0.425628 -0.527668
H17   H     H_    0.050677 0.263320 0.485724 0.234784
H18   H     H_    0.134563 0.292343 0.370253 0.242731
N5    N     N_3   0.871197 0.588510 0.642237 -0.445246
H19   H     H_    0.940320 0.685491 0.645637 0.201297
H20   H     H_    0.910332 0.525331 0.673908 0.224611
O12   O     O_3   0.888679 0.417876 0.026431 -0.515483
C28   C     C_3   0.859589 0.287168 0.048804 -0.326353
H21   H     H_    0.766904 0.220377 0.010109 0.127089
H22   H     H_    0.837658 0.271532 0.130201 0.194668
H23   H     H_    0.957382 0.261721 0.022130 0.166713
O13   O     O_3   0.369046 0.481458 0.173943 -0.549784
C29   C     C_3   0.278236 0.349684 0.165561 -0.250485
H24   H     H_    0.165194 0.341354 0.194526 0.190551
H25   H     H_    0.312646 0.287010 0.210400 0.148564
H26   H     H_    0.275408 0.313286 0.086963 0.141091
O14   O     O_3   0.146104 0.499629 0.778441 -0.563981
C30   C     C_3   0.057088 0.367028 0.773520 -0.278442
H27   H     H_    0.003713 0.331964 0.848220 0.176759
H28   H     H_    0.119118 0.304505 0.740085 0.144472
H29   H     H_    0.970109 0.355358 0.725495 0.164209
O15   O     O_3   0.146172 0.620604 0.963893 -0.517232
C31   C     C_3   0.192751 0.750005 0.933091 -0.334066
H30   H     H_    0.207908 0.754893 0.850585 0.174763
H31   H     H_    0.294901 0.811152 0.964914 0.134100
H32   H     H_    0.107199 0.791372 0.960886 0.180031
O16   O     O_3   0.618230 0.153224 0.590327 -0.529574
C32   C     C_3   0.607869 0.119673 0.690155 -0.304227
H33   H     H_    0.621080 0.024329 0.695803 0.184757
H34   H     H_    0.503061 0.119251 0.731858 0.112242
H35   H     H_    0.697855 0.193679 0.726276 0.163752

loop_
_geom_bond_atom_site_label_1
_geom_bond_atom_site_label_2
_ccdc_geom_bond_type
C16   H2    S    
C32   H33   S    
N5    H20   S    
Cu2   N1    S    
C14   C18   S    
C27   H13   S    
C1    C11   S    
C22   O14   S    
C4    C8    A    
O15   C31   S    
C5    C20   A    
C27   H12   S    
C10   C22   A    
C9    O9    S    
C20   O12   S    
C19   C21   S    
C3    C7    A    
Cu1   O7    S    
C5    C6    A    
Cu2   O6    S    
N3    H16   S    
N4    H18   S    
C12   O4    A    
C18   O6    A    
C11   O11   S    
C26   H11   S    
C16   C17   S    
C23   C24   A    
C12   O3    A    
Cu1   O1    S    
C27   H14   S    
C26   H10   S    
O12   C28   S    
C17   N2    D    
C29   H26   S    
C1    O1    A    
C30   H28   S    
C7    H5    S    
C28   H21   S    
O14   C30   S    
C29   H25   S    
O16   C32   S    
C4    C5    A    
Cu1   Cu2   S    
C30   H27   S    
N4    H17   S    
C28   H22   S    
C2    C4    A    
C25   H6    S    
Cu1   O5    S    
C9    C20   A    
O10   C26   S    
C8    C21   A    
C25   H7    S    
C6    C7    A    
C10   C12   S    
C15   O16   S    
C26   H9    S    
N2    N4    S    
C31   H31   S    
C13   C15   S    
C2    C24   A    
O9    C25   S    
O11   C27   S    
C1    O2    A    
C30   H29   S    
C8    O13   S    
C23   O15   S    
C14   C15   D    
N1    N5    S    
C29   H24   S    
Cu2   O4    S    
C14   O10   S    
C16   N1    D    
C31   H32   S    
C28   H23   S    
C32   H34   S    
C2    C3    A    
C18   O5    A    
O13   C29   S    
C3    C10   A    
C11   C13   D    
C9    C21   A    
N3    H15   S    
C25   H8    S    
C24   H4    S    
C19   O7    A    
Cu1   O3    S    
N5    H19   S    
Cu2   O2    S    
C6    H3    S    
C31   H30   S    
C32   H35   S    
C17   N3    S    
C22   C23   A    
C13   H1    S    
C19   O8    A    
Cu2   O8    S    
Cu1   N2    S    
