data_mof_unit_53533.cif
_audit_creation_date              2012-12-11T18:11:26-0500
_audit_creation_method            fapswitch 2.2
_symmetry_space_group_name_H-M    P1
_symmetry_Int_Tables_number       1
_space_group_crystal_system       triclinic
_cell_length_a                    8.400211
_cell_length_b                    12.914642
_cell_length_c                    18.716819
_cell_angle_alpha                 98.93129
_cell_angle_beta                  91.915848
_cell_angle_gamma                 99.546598
_cell_volume                      1974.45542016

loop_
_atom_site_label
_atom_site_type_symbol
_atom_type_description
_atom_site_fract_x
_atom_site_fract_y
_atom_site_fract_z
_atom_type_partial_charge
Ba1   Ba    Ba6+2 0.852780 0.548340 0.465070 1.766204
Ba2   Ba    Ba6+2 0.337060 0.451750 0.534940 1.768543
Br1   Br    Br    0.947760 0.845835 0.793368 -0.502357
Br2   Br    Br    0.560325 0.307848 0.164978 -0.641675
C1    C     C_3   0.726640 0.884552 0.289058 0.343314
C2    C     C_R   0.930279 0.366998 0.089477 0.020598
C3    C     C_R   0.780274 0.405432 0.952875 0.032555
C4    C     C_3   0.200017 0.778594 0.265235 0.304518
C5    C     C_R   0.945077 0.443080 0.974799 0.055804
C6    C     C_R   0.715308 0.418326 0.885779 0.047119
C7    C     C_R   0.813881 0.462568 0.835184 0.052467
C8    C     C_R   0.977903 0.505593 0.856794 0.014126
C9    C     C_R   0.041831 0.500197 0.927860 -0.013159
C10   C     C_R   0.755265 0.462167 0.762961 0.077960
C11   C     C_R   0.862750 0.498770 0.712960 -0.250644
C12   C     C_3   0.629276 0.774737 0.290025 0.307982
C13   C     C_R   0.022445 0.546910 0.733770 0.050893
C14   C     C_R   0.078119 0.554370 0.807444 -0.084579
C15   C     C_R   0.167068 0.489689 0.069902 0.010613
C16   C     C_3   0.143347 0.752242 0.184750 0.367596
C17   C     C_R   0.227909 0.492718 0.143367 -0.007618
C18   C     C_R   0.124374 0.443526 0.191964 -0.021791
C19   C     C_R   0.982535 0.374567 0.162153 -0.017403
C20   C     C_R   0.228340 0.613347 0.834045 -0.024893
C21   C     C_R   0.286561 0.619234 0.905652 0.385983
C22   C     C_R   0.201608 0.552098 0.951624 -0.052919
C23   C     C_3   0.514825 0.269018 0.311290 0.282232
C24   C     C_R   0.265418 0.537692 0.020721 -0.027255
C25   C     C_R   0.429828 0.555739 0.037960 -0.024670
C26   C     C_R   0.392299 0.541005 0.166548 -0.131567
C27   C     C_R   0.496733 0.565925 0.108677 0.415218
C28   C     C_3   0.286020 0.786712 0.630092 0.310761
C29   C     C_R   0.438970 0.554390 0.243610 -0.008681
C30   C     C_R   0.321263 0.520439 0.291623 -0.214645
C31   C     C_R   0.168145 0.460697 0.267591 -0.036954
C32   C     C_R   0.749754 0.181746 0.539165 -0.143078
C33   C     C_R   0.432061 0.807291 0.468115 -0.267304
C34   C     C_3   0.440731 0.234984 0.233682 0.038092
C35   C     C_R   0.404685 0.981998 0.445108 -0.031403
C36   C     C_R   0.341174 0.874037 0.439056 -0.045928
C37   C     C_R   0.579205 0.848065 0.508631 0.046326
C38   C     C_R   0.640631 0.959909 0.518197 -0.068620
C39   C     C_R   0.550385 0.027337 0.486018 -0.033622
C40   C     C_3   0.215833 0.877742 0.605862 -0.350743
C41   C     C_R   0.607357 0.138861 0.496059 0.015617
C42   C     C_R   0.847842 0.116417 0.565545 0.180268
C43   C     C_R   0.790832 0.006277 0.556754 -0.023226
C44   C     C_3   0.086125 0.198588 0.329494 0.674974
C45   C     C_3   0.088992 0.214485 0.747973 0.708231
C46   C     C_3   0.099619 0.104031 0.271582 -0.221957
C47   C     C_3   0.732953 0.708427 0.682800 0.254846
C48   C     C_3   0.750958 0.743884 0.764657 0.108873
C49   C     C_3   0.163970 0.188281 0.817372 -0.302407
C50   C     C_3   0.482532 0.185606 0.691913 0.390891
C51   C     C_3   0.457959 0.077938 0.717803 -0.284276
C52   C     C_R   0.011410 0.433769 0.044637 0.059069
H1    H     H_    0.546501 0.779694 0.334763 -0.088840
H2    H     H_    0.633645 0.638602 0.670833 0.004352
H3    H     H_    0.758748 0.922877 0.345768 0.091079
H4    H     H_    0.756098 0.674586 0.792152 0.044204
H5    H     H_    0.645337 0.780007 0.783235 0.146279
H6    H     H_    0.553615 0.746880 0.239084 0.047671
H7    H     H_    0.458006 0.336072 0.336701 0.014585
H8    H     H_    0.646390 0.291833 0.309497 0.123272
H9    H     H_    0.318944 0.256264 0.230215 -0.012661
H10   H     H_    0.434123 0.148541 0.215510 0.222945
H11   H     H_    0.839493 0.876322 0.262273 0.144232
H12   H     H_    0.156404 0.920523 0.650589 0.176485
H13   H     H_    0.231589 0.708561 0.156193 -0.020863
H14   H     H_    0.137413 0.298390 0.742914 -0.013152
H15   H     H_    0.296293 0.198458 0.817900 0.112669
H16   H     H_    0.135693 0.242789 0.865450 0.106863
H17   H     H_    0.116891 0.104769 0.823699 0.173908
H18   H     H_    0.583494 0.188439 0.656296 0.068717
H19   H     H_    0.380297 0.193440 0.656718 0.051696
H20   H     H_    0.528177 0.083208 0.769893 0.211541
H21   H     H_    0.498912 0.017631 0.677085 0.081694
H22   H     H_    0.210227 0.701364 0.282347 -0.142467
H23   H     H_    0.311092 0.934885 0.586523 0.035305
H24   H     H_    0.330018 0.050698 0.727242 0.113467
H25   H     H_    0.819987 0.491476 0.656921 0.050276
H26   H     H_    0.587399 0.390221 0.873506 0.075098
H27   H     H_    0.908298 0.326449 0.194605 0.144519
H28   H     H_    0.299102 0.661556 0.800281 0.129673
H29   H     H_    0.355512 0.530722 0.348810 0.084762
H30   H     H_    0.696498 0.370051 0.988402 0.092207
H31   H     H_    0.822518 0.310530 0.069862 0.124252
H32   H     H_    0.320810 0.827329 0.271376 0.075177
H33   H     H_    0.507727 0.561420 0.993981 0.171851
H34   H     H_    0.125170 0.845693 0.560877 0.141385
H35   H     H_    0.337947 0.030289 0.418440 0.152081
H36   H     H_    0.866667 0.958287 0.579297 0.105557
H37   H     H_    0.791937 0.266806 0.546945 0.074099
H38   H     H_    0.383843 0.723137 0.461899 0.058727
H39   H     H_    0.026535 0.697905 0.178648 0.101278
H40   H     H_    0.406177 0.819128 0.658088 0.044806
H41   H     H_    0.300870 0.728019 0.581839 -0.011903
H42   H     H_    0.763219 0.161384 0.357532 0.361673
H43   H     H_    0.556342 0.943474 0.126184 0.407146
H44   H     H_    0.809444 0.030266 0.764829 0.383502
H45   H     H_    0.207292 0.244967 0.346395 -0.068448
H46   H     H_    0.892416 0.658405 0.039534 0.389355
H47   H     H_    0.578697 0.788574 0.036829 0.411879
H48   H     H_    0.951474 0.957203 0.115011 0.377699
H49   H     H_    0.995841 0.039171 0.269824 0.187203
H50   H     H_    0.208816 0.071359 0.284741 0.145914
H51   H     H_    0.104819 0.127230 0.216982 0.101875
H52   H     H_    0.847515 0.686207 0.663238 0.032549
O1    O     O_2   0.873090 0.425890 0.325140 -0.462003
O2    O     O_2   0.175936 0.124271 0.553408 -0.445270
O3    O     O_3   0.120536 0.143796 0.687137 -0.661133
O4    O     O_3   0.122420 0.434370 0.414380 -0.459282
O5    O     O_3   0.578370 0.633800 0.536380 -0.494733
O6    O     O_2   0.341510 0.231850 0.465510 -0.411866
O7    O     O_3   0.485416 0.184025 0.349951 -0.624413
O8    O     O_2   0.414462 0.450569 0.755617 -0.523970
O9    O     O_3   0.508528 0.267403 0.752495 -0.582608
O10   O     O_3   0.659500 0.627100 0.368810 -0.358928
O11   O     O_2   0.631977 0.493480 0.332929 -0.439136
O12   O     O_3   0.695828 0.792449 0.650276 -0.626333
O13   O     O_3   0.980507 0.258720 0.304928 -0.659123
O14   O     O_3   0.740779 0.707082 0.301908 -0.535263
O15   O     O_2   0.848200 0.768190 0.534530 -0.472050
O16   O     O_3   0.081160 0.685950 0.404810 -0.473923
O17   O     O_2   0.001974 0.871049 0.440588 -0.423720
O18   O     O_2   0.073753 0.065402 0.423693 -0.322984
O19   O     O_2   0.015702 0.246485 0.461857 -0.323849
O20   O     O_3   0.800469 0.106438 0.381432 -0.561293
O21   O     O_2   0.484454 0.993730 0.284095 -0.315964
O22   O     O_2   0.729593 0.061974 0.227806 -0.304892
O23   O     O_3   0.093084 0.831228 0.307598 -0.579370
O24   O     O_3   0.547723 0.891527 0.160246 -0.458479
O25   O     O_2   0.833101 0.224573 0.831877 -0.338578
O26   O     O_2   0.825026 0.267859 0.708689 -0.435275
O27   O     O_3   0.802152 0.068124 0.723095 -0.561647
O28   O     O_2   0.746190 0.723752 0.155049 -0.299758
O29   O     O_2   0.800688 0.542251 0.146013 -0.397841
O30   O     O_3   0.777806 0.623467 0.030392 -0.508259
O31   O     O_2   0.605578 0.688138 0.912346 -0.326275
O32   O     O_2   0.432459 0.817795 0.896238 -0.240020
O33   O     O_3   0.461394 0.768152 0.023452 -0.442225
O34   O     O_2   0.316610 0.574140 0.674900 -0.493054
O35   O     O_2   0.259696 0.955811 0.167577 -0.266303
O36   O     O_2   0.152018 0.828626 0.059745 -0.209753
O37   O     O_3   0.949892 0.901892 0.146313 -0.476668
O38   O     O_3   0.067290 0.565720 0.585630 -0.486266
O39   O     O_3   0.530210 0.372990 0.631200 -0.504849
O40   O     O_3   0.185356 0.744400 0.680252 -0.593712
O41   O     O_3   0.611340 0.366290 0.463630 -0.469838
O42   O     O_3   0.108550 0.314140 0.595200 -0.437114
P1    P     P_3+3 0.041040 0.394770 0.336330 1.003409
P2    P     P_3+3 0.672880 0.754030 0.556100 0.978262
P3    P     P_3+3 0.132441 0.819740 0.398739 1.034015
P4    P     P_3+3 0.148670 0.605320 0.663680 0.999888
P5    P     P_3+3 0.059076 0.177182 0.603128 1.107445
P6    P     P_3+3 0.657548 0.571085 0.278281 1.111990
P7    P     P_3+3 0.519518 0.229960 0.443356 0.993768
P8    P     P_3+3 0.550995 0.392533 0.725557 0.988331
S1    S     S_3+6 0.995822 0.152559 0.402874 -0.097989
S2    S     S_3+6 0.620357 0.962973 0.240623 -0.073488
S3    S     S_3+6 0.879701 0.195855 0.755531 -0.155817
S4    S     S_3+6 0.708873 0.614103 0.112865 -0.131974
S5    S     S_3+6 0.451188 0.725417 0.933904 -0.042549
S6    S     S_3+6 0.130206 0.863001 0.138737 -0.002748

loop_
_geom_bond_atom_site_label_1
_geom_bond_atom_site_label_2
_ccdc_geom_bond_type
C15   C52   A    
Ba2   O42   S    
C3    C6    A    
C9    C22   A    
C37   C38   A    
C1    H11   S    
C25   H33   S    
C29   P6    S    
C11   H25   S    
C37   P2    S    
O28   S4    D    
O18   S1    D    
O32   S5    D    
C42   P5    S    
Ba2   O4    S    
C4    C16   S    
C19   H27   S    
H43   O24   S    
O7    P7    S    
C33   C37   A    
C14   C20   A    
C24   C25   A    
C15   C17   A    
C30   C31   A    
C33   C36   A    
C48   H5    S    
Ba1   O4    S    
H46   O30   S    
O29   S4    D    
C51   H21   S    
C7    C10   A    
C3    H30   S    
C2    C19   A    
C23   C34   S    
C16   S6    S    
C28   H41   S    
Ba1   P2    S    
O22   S2    D    
Ba1   Ba2   S    
C43   H36   S    
C5    C9    A    
C1    C12   S    
C12   O14   S    
O2    P5    D    
C48   H4    S    
Ba1   O1    S    
C50   H18   S    
C32   H37   S    
C34   H10   S    
Ba1   O10   S    
O40   P4    S    
C46   H49   S    
O10   P6    S    
C49   H16   S    
C45   S3    S    
H44   O27   S    
C45   O3    S    
Ba2   O41   S    
C44   C46   S    
C27   S4    S    
Ba2   P4    S    
O16   P3    S    
O36   S6    D    
C4    H22   S    
O27   S3    S    
O5    P2    S    
Ba1   O38   S    
C31   P1    S    
C13   P4    S    
H47   O33   S    
C35   H35   S    
C38   C43   A    
O17   P3    D    
C13   C14   A    
C44   S1    S    
O12   P2    S    
C1    H3    S    
C47   C48   S    
O23   P3    S    
C41   P7    S    
C20   C21   A    
C6    C7    A    
C44   O13   S    
C47   H2    S    
C47   H52   S    
C35   C39   A    
C21   C22   A    
C6    H26   S    
C2    H31   S    
O13   P1    S    
C4    H32   S    
C30   H29   S    
Ba1   O15   S    
O6    P7    D    
O8    P8    D    
C18   C31   A    
O38   P4    S    
C34   H9    S    
C7    C8    A    
C1    S2    S    
C4    O23   S    
C47   O12   S    
C28   C40   S    
O4    P1    S    
C32   C41   A    
O30   S4    S    
C5    C52   A    
C42   C43   A    
O34   P4    D    
C32   C42   A    
C15   C24   A    
C39   C41   A    
C23   H7    S    
C51   H20   S    
C28   H40   S    
C16   H39   S    
Br2   C34   S    
O33   S5    S    
C45   H14   S    
C46   H51   S    
Ba2   O34   S    
C36   P3    S    
C40   H12   S    
C38   C39   A    
C49   H15   S    
O19   S1    D    
O35   S6    D    
C35   C36   A    
C40   H34   S    
C11   C13   A    
C50   C51   S    
C26   C29   A    
O1    P1    D    
O9    P8    S    
C18   C19   A    
O14   P6    S    
H48   O37   S    
C40   H23   S    
C49   H17   S    
C2    C52   A    
Ba1   O41   S    
C10   P8    S    
O25   S3    D    
Br1   C48   S    
C28   O40   S    
O37   S6    S    
Ba2   O38   S    
C17   C26   A    
O15   P2    D    
C22   C24   A    
O26   S3    D    
O42   P5    S    
O31   S5    D    
Ba2   O39   S    
Ba1   O16   S    
C25   C27   A    
C51   H24   S    
Ba2   O6    S    
C26   C27   A    
O3    P5    S    
C21   S5    S    
C45   C49   S    
C44   H45   S    
H42   O20   S    
Ba2   O5    S    
C29   C30   A    
C33   H38   S    
Ba1   P1    S    
C12   H1    S    
Ba1   O5    S    
C20   H28   S    
C16   H13   S    
C23   H8    S    
C50   H19   S    
O11   P6    D    
C3    C5    A    
C8    C9    A    
C12   H6    S    
C50   O9    S    
C8    C14   A    
C46   H50   S    
C10   C11   A    
C17   C18   A    
O39   P8    S    
O41   P7    S    
O24   S2    S    
O21   S2    D    
O20   S1    S    
C23   O7    S    
