data_mof_unit_29733.cif
_audit_creation_date              2012-12-11T17:00:17-0500
_audit_creation_method            fapswitch 2.2
_symmetry_space_group_name_H-M    P1
_symmetry_Int_Tables_number       1
_space_group_crystal_system       triclinic
_cell_length_a                    7.010674
_cell_length_b                    13.721916
_cell_length_c                    20.267841
_cell_angle_alpha                 103.033772
_cell_angle_beta                  90.172205
_cell_angle_gamma                 89.915928
_cell_volume                      1899.52348579

loop_
_atom_site_label
_atom_site_type_symbol
_atom_type_description
_atom_site_fract_x
_atom_site_fract_y
_atom_site_fract_z
_atom_type_partial_charge
O1    O     O_R   0.506770 0.599700 0.449550 -0.549267
O2    O     O_R   0.179980 0.595740 0.587960 -0.512761
O3    O     O_R   0.004580 0.400300 0.550450 -0.546699
C1    C     C_R   0.348623 0.615454 0.615757 0.761211
O4    O     O_R   0.177380 0.611700 0.452380 -0.542982
O5    O     O_R   0.001970 0.416370 0.413900 -0.515457
C2    C     C_R   0.345526 0.639947 0.437326 0.787567
O6    O     O_R   0.509390 0.583630 0.586100 -0.516481
O7    O     O_3   0.337530 0.435890 0.487530 -0.375496
V1    V     V_3+5 0.064660 0.511890 0.502310 1.596753
O8    O     O_R   0.671950 0.404260 0.412040 -0.542351
C3    C     C_R   0.841665 0.382748 0.384873 0.732103
O9    O     O_R   0.674540 0.388300 0.547620 -0.536194
C4    C     C_R   0.842700 0.362683 0.564874 0.806924
V2    V     V_3+5 0.564030 0.488110 0.497690 1.560851
O10   O     O_3   0.841030 0.564110 0.512470 -0.345104
C5    C     C_R   0.703257 0.129435 0.617705 -0.104581
H1    H     H_    0.631850 0.060274 0.594538 0.216336
C6    C     C_R   0.842401 0.284556 0.604016 -0.151158
C7    C     C_R   0.952644 0.308367 0.929913 0.340310
C8    C     C_R   0.019070 0.372641 0.890969 -0.267088
C9    C     C_R   0.000147 0.348284 0.820569 0.368327
C10   C     C_R   0.880413 0.267838 0.788168 -0.025501
C11   C     C_R   0.809282 0.203438 0.828840 -0.113945
C12   C     C_R   0.837199 0.245429 0.716881 0.046645
C13   C     C_R   0.731554 0.157506 0.688223 -0.020585
C14   C     C_R   0.648121 0.101651 0.730674 0.424481
C15   C     C_R   0.686822 0.124794 0.799727 -0.137465
C16   C     C_R   0.880643 0.310837 0.673757 -0.230379
C17   C     C_R   0.760556 0.191360 0.575785 0.348445
C18   C     C_R   0.864367 0.218682 0.897993 -0.172282
H2    H     H_    0.922767 0.387106 0.693934 0.203774
H3    H     H_    0.103808 0.437012 0.914287 0.167428
H4    H     H_    0.618185 0.080458 0.830597 0.173783
C19   C     C_R   0.738279 0.169565 0.233211 0.099626
C20   C     C_R   0.868225 0.183199 0.183919 -0.159626
C21   C     C_R   0.009182 0.256763 0.204827 -0.225060
H5    H     H_    0.118720 0.267340 0.169493 0.168808
C22   C     C_R   0.003952 0.321740 0.269777 0.348777
C23   C     C_R   0.857315 0.313282 0.316829 -0.166841
C24   C     C_R   0.734898 0.231147 0.297779 0.097236
C25   C     C_3   0.524401 0.221804 0.303148 -0.348961
C26   C     C_3   0.527869 0.155955 0.231760 -0.421658
H6    H     H_    0.451485 0.294192 0.306883 0.237014
H7    H     H_    0.483487 0.180606 0.342305 0.204293
H8    H     H_    0.456115 0.190193 0.193501 0.190248
H9    H     H_    0.490370 0.077397 0.230174 0.175710
C27   C     C_R   0.504081 0.750795 0.704898 0.010742
C28   C     C_R   0.357409 0.680780 0.685237 -0.119748
C29   C     C_R   0.228998 0.667856 0.736092 -0.160630
H10   H     H_    0.139880 0.602255 0.726773 0.204807
C30   C     C_R   0.236280 0.729317 0.802305 0.418665
C31   C     C_R   0.364457 0.810064 0.818064 -0.143011
C32   C     C_R   0.508949 0.813125 0.770476 -0.056966
C33   C     C_3   0.720681 0.794683 0.776197 0.647256
C34   C     C_3   0.715742 0.733139 0.702103 0.521893
C35   C     C_R   0.267155 0.884875 0.388537 -0.114861
H11   H     H_    0.245057 0.833519 0.480474 0.175776
H12   H     H_    0.223570 0.005625 0.305156 0.139037
H13   H     H_    0.218604 0.959367 0.412758 0.164784
C36   C     C_R   0.349138 0.717979 0.398113 -0.159710
C37   C     C_R   0.390387 0.688798 0.070257 -0.146923
C38   C     C_R   0.407338 0.613273 0.104862 -0.191399
C39   C     C_R   0.395278 0.634706 0.174983 -0.194203
C40   C     C_R   0.370640 0.734180 0.213437 0.085764
C41   C     C_R   0.342565 0.810202 0.176539 0.071415
C42   C     C_R   0.361570 0.760417 0.286381 -0.027138
C43   C     C_R   0.302026 0.859042 0.318611 0.072140
C44   C     C_R   0.269095 0.930633 0.280731 -0.158345
C45   C     C_R   0.290676 0.906933 0.211031 -0.223655
C46   C     C_R   0.399321 0.692681 0.329155 0.358379
C47   C     C_R   0.283608 0.813812 0.427389 -0.206474
C48   C     C_R   0.361439 0.787037 0.105137 -0.066209
H14   H     H_    0.395148 0.670735 0.015832 0.145365
H15   H     H_    0.398069 0.570082 0.196375 0.214654
H16   H     H_    0.429025 0.536886 0.077118 0.125628
H17   H     H_    0.258951 0.964473 0.183877 0.117432
O11   O     O_R   0.203450 0.916320 0.913910 -0.493193
O12   O     O_R   0.535520 0.888300 0.047620 -0.551160
O13   O     O_R   0.710860 0.083650 0.086100 -0.548258
C49   C     C_R   0.367459 0.864351 0.065911 0.672028
O14   O     O_R   0.532860 0.904250 0.912040 -0.533621
O15   O     O_R   0.708190 0.099710 0.949550 -0.557643
C50   C     C_R   0.365729 0.880991 0.885582 0.803889
O16   O     O_R   0.206120 0.900260 0.050460 -0.539554
O17   O     O_3   0.375280 0.064080 0.012470 -0.391864
V3    V     V_3+5 0.648180 0.988110 0.997690 1.504587
O18   O     O_R   0.038220 0.111740 0.952370 -0.524522
C51   C     C_R   0.869048 0.136511 0.934252 0.814854
O19   O     O_R   0.040880 0.095790 0.087940 -0.551388
C52   C     C_R   0.872513 0.116974 0.115013 0.704813
V4    V     V_3+5 0.148800 0.011950 0.002300 1.541110
O20   O     O_3   0.871820 0.935920 0.987530 -0.346334
Cl1   Cl    Cl    0.712095 0.153753 0.488298 -0.684784
Cl2   Cl    Cl    0.175658 0.417154 0.286239 -0.724165
Cl3   Cl    Cl    0.137025 0.684471 0.869231 -0.708418
O21   O     O_3   0.772993 0.747696 0.829853 -0.532462
C53   C     C_3   0.691375 0.653499 0.830387 0.138857
H18   H     H_    0.797992 0.594124 0.811178 0.222180
H19   H     H_    0.561608 0.636821 0.799528 0.083580
C54   C     C_3   0.647274 0.648211 0.903022 -0.234601
H20   H     H_    0.778828 0.664064 0.934137 0.237670
H21   H     H_    0.540214 0.706229 0.924207 0.190280
C55   C     C_3   0.572379 0.544905 0.906316 -0.891038
H22   H     H_    0.666283 0.484944 0.877712 0.234255
H23   H     H_    0.425625 0.534626 0.885497 0.274669
H24   H     H_    0.568000 0.537488 0.959489 0.221251
Cl4   Cl    Cl    0.855233 0.907475 0.787500 -0.553253
Cl5   Cl    Cl    0.788922 0.604741 0.684849 -0.748622
Cl6   Cl    Cl    0.480187 0.006381 0.700229 -0.603875
Cl7   Cl    Cl    0.817453 0.791673 0.639812 -0.491813
O22   O     O_3   0.476427 0.599257 0.304686 -0.565956
C56   C     C_3   0.673085 0.602520 0.319644 0.142568
H25   H     H_    0.710706 0.533519 0.336096 0.144011
H26   H     H_    0.717436 0.666349 0.361816 0.113951
C57   C     C_3   0.785339 0.603584 0.256168 -0.388471
H27   H     H_    0.782112 0.527812 0.221918 0.213128
H28   H     H_    0.724583 0.658941 0.229977 0.214176
C58   C     C_3   0.987217 0.635609 0.273951 -0.731076
H29   H     H_    0.991971 0.718431 0.289805 0.220692
H30   H     H_    0.075056 0.609012 0.228550 0.258288
H31   H     H_    0.041681 0.604164 0.316086 0.273325
O23   O     O_3   0.993087 0.326902 0.998569 -0.572301
C59   C     C_3   0.881173 0.407957 0.033853 0.059878
H32   H     H_    0.808152 0.384036 0.076164 0.127704
H33   H     H_    0.765446 0.431322 0.002748 0.115938
C60   C     C_3   0.010705 0.496509 0.063750 -0.294970
H34   H     H_    0.085142 0.481465 0.108933 0.204087
H35   H     H_    0.119493 0.505588 0.026097 0.208744
C61   C     C_3   0.899018 0.593886 0.083827 -0.797297
H36   H     H_    0.779657 0.584268 0.117024 0.231597
H37   H     H_    0.841447 0.615622 0.038217 0.239812
H38   H     H_    0.992710 0.654748 0.111422 0.251599
O24   O     O_3   0.113817 0.399133 0.784606 -0.558727
C62   C     C_3   0.296672 0.354708 0.778954 0.111573
H39   H     H_    0.290870 0.275117 0.750357 0.146957
H40   H     H_    0.360317 0.357090 0.829758 0.091590
C63   C     C_3   0.426498 0.413815 0.742743 -0.352640
H41   H     H_    0.405418 0.494465 0.764358 0.218442
H42   H     H_    0.577216 0.395720 0.750976 0.169088
C64   C     C_3   0.383371 0.392686 0.667492 -0.643176
H43   H     H_    0.479832 0.439049 0.644854 0.232255
H44   H     H_    0.235023 0.414285 0.658455 0.227148
H45   H     H_    0.406987 0.312522 0.643436 0.221420

loop_
_geom_bond_atom_site_label_1
_geom_bond_atom_site_label_2
_ccdc_geom_bond_type
C62   C63   S    
O15   V3    S    
C33   C34   S    
C54   H20   S    
C24   C25   S    
C61   H37   S    
C19   C20   A    
C1    O6    A    
O12   V3    S    
O21   C53   S    
O23   C59   S    
C31   C32   A    
C27   C32   A    
C13   C14   A    
C21   H5    S    
C9    O24   S    
C31   C50   S    
C5    C13   A    
C59   H33   S    
C20   C21   A    
O13   V3    S    
C64   H44   S    
O5    C3    A    
C8    H3    S    
C38   H16   S    
V2    O10   S    
C57   H27   S    
C62   H40   S    
C28   C29   A    
O22   C56   S    
C7    O23   S    
O8    V2    S    
C2    C36   S    
O18   V4    S    
C14   Cl6   S    
C43   C44   A    
C18   C51   S    
C29   C30   A    
C10   C11   A    
C37   C48   A    
O1    V2    S    
C19   C26   S    
O7    V1    S    
C34   Cl7   S    
C56   C57   S    
C36   C46   A    
C15   H4    S    
C54   H21   S    
O9    C4    A    
C45   H17   S    
C5    C17   A    
C25   H6    S    
C48   C49   S    
C55   H22   S    
O16   V4    S    
C29   H10   S    
C58   H30   S    
C12   C16   A    
O15   C51   A    
C42   C43   A    
C62   H39   S    
C64   H45   S    
C22   C23   A    
O12   C49   A    
O17   V3    S    
C35   H13   S    
O11   V4    S    
C12   C13   A    
C41   C48   A    
C25   H7    S    
C3    C23   S    
O2    C1    A    
C60   H35   S    
C37   C38   A    
O19   V4    S    
C58   H29   S    
C46   O22   S    
C33   O21   S    
C5    H1    S    
O18   C51   A    
C22   Cl2   S    
O24   C62   S    
O3    C4    A    
C63   H42   S    
H12   C44   S    
C59   C60   S    
C20   C52   S    
C23   C24   A    
C40   C41   A    
O6    V2    S    
O14   C50   A    
O9    V2    S    
C61   H38   S    
C25   C26   S    
C35   C43   A    
C60   H34   S    
C6    C16   A    
C34   Cl5   S    
C30   C31   A    
C36   C47   A    
O4    C2    A    
C56   H25   S    
C58   H31   S    
C27   C34   S    
C32   C33   S    
C27   C28   A    
O1    C2    A    
C4    C6    S    
C11   C15   A    
C63   C64   S    
O5    V1    S    
O8    C3    A    
C55   H23   S    
C16   H2    S    
C53   C54   S    
C1    C28   S    
C53   H19   S    
C40   C42   A    
C57   C58   S    
C33   Cl4   S    
C39   C40   A    
O13   C52   A    
C61   H36   S    
O7    V2    S    
C11   C18   A    
O4    V1    S    
C17   Cl1   S    
O3    V1    S    
V1    O10   S    
C64   H43   S    
H11   C47   S    
O19   C52   A    
C41   C45   A    
V3    O20   S    
V4    O20   S    
C39   H15   S    
C57   H28   S    
C30   Cl3   S    
C42   C46   A    
C10   C12   A    
C35   C47   A    
C44   C45   A    
C19   C24   A    
C26   H8    S    
C60   C61   S    
C63   H41   S    
C38   C39   A    
O11   C50   A    
C7    C8    A    
C21   C22   A    
C53   H18   S    
C14   C15   A    
C9    C10   A    
C37   H14   S    
O17   V4    S    
C54   C55   S    
C8    C9    A    
C6    C17   A    
C26   H9    S    
C55   H24   S    
C49   O16   A    
O14   V3    S    
C59   H32   S    
C56   H26   S    
C7    C18   A    
O2    V1    S    
