data_mof_unit_12745.cif
_audit_creation_date              2012-12-10T16:42:55-0500
_audit_creation_method            fapswitch 2.2
_symmetry_space_group_name_H-M    P1
_symmetry_Int_Tables_number       1
_space_group_crystal_system       triclinic
_cell_length_a                    7.485017
_cell_length_b                    8.732523
_cell_length_c                    13.029154
_cell_angle_alpha                 87.084363
_cell_angle_beta                  79.778518
_cell_angle_gamma                 102.784244
_cell_volume                      813.720741542

loop_
_atom_site_label
_atom_site_type_symbol
_atom_type_description
_atom_site_fract_x
_atom_site_fract_y
_atom_site_fract_z
_atom_type_partial_charge
C1    C     C_R   0.453480 0.200266 0.505536 0.824521
C2    C     C_R   0.546519 0.799735 0.494461 0.824482
C3    C     C_R   0.467949 0.497959 0.700801 0.801709
C4    C     C_R   0.532054 0.502048 0.299199 0.801720
C5    C     C_R   0.548626 0.507356 0.186153 -0.036695
C6    C     C_R   0.451390 0.492642 0.813848 -0.036692
C7    C     C_R   0.259918 0.402602 0.984615 -0.231944
C8    C     C_R   0.740128 0.597346 0.015383 -0.231972
C9    C     C_R   0.279438 0.418331 0.877057 -0.262697
C10   C     C_R   0.720581 0.581683 0.122945 -0.262656
C11   C     C_R   0.605756 0.556772 0.858837 0.091430
C12   C     C_R   0.394295 0.443155 0.141160 0.091471
C13   C     C_R   0.587372 0.539080 0.968271 0.096885
C14   C     C_R   0.412671 0.460862 0.031729 0.096903
C15   C     C_2   0.430894 0.033049 0.522058 -0.039868
C16   C     C_2   0.569105 0.966954 0.477938 -0.039865
Cu1   Cu    Cu3+1 0.686350 0.517570 0.488220 1.038280
Cu2   Cu    Cu3+1 0.313650 0.482430 0.511780 1.038263
H1    H     H_    0.840503 0.630811 0.156812 0.164542
H2    H     H_    0.159500 0.369245 0.843194 0.164533
H3    H     H_    0.124220 0.343377 0.029773 0.148259
H4    H     H_    0.875835 0.656537 0.970223 0.148261
N1    N     N_2   0.033570 0.455950 0.529530 0.166535
N2    N     N_2   0.966430 0.544050 0.470470 0.166532
O1    O     O_R   0.621060 0.286250 0.492350 -0.536349
O2    O     O_R   0.378940 0.713750 0.507650 -0.536377
O3    O     O_R   0.306310 0.256580 0.512240 -0.634595
O4    O     O_R   0.693690 0.743420 0.487760 -0.634591
O5    O     O_R   0.631800 0.512400 0.642670 -0.509800
O6    O     O_R   0.368200 0.487600 0.357330 -0.509810
O7    O     O_R   0.317060 0.482730 0.662570 -0.604743
O8    O     O_R   0.682940 0.517270 0.337430 -0.604727
N3    N     N_3   0.222225 0.357795 0.207066 -0.551189
H5    H     H_    0.116007 0.414318 0.197559 0.245381
H6    H     H_    0.188987 0.242799 0.185402 0.197214
N4    N     N_3   0.777899 0.641968 0.792927 -0.551083
H7    H     H_    0.811369 0.756952 0.814578 0.197211
H8    H     H_    0.883976 0.585290 0.802445 0.245390
O9    O     O_3   0.916956 0.396792 0.620649 -0.469829
C17   C     C_3   0.936988 0.243576 0.644406 -0.144238
H9    H     H_    0.062379 0.245967 0.678843 0.152254
H10   H     H_    0.939571 0.174487 0.575056 0.142909
H11   H     H_    0.814219 0.180984 0.704209 0.119292
O10   O     O_3   0.083018 0.603163 0.379337 -0.469815
C18   C     C_3   0.063039 0.756391 0.355570 -0.144247
H12   H     H_    0.060575 0.825513 0.424903 0.142889
H13   H     H_    0.937602 0.754028 0.321181 0.152269
H14   H     H_    0.185771 0.818925 0.295725 0.119290
N5    N     N_3   0.268754 0.943478 0.594582 -0.574025
H15   H     H_    0.149475 0.958672 0.568043 0.214137
H16   H     H_    0.267348 0.990393 0.666905 0.192558
N6    N     N_3   0.731244 0.056524 0.405414 -0.574017
H17   H     H_    0.850523 0.041337 0.431955 0.214149
H18   H     H_    0.732653 0.009603 0.333094 0.192556

loop_
_geom_bond_atom_site_label_1
_geom_bond_atom_site_label_2
_ccdc_geom_bond_type
C8    H4    S    
N1    N2    D    
C8    C13   A    
Cu2   O6    S    
C1    O3    A    
Cu1   O5    S    
C9    H2    S    
Cu2   O2    S    
C10   H1    S    
C3    O7    A    
C3    C6    S    
Cu1   O1    S    
C6    C9    A    
N4    H8    S    
N3    H5    S    
C4    O6    A    
C5    C10   A    
C2    O2    A    
C7    H3    S    
C13   C14   A    
O10   C18   S    
C15   N5    S    
C1    O1    A    
C11   C13   A    
C3    O5    A    
C4    O8    A    
C1    C15   S    
C17   H10   S    
C17   H9    S    
N3    H6    S    
C12   C14   A    
Cu1   Cu2   S    
C18   H13   S    
N2    O10   S    
N1    O9    S    
Cu1   N2    S    
C15   C16   D    
C16   N6    S    
C6    C11   A    
C2    C16   S    
N6    H17   S    
C5    C12   A    
C8    C10   A    
N5    H15   S    
C18   H14   S    
O9    C17   S    
C7    C9    A    
Cu1   O8    S    
N4    H7    S    
C2    O4    A    
Cu2   O7    S    
C12   N3    S    
C18   H12   S    
Cu1   O4    S    
C17   H11   S    
C7    C14   A    
Cu2   O3    S    
Cu2   N1    S    
N6    H18   S    
C4    C5    S    
N5    H16   S    
C11   N4    S    
