data_mof_unit_66739.cif
_audit_creation_date              2013-03-05T15:40:46-0500
_audit_creation_method            fapswitch 2.2
_symmetry_space_group_name_H-M    P1
_symmetry_Int_Tables_number       1
_space_group_crystal_system       triclinic
_cell_length_a                    8.380719
_cell_length_b                    13.054246
_cell_length_c                    15.2156
_cell_angle_alpha                 93.972896
_cell_angle_beta                  100.051935
_cell_angle_gamma                 98.096395
_cell_volume                      1615.21655215

loop_
_atom_site_label
_atom_site_type_symbol
_atom_site_description
_atom_site_fract_x
_atom_site_fract_y
_atom_site_fract_z
_atom_type_partial_charge
P1    P     P_3+3 0.998660 0.747790 0.570900 0.461246
O1    O     O_2   0.168170 0.764170 0.543850 -0.370886
O2    O     O_3   0.898670 0.629780 0.545890 -0.397940
O3    O     O_3   0.365980 0.695510 0.380810 -0.347914
O4    O     O_2   0.313976 0.879394 0.436334 -0.361525
O5    O     O_3   0.049134 0.773792 0.687927 -0.598381
O6    O     O_3   0.312809 0.861818 0.265142 -0.531102
C1    C     C_3   0.324432 0.881199 0.101622 -0.038533
H1    H     H_    0.291281 0.810424 0.053238 0.161888
P2    P     P_3+3 0.306970 0.411860 0.294270 0.468435
P3    P     P_3+3 0.870675 0.631688 0.221183 0.415787
O7    O     O_2   0.136040 0.444100 0.280280 -0.347034
O8    O     O_3   0.934510 0.640480 0.335500 -0.384773
O9    O     O_2   0.994117 0.573977 0.182776 -0.375496
O10   O     O_3   0.231963 0.279888 0.275581 -0.532802
O11   O     O_3   0.910643 0.758309 0.192079 -0.547979
C2    C     C_3   0.899311 0.825376 0.266167 0.492708
H2    H     H_    0.006069 0.826925 0.321356 0.163568
H3    H     H_    0.783363 0.802409 0.289501 0.001205
C3    C     C_3   0.897997 0.933774 0.239849 -0.980506
H4    H     H_    0.018211 0.963256 0.223474 0.300595
H5    H     H_    0.798493 0.933188 0.181246 0.290884
C4    C     C_3   0.781758 0.301609 0.262275 0.232899
H6    H     H_    0.687264 0.350982 0.269279 0.026036
H7    H     H_    0.902069 0.346868 0.286516 0.175359
C5    C     C_3   0.765183 0.261535 0.162881 0.114225
H8    H     H_    0.635443 0.230489 0.133106 0.129676
Ba1   Ba    Ba6+2 0.153570 0.551840 0.456200 1.563521
C6    C     C_3   0.033569 0.680484 0.728863 0.383035
H9    H     H_    0.135647 0.637322 0.722150 0.003770
H10   H     H_    0.922094 0.627480 0.698296 0.169784
C7    C     C_3   0.026331 0.703717 0.827232 -0.499727
H11   H     H_    0.100196 0.779890 0.854816 0.189731
H12   H     H_    0.896836 0.708383 0.833085 0.224724
C8    C     C_3   0.204382 0.236819 0.354453 0.304032
H13   H     H_    0.071944 0.209828 0.347539 0.089873
H14   H     H_    0.244816 0.290050 0.416965 0.094672
C9    C     C_3   0.291836 0.142976 0.361857 -0.382570
H15   H     H_    0.205753 0.070920 0.333986 0.183690
H16   H     H_    0.334153 0.133460 0.432711 0.193327
P4    P     P_3+3 0.811620 0.252200 0.429030 0.434543
O12   O     O_2   0.642110 0.235770 0.456130 -0.382477
O13   O     O_3   0.911620 0.370210 0.454030 -0.405425
O14   O     O_3   0.444310 0.304480 0.619110 -0.366078
O15   O     O_3   0.760525 0.216813 0.312579 -0.593597
P5    P     P_3+3 0.922346 0.351844 0.779234 0.443927
O16   O     O_3   0.400800 0.556680 0.607590 -0.378908
O17   O     O_3   0.875770 0.359510 0.664420 -0.394299
O18   O     O_2   0.814944 0.421896 0.820179 -0.383586
O19   O     O_3   0.849515 0.223887 0.796756 -0.536940
Ba2   Ba    Ba6+2 0.656590 0.448150 0.543720 1.548924
P6    P     P_3+3 0.412921 0.831257 0.371684 0.465004
C10   C     C_3   0.409496 0.852895 0.197251 0.419280
H17   H     H_    0.528312 0.905444 0.218815 0.046493
O20   O     O_3   0.409490 0.443300 0.392340 -0.400765
C11   C     C_3   0.444567 0.763721 0.716008 0.635518
H18   H     H_    0.327906 0.723047 0.677828 0.111627
C12   C     C_3   0.417031 0.857125 0.771605 -0.976683
H19   H     H_    0.535605 0.900097 0.807782 0.278058
H20   H     H_    0.353568 0.907851 0.726665 0.264462
H21   H     H_    0.343340 0.832313 0.822055 0.258377
P7    P     P_3+3 0.494343 0.574307 0.722451 0.445099
O21   O     O_2   0.674250 0.555830 0.719690 -0.357511
O22   O     O_3   0.529591 0.701926 0.771750 -0.595451
H22   H     H_    0.877447 0.985776 0.296046 0.234664
C13   C     C_3   0.865846 0.158529 0.722413 0.462316
H23   H     H_    0.795514 0.180076 0.659626 0.137377
H24   H     H_    0.995492 0.164871 0.715270 -0.014260
C14   C     C_3   0.796206 0.044972 0.727873 -0.416648
H25   H     H_    0.660662 0.033357 0.714328 0.251323
H26   H     H_    0.834279 0.999381 0.673071 0.144182
P8    P     P_3+3 0.391063 0.168851 0.624500 0.426954
C15   C     C_3   0.337673 0.162132 0.790379 0.657334
H27   H     H_    0.266541 0.222645 0.763942 0.004904
O23   O     O_2   0.509173 0.118006 0.573689 -0.404592
O24   O     O_3   0.450766 0.138207 0.735626 -0.525006
H28   H     H_    0.135940 0.088070 0.842592 0.253398
C16   C     C_3   0.222054 0.064863 0.800488 -1.042660
H29   H     H_    0.290299 0.010366 0.838309 0.296982
H30   H     H_    0.153590 0.025823 0.735582 0.251904
C17   C     C_R   0.071936 0.181389 0.537618 -0.540746
C18   C     C_R   0.741393 0.816928 0.451622 -0.429138
C19   C     C_R   0.693977 0.993576 0.428901 -0.211621
C20   C     C_R   0.636203 0.885567 0.416884 0.198021
C21   C     C_R   0.895261 0.851945 0.507107 0.278078
C22   C     C_R   0.956602 0.963158 0.515989 -0.061812
C23   C     C_R   0.854302 0.035250 0.476178 -0.042363
C24   C     C_R   0.915367 0.146760 0.487165 0.260120
C25   C     C_R   0.175212 0.112888 0.571464 0.200821
C26   C     C_R   0.117609 0.004886 0.561550 -0.227221
H31   H     H_    0.611385 0.044478 0.402543 0.201859
H32   H     H_    0.200460 0.954260 0.589297 0.191812
H33   H     H_    0.118366 0.263811 0.546816 0.169118
H34   H     H_    0.694863 0.734493 0.443112 0.175316
C27   C     C_R   0.235394 0.440013 0.763288 -0.471350
C28   C     C_R   0.141889 0.398381 0.823184 0.291536
C29   C     C_R   0.210671 0.404983 0.915346 -0.321406
C30   C     C_R   0.372447 0.458786 0.949301 0.077087
C31   C     C_R   0.465138 0.492388 0.884090 -0.261041
C32   C     C_R   0.395560 0.488199 0.793809 0.279106
C33   C     C_R   0.589955 0.555262 0.084694 0.102177
C34   C     C_R   0.660350 0.564175 0.176898 0.214760
C35   C     C_R   0.419183 0.460583 0.207739 0.288832
C36   C     C_R   0.361360 0.433852 0.115041 -0.323589
C37   C     C_R   0.443625 0.481437 0.050066 0.031956
C38   C     C_R   0.571330 0.521295 0.237348 -0.498191
H35   H     H_    0.132467 0.373211 0.959121 0.172555
H36   H     H_    0.249953 0.378875 0.095584 0.190340
H37   H     H_    0.594121 0.519886 0.899906 0.185325
H38   H     H_    0.621890 0.535103 0.308395 0.176851
H39   H     H_    0.180295 0.441023 0.693564 0.159418
N1    N     N_2   0.440899 0.747486 0.186071 -0.153800
H40   H     H_    0.531156 0.728236 0.234001 0.127206
C39   C     C_3   0.294853 0.671138 0.165022 -0.694178
H41   H     H_    0.287031 0.623389 0.221462 0.289588
H42   H     H_    0.294558 0.624213 0.102370 0.208981
H43   H     H_    0.183342 0.708244 0.152951 0.285103
I1    I     I_    0.855386 0.372000 0.082096 -0.436552
I2    I     I_    0.915313 0.148846 0.142052 -0.435246
N2    N     N_2   0.088793 0.622897 0.876996 -0.093735
H44   H     H_    0.214854 0.630498 0.888950 0.187307
C40   C     C_3   0.017265 0.600603 0.954069 -0.766730
H45   H     H_    0.066313 0.536157 0.986749 0.259905
H46   H     H_    0.883223 0.578279 0.933079 0.271900
H47   H     H_    0.049149 0.668077 0.003830 0.216152
N3    N     N_2   0.433175 0.157677 0.318366 -0.043162
H48   H     H_    0.486225 0.233889 0.320422 0.268125
C41   C     C_3   0.414829 0.108104 0.230149 -0.797026
H49   H     H_    0.357418 0.155823 0.179494 0.263487
H50   H     H_    0.339753 0.033704 0.228503 0.270265
H51   H     H_    0.535915 0.094464 0.216668 0.278351
I3    I     I_    0.492304 0.973687 0.035995 -0.594299
I4    I     I_    0.584287 0.814140 0.623798 -0.349606
N4    N     N_2   0.179242 0.930844 0.102422 -0.077097
H52   H     H_    0.199643 0.009279 0.095918 0.238124
C42   C     C_3   0.031262 0.885584 0.040673 -0.836631
H53   H     H_    0.931895 0.929773 0.050979 0.279214
H54   H     H_    0.990429 0.806199 0.054865 0.279091
H55   H     H_    0.049839 0.888234 0.970423 0.242680
N5    N     N_2   0.855770 0.005024 0.811912 -0.104445
H56   H     H_    0.855171 0.925727 0.805651 0.210015
C43   C     C_3   0.793258 0.040826 0.889361 -0.681516
H57   H     H_    0.780234 0.977583 0.933358 0.234910
H58   H     H_    0.669745 0.062604 0.869801 0.280575
H59   H     H_    0.879724 0.107820 0.927378 0.281520
N6    N     N_2   0.423290 0.199465 0.880519 -0.125920
H60   H     H_    0.348392 0.216387 0.924974 0.160240
C44   C     C_3   0.569584 0.273533 0.889176 -0.653859
H61   H     H_    0.577139 0.330231 0.947018 0.220006
H62   H     H_    0.569025 0.314016 0.827670 0.273265
H63   H     H_    0.677205 0.234003 0.904261 0.295760
N7    N     N_2   0.664399 0.623216 0.029159 -0.130231
H64   H     H_    0.789223 0.641924 0.046383 0.216563
C45   C     C_3   0.589381 0.713904 0.009841 -0.871205
H65   H     H_    0.636165 0.748821 0.953014 0.286042
H66   H     H_    0.623732 0.772272 0.068962 0.276576
H67   H     H_    0.454307 0.693450 0.991023 0.252414

loop_
_geom_bond_atom_site_label_1
_geom_bond_atom_site_label_2
_geom_bond_distance
_ccdc_geom_bond_type
C19   C23   1.421713 A    
C23   C24   1.461306 A    
Ba1   O16   2.807130 S    
N3    H48   1.026984 S    
C4    O15   1.397251 S    
P4    O12   1.537885 D    
C13   H24   1.102884 S    
C27   C28   1.392119 A    
C44   H63   1.098962 S    
P8    O24   1.767513 S    
C41   H49   1.111348 S    
O16   P7    1.771184 S    
N1    C39   1.438514 S    
C39   H41   1.101193 S    
N7    C45   1.441022 S    
C10   H17   1.110015 S    
P5    O18   1.543778 D    
C5    H8    1.109157 S    
C33   C34   1.413836 A    
C30   C37   1.536951 S    
O3    P6    1.780763 S    
C19   C20   1.413145 A    
C18   H34   1.082476 S    
P2    C35   1.844508 S    
C8    H14   1.109937 S    
N5    C43   1.445607 S    
O6    P6    1.788903 S    
C6    C7    1.519826 S    
P2    O10   1.734557 S    
C42   H55   1.108909 S    
C21   C22   1.458969 A    
C9    H15   1.109898 S    
Ba1   Ba2   4.642316 S    
C16   H30   1.101978 S    
C13   C14   1.528174 S    
C12   H20   1.106317 S    
C31   H37   1.069198 S    
C2    C3    1.498072 S    
C11   H18   1.089989 S    
P6    C20   1.893874 S    
P1    O1    1.537534 D    
C15   H27   1.110944 S    
C4    C5    1.541653 S    
C14   H26   1.108564 S    
N1    H40   1.026426 S    
P7    O22   1.742486 S    
O3    Ba1   2.841267 S    
O17   Ba2   2.793112 S    
C8    H13   1.100503 S    
C1    H1    1.111232 S    
C1    I3    2.147836 S    
P1    Ba1   3.518851 S    
C4    H6    1.103470 S    
C11   O22   1.386929 S    
O4    P6    1.547906 D    
C34   C38   1.381731 A    
C35   C38   1.386476 A    
C6    H9    1.103666 S    
C45   H66   1.107012 S    
O12   Ba2   2.968874 S    
C17   C25   1.392913 A    
C14   N5    1.448835 S    
C13   H23   1.107517 S    
P1    C21   1.939822 S    
P4    O13   1.632219 S    
C43   H59   1.108883 S    
C7    N2    1.445132 S    
P8    O23   1.548933 D    
C11   I4    2.063298 S    
O10   C8    1.401243 S    
C36   C37   1.428633 A    
C9    N3    1.450859 S    
Ba1   O20   2.990759 S    
N2    C40   1.436267 S    
C29   C30   1.426670 A    
N6    C44   1.430903 S    
C33   C37   1.442741 A    
P5    O17   1.735348 S    
C1    N4    1.458404 S    
P1    O5    1.754330 S    
C17   C24   1.395943 A    
C3    H22   1.107045 S    
C8    C9    1.514543 S    
Ba2   O21   2.906602 S    
N5    H56   1.032168 S    
C27   C32   1.384637 A    
C45   H67   1.107186 S    
C42   H54   1.092981 S    
C22   C26   1.418511 A    
O2    Ba2   2.889597 S    
C22   C23   1.453488 A    
O11   C2    1.403702 S    
O16   Ba2   2.989834 S    
C12   H19   1.102014 S    
H28   C16   1.104142 S    
C39   H42   1.096285 S    
P1    O2    1.632204 S    
C7    H12   1.114019 S    
P7    O21   1.567290 D    
C17   H33   1.082064 S    
P3    O11   1.742923 S    
C26   H32   1.078292 S    
C31   C32   1.389598 A    
C15   C16   1.519007 S    
C28   C29   1.411810 A    
C2    H2    1.111912 S    
O8    Ba1   2.792507 S    
P4    O15   1.761327 S    
C5    I2    2.107968 S    
P2    O20   1.581632 S    
O19   C13   1.406918 S    
C45   H65   1.109854 S    
P2    O7    1.533082 D    
P7    C32   1.829912 S    
O14   Ba2   2.840611 S    
O7    Ba1   2.906449 S    
C18   C20   1.408850 A    
C15   O24   1.418768 S    
C43   H58   1.108136 S    
C3    H5    1.108273 S    
C40   H46   1.103872 S    
C41   H51   1.105481 S    
C36   H36   1.076931 S    
N2    H44   1.029552 S    
C10   N1    1.441146 S    
N6    H60   1.032917 S    
C38   H38   1.082699 S    
P2    Ba1   3.493726 S    
P4    C24   1.915817 S    
O2    Ba1   2.983057 S    
N3    C41   1.422566 S    
C33   N7    1.422038 S    
C16   H29   1.104922 S    
C5    I1    2.103525 S    
C44   H62   1.105800 S    
C42   H53   1.104178 S    
C41   H50   1.076482 S    
C1    C10   1.596399 S    
N4    C42   1.442150 S    
N4    H52   1.028616 S    
C18   C21   1.408911 A    
C19   H31   1.072888 S    
P5    O19   1.750756 S    
Ba1   O13   2.888961 S    
C15   N6    1.448726 S    
C7    H11   1.107353 S    
C40   H47   1.091413 S    
C40   H45   1.099099 S    
C6    H10   1.090650 S    
C27   H39   1.082375 S    
C9    H16   1.095893 S    
P8    C25   1.869175 S    
P3    O8    1.719044 S    
O13   Ba2   2.983975 S    
C12   H21   1.104170 S    
P3    O9    1.532613 D    
C11   C12   1.503357 S    
O14   P8    1.775106 S    
P3    C34   1.844807 S    
Ba2   O20   2.806361 S    
C44   H61   1.097041 S    
C4    H7    1.083484 S    
C14   H25   1.105126 S    
C39   H43   1.105278 S    
C29   H35   1.076726 S    
C2    H3    1.101510 S    
O5    C6    1.406209 S    
P5    C28   1.844167 S    
C3    H4    1.103134 S    
C30   C31   1.419074 A    
C35   C36   1.411222 A    
O6    C10   1.428057 S    
C43   H57   1.103802 S    
O1    Ba1   2.968462 S    
N7    H64   1.022818 S    
C25   C26   1.413142 A    
P4    Ba2   3.519332 S    
