data_mof_unit_25192.cif
_audit_creation_date              2012-12-10T20:51:44-0500
_audit_creation_method            fapswitch 2.2
_symmetry_space_group_name_H-M    P1
_symmetry_Int_Tables_number       1
_space_group_crystal_system       triclinic
_cell_length_a                    8.105898
_cell_length_b                    8.934406
_cell_length_c                    16.787427
_cell_angle_alpha                 89.536626
_cell_angle_beta                  95.966446
_cell_angle_gamma                 89.999937
_cell_volume                      1209.14282331

loop_
_atom_site_label
_atom_site_type_symbol
_atom_type_description
_atom_site_fract_x
_atom_site_fract_y
_atom_site_fract_z
_atom_type_partial_charge
C1    C     C_R   0.499977 0.217984 0.500022 0.933018
C2    C     C_R   0.500026 0.782015 0.499989 0.935024
C3    C     C_R   0.523812 0.498869 0.653905 0.967717
C4    C     C_R   0.476198 0.502060 0.346019 0.965641
C5    C     C_R   0.544526 0.494020 0.740637 -0.148124
C6    C     C_R   0.455907 0.514320 0.259334 -0.149142
C7    C     C_R   0.436119 0.405190 0.779586 -0.426108
C8    C     C_R   0.570251 0.600682 0.222719 -0.426538
C9    C     C_R   0.450701 0.397604 0.862780 0.454896
C10   C     C_R   0.556677 0.616111 0.139842 0.453464
C11   C     C_R   0.570704 0.486489 0.906778 0.198820
C12   C     C_R   0.430723 0.537678 0.093430 0.200354
C13   C     C_R   0.686802 0.569533 0.868244 0.013560
C14   C     C_R   0.308003 0.459042 0.129773 0.014012
C15   C     C_R   0.674570 0.572743 0.783861 0.368532
C16   C     C_R   0.320047 0.447376 0.214018 0.369920
C17   C     C_1   0.499988 0.065186 0.500015 -0.163686
C18   C     C_1   0.500019 0.934812 0.500004 -0.162778
H1    H     H_    0.669382 0.657462 0.258914 0.189681
H2    H     H_    0.341308 0.340367 0.745004 0.187333
N1    N     N_1   0.073640 0.500030 0.499990 -0.015023
N2    N     N_1   0.926360 0.499970 0.500010 -0.015202
N3    N     N_2   0.571404 0.498123 0.990220 -0.053796
N4    N     N_2   0.431356 0.529085 0.009850 -0.059080
O1    O     O_R   0.636850 0.285340 0.500000 -0.619992
O2    O     O_R   0.363150 0.714660 0.500000 -0.620716
O3    O     O_R   0.363100 0.285350 0.500000 -0.611247
O4    O     O_R   0.636900 0.714650 0.500000 -0.610011
O5    O     O_R   0.652140 0.498630 0.616140 -0.570684
O6    O     O_R   0.347860 0.501370 0.383860 -0.568959
O7    O     O_R   0.378390 0.498650 0.616130 -0.632239
O8    O     O_R   0.621610 0.501350 0.383870 -0.633208
Zn1   Zn    Zn3+2 0.682780 0.499990 0.500010 1.029956
Zn2   Zn    Zn3+2 0.317220 0.500010 0.499990 1.030189
O9    O     O_3   0.664870 0.705700 0.102578 -0.700012
H3    H     H_    0.745538 0.751858 0.143645 0.350639
O10   O     O_3   0.349453 0.305402 0.902720 -0.701056
H4    H     H_    0.272385 0.251399 0.863122 0.351372
I1    I     I_    0.867309 0.699570 0.939303 -0.192277
I2    I     I_    0.116546 0.348232 0.055079 -0.195319
O11   O     O_3   0.780637 0.656070 0.741668 -0.734594
H5    H     H_    0.878716 0.686901 0.777504 0.364078
O12   O     O_3   0.207719 0.366861 0.253880 -0.732846
H6    H     H_    0.108128 0.343827 0.217146 0.364428

loop_
_geom_bond_atom_site_label_1
_geom_bond_atom_site_label_2
_ccdc_geom_bond_type
C3    O7    A    
O12   H6    S    
C7    C9    A    
O10   H4    S    
C2    C18   S    
C11   C13   A    
O11   H5    S    
C12   N4    S    
C1    C17   S    
O9    H3    S    
N3    N4    D    
C1    O3    A    
O8    Zn1   S    
C9    O10   S    
C17   C18   T    
O7    Zn2   S    
C2    O2    A    
N1    N2    T    
C1    O1    A    
C9    C11   A    
C16   O12   S    
C4    O8    A    
C10   C12   A    
C4    C6    S    
C12   C14   A    
O4    Zn1   S    
C5    C7    A    
C13   C15   A    
O3    Zn2   S    
C10   O9    S    
C14   C16   A    
C5    C15   A    
C8    H1    S    
C13   I1    S    
O6    Zn2   S    
C14   I2    S    
O5    Zn1   S    
C15   O11   S    
C8    C10   A    
C7    H2    S    
C11   N3    S    
C3    O5    A    
N2    Zn1   S    
C2    O4    A    
C6    C8    A    
N1    Zn2   S    
C6    C16   A    
O2    Zn2   S    
C4    O6    A    
O1    Zn1   S    
C3    C5    S    
