data_mof_unit_66666.cif
_audit_creation_date              2012-12-11T17:44:21-0500
_audit_creation_method            fapswitch 2.2
_symmetry_space_group_name_H-M    P1
_symmetry_Int_Tables_number       1
_space_group_crystal_system       triclinic
_cell_length_a                    8.182871
_cell_length_b                    12.663885
_cell_length_c                    14.877356
_cell_angle_alpha                 96.705953
_cell_angle_beta                  97.663617
_cell_angle_gamma                 98.579512
_cell_volume                      1496.06236513

loop_
_atom_site_label
_atom_site_type_symbol
_atom_type_description
_atom_site_fract_x
_atom_site_fract_y
_atom_site_fract_z
_atom_type_partial_charge
Ba1   Ba    Ba6+2 0.843760 0.550230 0.455610 1.644220
Ba2   Ba    Ba6+2 0.346080 0.449860 0.544400 1.671349
C1    C     C_3   0.517245 0.909974 0.181830 -0.418831
C2    C     C_3   0.581843 0.830864 0.241505 0.339606
C3    C     C_3   0.412269 0.283433 0.265383 0.293368
C4    C     C_3   0.368144 0.250654 0.162282 -0.370490
C5    C     C_3   0.084625 0.138219 0.789756 0.734713
C6    C     C_3   0.131508 0.063984 0.859031 -0.303212
C7    C     C_3   0.616644 0.175546 0.764098 0.357702
C8    C     C_3   0.643751 0.081854 0.816602 -0.387506
C9    C     C_R   0.365475 0.567252 0.170774 -0.006292
C10   C     C_R   0.109838 0.469871 0.207211 0.050743
C11   C     C_R   0.918338 0.479103 0.766934 -0.235767
C12   C     C_3   0.069436 0.773537 0.202783 0.370090
C13   C     C_R   0.817553 0.443289 0.829260 -0.002189
C14   C     C_R   0.880619 0.455374 0.922300 -0.096853
C15   C     C_R   0.048039 0.504725 0.955552 0.066698
C16   C     C_R   0.145474 0.550312 0.891870 0.020812
C17   C     C_R   0.121501 0.510068 0.049678 0.020616
C18   C     C_R   0.289864 0.563317 0.078681 -0.019027
C19   C     C_R   0.378060 0.612230 0.015579 -0.102733
C20   C     C_R   0.306498 0.607660 0.924956 -0.051870
C21   C     C_R   0.035283 0.461590 0.115552 -0.123014
C22   C     C_R   0.272828 0.523718 0.234001 -0.295266
C23   C     C_3   0.031961 0.802433 0.106553 -0.368824
C24   C     C_R   0.079428 0.535954 0.796486 0.078630
C25   C     C_R   0.768716 0.181532 0.539767 -0.267989
C26   C     C_R   0.421107 0.808151 0.460994 -0.286457
C27   C     C_R   0.388738 0.986596 0.429141 -0.107929
C28   C     C_R   0.323215 0.878269 0.423920 -0.012101
C29   C     C_R   0.579831 0.847206 0.511509 0.067959
C30   C     C_R   0.645113 0.959299 0.522169 -0.051884
C31   C     C_R   0.548748 0.029042 0.478539 -0.064551
C32   C     C_R   0.613427 0.140040 0.487235 0.040185
C33   C     C_R   0.867463 0.113771 0.579186 -0.035562
C34   C     C_3   0.267888 0.779366 0.649714 0.277050
C35   C     C_R   0.804525 0.003851 0.572996 -0.097122
C36   C     C_3   0.272294 0.900283 0.665402 -0.343882
C37   C     C_3   0.929810 0.219844 0.348795 0.283941
C38   C     C_3   0.898758 0.097773 0.327459 -0.357868
C39   C     C_3   0.776382 0.701281 0.732569 0.311263
C40   C     C_3   0.810681 0.736440 0.835690 -0.402954
H1    H     H_    0.682217 0.875134 0.296396 0.076436
H2    H     H_    0.356050 0.935726 0.729770 0.118925
H3    H     H_    0.318171 0.938456 0.608333 0.080755
H4    H     H_    0.144598 0.917122 0.670459 0.119138
H5    H     H_    0.819994 0.246995 0.373641 -0.000118
H6    H     H_    0.040204 0.244428 0.402909 0.082202
H7    H     H_    0.785294 0.071102 0.275628 0.111980
H8    H     H_    0.880180 0.061141 0.390076 0.089495
H9    H     H_    0.007641 0.070144 0.300481 0.148407
H10   H     H_    0.676275 0.629315 0.717364 0.054261
H11   H     H_    0.467389 0.972290 0.224121 0.105018
H12   H     H_    0.913685 0.806707 0.852939 0.122196
H13   H     H_    0.847275 0.670051 0.871915 0.042297
H14   H     H_    0.696447 0.759345 0.859912 0.122082
H15   H     H_    0.477054 0.795559 0.274884 -0.049840
H16   H     H_    0.415834 0.866394 0.127231 0.110550
H17   H     H_    0.299302 0.304200 0.292216 0.017233
H18   H     H_    0.512693 0.355298 0.278817 0.061919
H19   H     H_    0.265111 0.180298 0.146604 0.127604
H20   H     H_    0.327205 0.318543 0.129378 0.083213
H21   H     H_    0.479158 0.228831 0.133632 0.131717
H22   H     H_    0.619642 0.949704 0.149093 0.132571
H23   H     H_    0.059061 0.738411 0.055794 0.058810
H24   H     H_    0.951455 0.110295 0.760934 -0.140405
H25   H     H_    0.264728 0.088169 0.890537 0.138281
H26   H     H_    0.052186 0.068124 0.913970 0.082718
H27   H     H_    0.111283 0.979337 0.825044 0.060264
H28   H     H_    0.738587 0.209422 0.744923 -0.037732
H29   H     H_    0.525778 0.145186 0.700598 0.065146
H30   H     H_    0.747909 0.108704 0.874475 0.128041
H31   H     H_    0.674752 0.014646 0.770485 0.083610
H32   H     H_    0.986903 0.696762 0.206639 0.092101
H33   H     H_    0.529590 0.052530 0.845070 0.124776
H34   H     H_    0.330452 0.527805 0.304396 0.074586
H35   H     H_    0.504753 0.654607 0.035010 0.101545
H36   H     H_    0.910849 0.415849 0.097975 0.092127
H37   H     H_    0.867462 0.467602 0.694867 0.052392
H38   H     H_    0.795891 0.425120 0.966425 0.071509
H39   H     H_    0.381666 0.648525 0.881051 0.091245
H40   H     H_    0.309814 0.036834 0.396856 0.108363
H41   H     H_    0.883793 0.954614 0.605942 0.092208
H42   H     H_    0.818687 0.266371 0.544037 0.060206
H43   H     H_    0.201777 0.761935 0.214940 -0.077422
H44   H     H_    0.369056 0.723527 0.455521 0.069362
H45   H     H_    0.898249 0.810289 0.090600 0.151756
H46   H     H_    0.110636 0.880060 0.100897 0.111097
H47   H     H_    0.391334 0.762590 0.636754 0.009527
H48   H     H_    0.171838 0.745869 0.589141 0.075063
O1    O     O_2   0.827930 0.435360 0.277760 -0.457751
O2    O     O_3   0.727208 0.786850 0.690437 -0.644457
O3    O     O_3   0.039400 0.856804 0.266430 -0.599609
O4    O     O_2   0.361790 0.564680 0.722290 -0.466436
O5    O     O_3   0.089410 0.561080 0.608830 -0.501926
O6    O     O_3   0.564100 0.365890 0.666740 -0.484604
O7    O     O_3   0.232011 0.737478 0.729090 -0.648958
O8    O     O_3   0.601940 0.368260 0.453780 -0.480351
O9    O     O_3   0.133140 0.308990 0.620990 -0.436309
O10   O     O_2   0.187273 0.118392 0.549062 -0.485379
O11   O     O_3   0.189009 0.134033 0.722283 -0.587923
O12   O     O_3   0.100310 0.439010 0.391180 -0.502797
O13   O     O_3   0.587770 0.631830 0.546230 -0.491544
O14   O     O_2   0.332600 0.233710 0.456170 -0.465156
O15   O     O_3   0.466410 0.197116 0.305246 -0.649537
O16   O     O_2   0.475173 0.443423 0.824630 -0.432566
O17   O     O_3   0.551454 0.251419 0.819566 -0.546918
O18   O     O_3   0.625610 0.634200 0.333270 -0.474859
O19   O     O_2   0.706370 0.556396 0.173847 -0.494147
O20   O     O_3   0.955798 0.262829 0.268518 -0.632570
O21   O     O_3   0.648996 0.754683 0.187037 -0.599614
O22   O     O_2   0.857120 0.766320 0.543890 -0.472975
O23   O     O_3   0.056570 0.691100 0.379020 -0.489958
O24   O     O_2   0.988162 0.882445 0.436564 -0.480043
P1    P     P_3+3 0.998770 0.403620 0.291990 0.980282
P2    P     P_3+3 0.687370 0.751000 0.571300 0.967416
P3    P     P_3+3 0.102569 0.828943 0.377142 0.952761
P4    P     P_3+3 0.190950 0.596470 0.708020 0.978543
P5    P     P_3+3 0.090298 0.168531 0.620269 1.000508
P6    P     P_3+3 0.586409 0.625676 0.214470 0.953100
P7    P     P_3+3 0.507314 0.233043 0.424298 0.932439
P8    P     P_3+3 0.601720 0.378478 0.785969 1.033037
H49   H     H_    0.892025 0.681283 0.709159 0.007128
Cl1   Cl    Cl    0.114560 0.271982 0.847973 -0.724812

loop_
_geom_bond_atom_site_label_1
_geom_bond_atom_site_label_2
_ccdc_geom_bond_type
C34   H47   S    
O8    P7    S    
C11   H37   S    
C13   P8    S    
C1    H11   S    
C39   C40   S    
O18   P6    S    
C33   P5    S    
C17   C18   A    
C16   C24   A    
C5    Cl1   S    
Ba2   P4    S    
C5    C6    S    
C3    O15   S    
C1    H22   S    
C10   C21   A    
C6    H27   S    
O3    P3    S    
C12   H32   S    
C4    H19   S    
Ba2   O5    S    
C33   C35   A    
Ba1   O22   S    
C3    C4    S    
C8    H31   S    
Ba2   O12   S    
C13   C14   A    
C27   C31   A    
C9    C22   A    
C23   H45   S    
Ba1   Ba2   S    
O7    P4    S    
C36   H3    S    
O12   P1    S    
C40   H14   S    
C37   O20   S    
O1    P1    D    
C14   C15   A    
C2    H15   S    
C34   O7    S    
Ba1   P2    S    
C7    C8    S    
Ba1   O13   S    
C12   O3    S    
C10   P1    S    
C25   C32   A    
C19   C20   A    
Ba1   O23   S    
C9    P6    S    
C31   C32   A    
O5    P4    S    
C9    C18   A    
C3    H17   S    
O11   P5    S    
C20   H39   S    
C7    H29   S    
Ba2   O4    S    
C23   H23   S    
C7    H28   S    
C37   C38   S    
C22   H34   S    
O14   P7    D    
C25   C33   A    
C23   H46   S    
O21   P6    S    
C14   H38   S    
C4    H21   S    
C17   C21   A    
C36   H2    S    
C27   C28   A    
C40   H13   S    
C8    H33   S    
C29   C30   A    
Ba2   O14   S    
Ba1   O5    S    
O16   P8    D    
C15   C16   A    
O15   P7    S    
O10   P5    D    
C30   C35   A    
O2    P2    S    
O23   P3    S    
C2    H1    S    
C2    O21   S    
Ba2   O9    S    
C6    H26   S    
C32   P7    S    
C11   C13   A    
C26   H44   S    
C11   C24   A    
C1    C2    S    
C29   P2    S    
O22   P2    D    
C37   H5    S    
C34   H48   S    
C25   H42   S    
C39   H10   S    
C3    H18   S    
C16   C20   A    
C26   C29   A    
C24   P4    S    
C12   H43   S    
Ba1   O8    S    
C28   P3    S    
C7    O17   S    
C38   H9    S    
C10   C22   A    
O6    P8    S    
C30   C31   A    
C4    H20   S    
Ba2   O6    S    
O13   P2    S    
C27   H40   S    
C12   C23   S    
C40   H12   S    
C5    H24   S    
O4    P4    D    
C39   H49   S    
Ba2   O13   S    
C38   H8    S    
Ba1   O12   S    
C34   C36   S    
C15   C17   A    
C26   C28   A    
C21   H36   S    
C36   H4    S    
O24   P3    D    
Ba1   O18   S    
O9    P5    S    
C1    H16   S    
C39   O2    S    
C18   C19   A    
Ba2   O8    S    
C6    H25   S    
Ba1   O1    S    
C5    O11   S    
C19   H35   S    
C35   H41   S    
Ba1   P1    S    
O17   P8    S    
O20   P1    S    
C38   H7    S    
O19   P6    D    
C37   H6    S    
C8    H30   S    
