data_mof_unit_67645.cif
_audit_creation_date              2012-10-26T20:33:39-0400
_audit_creation_method            fapswitch 2.2
_symmetry_space_group_name_H-M    P1
_symmetry_Int_Tables_number       1
_space_group_crystal_system       triclinic
_cell_length_a                    10.930996
_cell_length_b                    9.153433
_cell_length_c                    7.923695
_cell_angle_alpha                 87.614247
_cell_angle_beta                  92.162261
_cell_angle_gamma                 89.950355
_cell_volume                      791.560765478

loop_
_atom_site_label
_atom_site_type_symbol
_atom_type_description
_atom_site_fract_x
_atom_site_fract_y
_atom_site_fract_z
_atom_type_partial_charge
C1    C     C_R   0.495739 0.220564 0.501227 0.547542
C2    C     C_1   0.493684 0.934733 0.494393 -0.086631
C3    C     C_3   0.072830 0.603979 0.520259 -0.275963
C4    C     C_3   0.932223 0.610203 0.518301 -0.281851
C5    C     C_3   0.124104 0.448896 0.494731 0.028252
C6    C     C_3   0.877152 0.453919 0.506834 0.022263
C7    C     C_R   0.144824 0.194565 0.669679 0.023097
C8    C     C_R   0.083548 0.060682 0.651175 -0.076367
C9    C     C_R   0.132448 0.928898 0.713735 -0.126916
C10   C     C_R   0.252694 0.920113 0.773737 -0.099657
C11   C     C_R   0.319758 0.047940 0.783819 -0.105208
C12   C     C_R   0.262476 0.472905 0.498253 0.544349
C13   C     C_R   0.263922 0.183322 0.742339 -0.088595
C14   C     C_R   0.135195 0.266543 0.247040 0.009829
C15   C     C_R   0.234565 0.298569 0.143395 -0.077417
C16   C     C_R   0.322885 0.192734 0.117346 -0.070860
C17   C     C_R   0.305377 0.048199 0.171989 -0.096860
C18   C     C_R   0.198512 0.009997 0.250788 -0.112662
C19   C     C_R   0.114606 0.118209 0.286610 -0.089828
C20   C     C_R   0.878399 0.231780 0.758701 -0.002815
C21   C     C_R   0.775761 0.157661 0.695767 -0.105132
C22   C     C_R   0.751232 0.014052 0.753616 -0.140607
C23   C     C_R   0.738872 0.478465 0.503722 0.533706
C24   C     C_R   0.823256 0.946956 0.883005 -0.117413
C25   C     C_R   0.914956 0.026635 0.962852 -0.086614
C26   C     C_R   0.939262 0.169993 0.905439 -0.077265
C27   C     C_R   0.836223 0.282699 0.244620 0.024311
C28   C     C_R   0.814193 0.143464 0.317161 -0.118201
C29   C     C_R   0.723880 0.050884 0.254373 -0.116377
C30   C     C_R   0.648946 0.097349 0.117751 -0.077464
C31   C     C_R   0.668296 0.233943 0.040497 -0.052744
C32   C     C_R   0.760626 0.325894 0.101802 -0.035886
C33   C     C_R   0.497025 0.779548 0.497309 0.547905
C34   C     C_1   0.493887 0.065397 0.499728 -0.058501
C35   C     C_3   0.081892 0.348251 0.649222 -0.098970
C36   C     C_3   0.065808 0.394288 0.322317 -0.096458
C37   C     C_3   0.937246 0.364613 0.669184 -0.104082
C38   C     C_3   0.920092 0.397173 0.330053 -0.095903
Cu1   Cu    Cu3+1 0.500000 0.500010 0.669080 0.921050
Cu2   Cu    Cu3+1 0.500000 0.500010 0.330920 0.963529
H1    H     H_    0.119522 0.402252 0.763655 0.092160
H2    H     H_    0.071729 0.837923 0.726073 0.096985
H3    H     H_    0.291576 0.816607 0.819999 0.137782
H4    H     H_    0.412494 0.043293 0.836571 0.104149
H5    H     H_    0.311161 0.278658 0.782147 0.160863
H6    H     H_    0.248851 0.408093 0.091256 0.123381
H7    H     H_    0.404415 0.222741 0.051781 0.115865
H8    H     H_    0.372359 0.965226 0.148270 0.114688
H9    H     H_    0.181298 0.896881 0.286471 0.103332
H10   H     H_    0.034916 0.082202 0.343646 0.103094
H11   H     H_    0.720867 0.205451 0.593906 0.136662
H12   H     H_    0.085942 0.486532 0.230777 0.090283
H13   H     H_    0.678093 0.952538 0.697742 0.124485
H14   H     H_    0.805001 0.835431 0.925457 0.110206
H15   H     H_    0.968517 0.975734 0.066327 0.110417
H16   H     H_    0.014475 0.227546 0.963405 0.116309
H17   H     H_    0.862356 0.105732 0.426776 0.091847
H18   H     H_    0.711672 0.943356 0.313223 0.110239
H19   H     H_    0.579349 0.025486 0.067759 0.095414
H20   H     H_    0.614130 0.265958 0.928989 0.147497
H21   H     H_    0.771505 0.431803 0.038082 0.101359
H22   H     H_    0.928012 0.443117 0.772123 0.101319
H23   H     H_    0.898897 0.494038 0.243950 0.100517
H24   H     H_    0.109096 0.635289 0.645291 0.125563
H25   H     H_    0.106772 0.684234 0.423833 0.115051
H26   H     H_    0.902479 0.663389 0.633929 0.117209
H27   H     H_    0.898519 0.683468 0.410602 0.113395
H28   H     H_    0.991872 0.054439 0.606613 0.118134
N1    N     N_1   0.500000 0.499970 0.076820 -0.126435
N2    N     N_1   0.500000 0.499970 0.923180 -0.144674
O1    O     O_R   0.500000 0.288400 0.642760 -0.550815
O2    O     O_R   0.500000 0.288400 0.357240 -0.489990
O3    O     O_R   0.317700 0.499990 0.642790 -0.536988
O4    O     O_R   0.317700 0.499990 0.357210 -0.512072
O5    O     O_R   0.682300 0.499990 0.642790 -0.513170
O6    O     O_R   0.682300 0.499990 0.357210 -0.504336
O7    O     O_R   0.500000 0.711620 0.642810 -0.495176
O8    O     O_R   0.500000 0.711620 0.357190 -0.497139

loop_
_geom_bond_atom_site_label_1
_geom_bond_atom_site_label_2
_ccdc_geom_bond_type
C4    H26   S    
C12   O4    A    
C17   H8    S    
C23   O6    A    
C37   H22   S    
C7    C8    A    
C28   H17   S    
C9    H2    S    
C1    O1    A    
Cu1   O7    S    
C28   C29   A    
C35   C37   S    
C32   H21   S    
C14   C36   S    
C30   C31   A    
C33   O8    A    
C27   C38   S    
C24   H14   S    
C15   C16   A    
C5    C36   S    
C18   C19   A    
C8    C9    A    
C6    C38   S    
Cu1   O5    S    
C9    C10   A    
C36   H12   S    
C2    C34   T    
C27   C32   A    
C21   C22   A    
C3    H25   S    
C16   H7    S    
C1    C34   S    
C22   H13   S    
C1    O2    A    
Cu2   N1    S    
C24   C25   A    
C5    C12   S    
C4    C6    S    
Cu1   Cu2   S    
C16   C17   A    
C25   C26   A    
C3    H24   S    
Cu2   O6    S    
C31   H20   S    
C29   C30   A    
C31   C32   A    
C30   H19   S    
C17   C18   A    
C6    C37   S    
C11   H4    S    
C29   H18   S    
C2    C33   S    
C8    H28   S    
C22   C24   A    
C3    C4    S    
C21   H11   S    
C38   H23   S    
Cu2   O2    S    
C10   H3    S    
C7    C35   S    
C14   C19   A    
C25   H15   S    
C23   O5    A    
C3    C5    S    
C26   H16   S    
C4    H27   S    
C36   C38   S    
C13   H5    S    
C20   C37   S    
C11   C13   A    
C19   H10   S    
C33   O7    A    
C20   C26   A    
C6    C23   S    
C5    C35   S    
Cu1   N2    S    
Cu2   O4    S    
Cu2   O8    S    
Cu1   O3    S    
N1    N2    T    
C35   H1    S    
C10   C11   A    
C7    C13   A    
C20   C21   A    
C27   C28   A    
Cu1   O1    S    
C14   C15   A    
C15   H6    S    
C12   O3    A    
C18   H9    S    
