data_mof_unit_51854.cif
_audit_creation_date              2012-12-11T15:22:46-0500
_audit_creation_method            fapswitch 2.2
_symmetry_space_group_name_H-M    P1
_symmetry_Int_Tables_number       1
_space_group_crystal_system       triclinic
_cell_length_a                    22.415984
_cell_length_b                    12.955411
_cell_length_c                    26.908593
_cell_angle_alpha                 89.979178
_cell_angle_beta                  90.199155
_cell_angle_gamma                 89.984397
_cell_volume                      7814.43034793

loop_
_atom_site_label
_atom_site_type_symbol
_atom_type_description
_atom_site_fract_x
_atom_site_fract_y
_atom_site_fract_z
_atom_type_partial_charge
C1    C     C_R   0.705270 0.304767 0.173324 0.544211
C2    C     C_R   0.486776 0.253020 0.896122 -0.128872
C3    C     C_R   0.008279 0.584479 0.554642 -0.109487
C4    C     C_R   0.500293 0.085540 0.394238 -0.103827
C5    C     C_R   0.495982 0.080129 0.605445 -0.101131
C6    C     C_R   0.001042 0.583420 0.394225 -0.115563
C7    C     C_R   0.996484 0.580773 0.605368 -0.095172
C8    C     C_R   0.742254 0.947254 0.369699 0.023580
C9    C     C_R   0.258750 0.949895 0.629613 0.027875
C10   C     C_R   0.241735 0.448772 0.370058 0.028073
C11   C     C_R   0.766423 0.485433 0.622608 0.033328
C12   C     C_R   0.694491 0.897708 0.393636 -0.122276
C13   C     C_R   0.019727 0.756820 0.103658 -0.126101
C14   C     C_R   0.307986 0.908636 0.604168 -0.121373
C15   C     C_R   0.193206 0.403379 0.394795 -0.118628
C16   C     C_R   0.794138 0.399209 0.601481 -0.120233
C17   C     C_R   0.699755 0.868480 0.443099 -0.124579
C18   C     C_R   0.302880 0.882609 0.554376 -0.119865
C19   C     C_R   0.198341 0.376190 0.444483 -0.117843
C20   C     C_R   0.796371 0.389687 0.549862 -0.112557
C21   C     C_R   0.752988 0.887260 0.468747 0.032939
C22   C     C_R   0.248343 0.895792 0.529941 0.034443
C23   C     C_R   0.252205 0.392661 0.469534 0.034536
C24   C     C_R   0.980536 0.753638 0.898026 -0.126406
C25   C     C_R   0.772537 0.468010 0.519517 0.030408
C26   C     C_R   0.802372 0.928288 0.443672 -0.110151
C27   C     C_R   0.197889 0.928636 0.556238 -0.109230
C28   C     C_R   0.302137 0.429691 0.443813 -0.109833
C29   C     C_R   0.748091 0.556539 0.541057 -0.125116
C30   C     C_R   0.797037 0.958228 0.394350 -0.114561
C31   C     C_R   0.203102 0.955968 0.605931 -0.112432
C32   C     C_R   0.296925 0.457753 0.394241 -0.112070
C33   C     C_R   0.743993 0.564242 0.592010 -0.118762
C34   C     C_R   0.806400 0.824115 0.542740 -0.142564
C35   C     C_R   0.516130 0.255469 0.050521 0.013714
C36   C     C_R   0.198146 0.821320 0.457089 -0.132960
C37   C     C_R   0.304745 0.325101 0.542918 -0.132924
C38   C     C_R   0.710660 0.477078 0.444101 -0.128329
C39   C     C_R   0.721747 0.349240 0.321127 0.566004
C40   C     C_R   0.279294 0.346659 0.678003 0.579101
C41   C     C_R   0.220833 0.846950 0.321847 0.580199
C42   C     C_R   0.779464 0.846127 0.677759 0.577097
C43   C     C_R   0.813081 0.819205 0.593669 -0.147884
C44   C     C_R   0.191569 0.812540 0.406281 -0.137532
C45   C     C_R   0.311456 0.318109 0.593764 -0.138108
C46   C     C_R   0.499491 0.253147 0.947102 0.013789
C47   C     C_R   0.699393 0.450662 0.395415 -0.145799
C48   C     C_R   0.718248 0.906921 0.605248 0.065635
C49   C     C_R   0.278270 0.922131 0.393099 0.067863
C50   C     C_R   0.219324 0.413882 0.606211 0.069483
C51   C     C_R   0.799666 0.379953 0.388131 0.079896
C52   C     C_R   0.711707 0.912327 0.553663 -0.096923
C53   C     C_R   0.284966 0.930587 0.444531 -0.094266
C54   C     C_R   0.212730 0.421180 0.554710 -0.093719
C55   C     C_R   0.810615 0.407417 0.437508 -0.097951
C56   C     C_R   0.756222 0.872044 0.522408 0.000954
C57   C     C_R   0.007034 0.756311 0.052820 0.012231
C58   C     C_R   0.244453 0.881023 0.476439 0.007853
C59   C     C_R   0.255838 0.377654 0.523108 0.008785
C60   C     C_R   0.765475 0.452498 0.466029 0.013830
C61   C     C_R   0.770101 0.862339 0.625100 0.042362
C62   C     C_R   0.230532 0.864254 0.374213 0.053508
C63   C     C_R   0.269759 0.363855 0.625540 0.052237
C64   C     C_R   0.742184 0.396918 0.367581 0.034112
C65   C     C_R   0.554003 0.159055 0.321533 0.554573
C66   C     C_R   0.446501 0.158893 0.678716 0.546026
C67   C     C_R   0.053564 0.659036 0.321347 0.541325
C68   C     C_R   0.990464 0.754154 0.949389 0.012471
C69   C     C_R   0.946590 0.658940 0.678726 0.547000
C70   C     C_R   0.731771 0.001139 0.322783 0.545473
C71   C     C_R   0.268355 0.001478 0.677128 0.544718
C72   C     C_R   0.231711 0.501311 0.322811 0.545599
C73   C     C_R   0.769444 0.506293 0.675575 0.541779
C74   C     C_R   0.507703 0.072282 0.105111 -0.113058
C75   C     C_R   0.479063 0.066496 0.898342 -0.114121
C76   C     C_R   0.004321 0.571831 0.106674 -0.114622
C77   C     C_R   0.974624 0.566911 0.899953 -0.112888
C78   C     C_R   0.499123 0.068330 0.053658 -0.015254
C79   C     C_R   0.504009 0.160966 0.026163 0.026313
C80   C     C_R   0.487922 0.064789 0.949655 -0.016654
C81   C     C_R   0.992823 0.568559 0.055583 -0.015810
C82   C     C_R   0.980870 0.565463 0.951581 -0.016607
C83   C     C_R   0.485191 0.971210 0.976786 0.092495
C84   C     C_R   0.488965 0.973395 0.029060 0.091662
C85   C     C_R   0.977055 0.472013 0.978762 0.096045
C86   C     C_R   0.981585 0.473961 0.031023 0.090430
C87   C     C_R   0.497218 0.159469 0.974323 0.025976
C88   C     C_R   0.995885 0.661623 0.028296 0.025979
C89   C     C_R   0.294798 0.305123 0.826701 0.547907
C90   C     C_R   0.988943 0.660277 0.976449 0.023747
C91   C     C_R   0.521040 0.346780 0.022968 -0.083610
C92   C     C_R   0.512238 0.345837 0.971657 -0.088608
C93   C     C_R   0.008519 0.848416 0.025690 -0.083063
C94   C     C_R   0.999978 0.847426 0.974355 -0.082660
C95   C     C_R   0.744767 0.948455 0.131697 -0.005603
C96   C     C_R   0.254999 0.949354 0.868401 -0.003751
C97   C     C_R   0.244728 0.446816 0.132205 -0.002259
C98   C     C_R   0.756714 0.459139 0.871408 -0.007423
C99   C     C_R   0.799488 0.963652 0.105990 0.116804
C100  C     C_R   0.205484 0.805671 0.173260 0.547121
C101  C     C_R   0.201258 0.969038 0.894856 0.115687
C102  C     C_R   0.301175 0.454100 0.108533 0.117432
C103  C     C_R   0.713769 0.502763 0.904647 0.103990
C104  C     C_R   0.802558 0.940238 0.055020 0.108538
C105  C     C_R   0.198860 0.947135 0.945940 0.107201
C106  C     C_R   0.305751 0.430396 0.057635 0.112966
C107  C     C_R   0.710104 0.465390 0.953706 0.106278
C108  C     C_R   0.755200 0.887460 0.031905 -0.003759
C109  C     C_R   0.244908 0.889805 0.968360 -0.002771
C110  C     C_R   0.257004 0.385627 0.032558 -0.001647
C111  C     C_R   0.794667 0.805421 0.826735 0.548078
C112  C     C_R   0.746762 0.383087 0.968864 -0.004238
C113  C     C_R   0.703609 0.864024 0.058513 -0.134404
C114  C     C_R   0.295216 0.861844 0.941055 -0.139817
C115  C     C_R   0.203204 0.369594 0.057369 -0.139928
C116  C     C_R   0.787185 0.338531 0.935898 -0.132194
C117  C     C_R   0.553272 0.157475 0.177774 0.540894
C118  C     C_R   0.446450 0.156880 0.822482 0.539630
C119  C     C_R   0.052820 0.657419 0.178048 0.536795
C120  C     C_R   0.945837 0.656870 0.822837 0.541088
C121  C     C_R   0.697887 0.896197 0.107584 -0.152959
C122  C     C_R   0.474407 0.159869 0.871997 -0.015635
C123  C     C_R   0.300969 0.893693 0.891924 -0.152999
C124  C     C_R   0.196734 0.401643 0.106364 -0.152699
C125  C     C_R   0.792529 0.376819 0.887768 -0.148681
C126  C     C_R   0.727579 0.913676 0.943446 -0.081710
C127  C     C_R   0.277186 0.904455 0.056432 -0.082254
C128  C     C_R   0.230806 0.416168 0.944031 -0.089288
C129  C     C_R   0.779594 0.395919 0.056283 -0.067447
C130  C     C_R   0.738785 0.896726 0.893143 -0.071752
C131  C     C_R   0.266294 0.887077 0.106753 -0.075532
C132  C     C_R   0.241155 0.398816 0.893624 -0.079617
C133  C     C_R   0.524674 0.164049 0.128725 -0.012209
C134  C     C_R   0.766903 0.382819 0.106563 -0.070133
C135  C     C_R   0.811997 0.765912 0.914886 -0.121749
C136  C     C_R   0.183126 0.775477 0.085176 -0.129936
C137  C     C_R   0.311422 0.262832 0.914706 -0.123556
C138  C     C_R   0.685304 0.267852 0.085111 -0.130023
C139  C     C_R   0.800782 0.782675 0.965085 -0.065782
C140  C     C_R   0.194108 0.792361 0.035002 -0.079609
C141  C     C_R   0.300965 0.279881 0.965027 -0.070421
C142  C     C_R   0.697774 0.281193 0.034829 -0.082904
C143  C     C_R   0.759467 0.858147 0.979498 0.055655
C144  C     C_R   0.971071 0.660121 0.873346 -0.016479
C145  C     C_R   0.240163 0.859035 0.020526 0.049772
C146  C     C_R   0.261618 0.358153 0.979853 0.051342
C147  C     C_R   0.744030 0.347295 0.020318 0.050800
C148  C     C_R   0.781896 0.824205 0.878909 0.046586
C149  C     C_R   0.218292 0.824455 0.121104 0.039842
C150  C     C_R   0.282335 0.323377 0.878996 0.041872
C151  C     C_R   0.718523 0.321202 0.120970 0.041307
C152  C     C_R   0.527423 0.169997 0.370926 0.030156
C153  C     C_R   0.475286 0.168529 0.630054 0.025432
C154  C     C_R   0.025302 0.669709 0.370221 0.018311
C155  C     C_R   0.021743 0.663754 0.130012 -0.014789
C156  C     C_R   0.975557 0.668847 0.630076 0.026285
C157  C     C_R   0.539034 0.260014 0.398403 -0.124010
C158  C     C_R   0.471791 0.262411 0.604158 -0.133855
C159  C     C_R   0.032656 0.762091 0.396815 -0.135796
C160  C     C_R   0.971978 0.762781 0.604244 -0.136925
C161  C     C_R   0.528513 0.262381 0.449189 -0.120386
C162  C     C_R   0.482179 0.265253 0.553285 -0.124718
C163  C     C_R   0.022903 0.764607 0.447752 -0.128656
C164  C     C_R   0.981614 0.765672 0.553250 -0.129249
C165  C     C_R   0.732238 0.000374 0.179620 0.542232
C166  C     C_R   0.525997 0.256486 0.101772 -0.123084
C167  C     C_R   0.267727 0.000472 0.820375 0.544978
C168  C     C_R   0.232270 0.499927 0.179803 0.547843
C169  C     C_R   0.768828 0.505114 0.822003 0.542755
C170  C     C_R   0.504692 0.175762 0.473268 0.030973
C171  C     C_R   0.498481 0.175041 0.527815 0.032198
C172  C     C_R   0.002943 0.676041 0.472747 0.029416
C173  C     C_R   0.997848 0.675617 0.527548 0.030019
C174  C     C_R   0.488330 0.088873 0.444980 -0.113657
C175  C     C_R   0.508031 0.083615 0.554795 -0.111110
C176  C     C_R   0.989163 0.587034 0.444986 -0.116774
Cr1   Cr    Cr6+3 0.756570 0.170940 0.251190 1.099599
Cr2   Cr    Cr6+3 0.374010 0.036240 0.749520 1.031704
Cr3   Cr    Cr6+3 0.125990 0.536240 0.250480 1.036461
Cr4   Cr    Cr6+3 0.874010 0.536240 0.749520 1.036933
Cr5   Cr    Cr6+3 0.243430 0.170940 0.748810 1.083898
Cr6   Cr    Cr6+3 0.256570 0.670940 0.251190 1.081419
Cr7   Cr    Cr6+3 0.743430 0.670940 0.748810 1.079287
Cr8   Cr    Cr6+3 0.623740 0.299110 0.249580 1.038629
Cr9   Cr    Cr6+3 0.376260 0.299110 0.750420 1.037710
Cr10  Cr    Cr6+3 0.123740 0.799110 0.249580 1.044068
Cr11  Cr    Cr6+3 0.876260 0.799110 0.750420 1.039351
Cr12  Cr    Cr6+3 0.625990 0.036240 0.250480 1.031873
H1    H     H_    0.851310 0.779114 0.608839 0.128605
H2    H     H_    0.530775 0.419341 0.041271 0.179892
H3    H     H_    0.000960 0.919740 0.954121 0.181895
H4    H     H_    0.016460 0.921366 0.044238 0.181241
H5    H     H_    0.695860 0.972528 0.954323 0.121833
H6    H     H_    0.312814 0.956142 0.045524 0.130007
H7    H     H_    0.200452 0.476934 0.955168 0.122030
H8    H     H_    0.814893 0.448231 0.045301 0.136244
H9    H     H_    0.714757 0.941057 0.865417 0.138776
H10   H     H_    0.294303 0.923929 0.134417 0.143835
H11   H     H_    0.218035 0.445149 0.866122 0.138625
H12   H     H_    0.156371 0.763889 0.391718 0.121696
H13   H     H_    0.793796 0.422374 0.134127 0.140618
H14   H     H_    0.825752 0.739650 0.992738 0.134257
H15   H     H_    0.165387 0.756710 0.007450 0.132607
H16   H     H_    0.324920 0.234581 0.992455 0.134143
H17   H     H_    0.669597 0.244393 0.007247 0.127440
H18   H     H_    0.470735 0.995222 0.878931 0.178996
H19   H     H_    0.505972 0.002637 0.127004 0.175919
H20   H     H_    0.968173 0.495463 0.880199 0.181330
H21   H     H_    0.004809 0.501599 0.128186 0.176113
H22   H     H_    0.844474 0.708261 0.904098 0.098770
H23   H     H_    0.348845 0.274991 0.608572 0.123764
H24   H     H_    0.147058 0.724763 0.096007 0.100030
H25   H     H_    0.342659 0.203349 0.903620 0.099053
H26   H     H_    0.649469 0.216833 0.096054 0.099029
H27   H     H_    0.666864 0.824129 0.040641 0.177808
H28   H     H_    0.330906 0.818296 0.958406 0.177366
H29   H     H_    0.165422 0.335874 0.038090 0.166949
H30   H     H_    0.815562 0.275490 0.947885 0.178902
H31   H     H_    0.655825 0.882710 0.126181 0.163913
H32   H     H_    0.342202 0.876754 0.872710 0.165627
H33   H     H_    0.153243 0.394266 0.123421 0.163108
H34   H     H_    0.655179 0.466399 0.380902 0.134670
H35   H     H_    0.825505 0.342802 0.863417 0.160313
H36   H     H_    0.560508 0.326146 0.381525 0.131191
H37   H     H_    0.456211 0.332019 0.622239 0.135714
H38   H     H_    0.050971 0.830244 0.379230 0.139831
H39   H     H_    0.956572 0.832356 0.622457 0.134703
H40   H     H_    0.523021 0.013873 0.536523 0.108906
H41   H     H_    0.467891 0.022280 0.462280 0.107611
H42   H     H_    0.023634 0.514912 0.536453 0.108843
H43   H     H_    0.971066 0.518891 0.462676 0.109543
H44   H     H_    0.499840 0.006996 0.624708 0.153807
H45   H     H_    0.834567 0.995570 0.376573 0.150792
H46   H     H_    0.490755 0.015488 0.373742 0.152201
H47   H     H_    0.000729 0.507693 0.624623 0.155055
H48   H     H_    0.994024 0.511722 0.374349 0.153314
H49   H     H_    0.542029 0.330188 0.469843 0.106571
H50   H     H_    0.474335 0.336944 0.533652 0.103750
H51   H     H_    0.034282 0.834431 0.467682 0.104611
H52   H     H_    0.973044 0.837324 0.533836 0.103567
H53   H     H_    0.651812 0.887593 0.375283 0.135593
H54   H     H_    0.351461 0.902886 0.621652 0.136817
H55   H     H_    0.150140 0.395114 0.376855 0.140404
H56   H     H_    0.164560 0.987093 0.624926 0.139202
H57   H     H_    0.813392 0.339589 0.624768 0.125259
H58   H     H_    0.840450 0.790726 0.519189 0.125855
H59   H     H_    0.167216 0.781485 0.481310 0.125881
H60   H     H_    0.337746 0.289641 0.519027 0.124146
H61   H     H_    0.674842 0.511263 0.465436 0.111683
H62   H     H_    0.661686 0.835072 0.461874 0.104657
H63   H     H_    0.341834 0.855626 0.534494 0.110116
H64   H     H_    0.159817 0.345884 0.463824 0.112877
H65   H     H_    0.815050 0.320301 0.533748 0.116369
H66   H     H_    0.672862 0.950240 0.538037 0.132803
H67   H     H_    0.334982 0.491984 0.375811 0.139408
H68   H     H_    0.320736 0.977464 0.459571 0.129132
H69   H     H_    0.174946 0.462713 0.539413 0.129016
H70   H     H_    0.853853 0.391666 0.453941 0.122011
H71   H     H_    0.843920 0.943159 0.463073 0.113479
H72   H     H_    0.155346 0.938666 0.537613 0.111053
H73   H     H_    0.344169 0.442589 0.462815 0.109859
H74   H     H_    0.730908 0.619046 0.518372 0.117757
H75   H     H_    0.484050 0.325208 0.875844 0.142962
H76   H     H_    0.539002 0.327810 0.119889 0.154515
H77   H     H_    0.977846 0.825819 0.877731 0.152048
H78   H     H_    0.724999 0.634073 0.607486 0.147590
H79   H     H_    0.032403 0.828391 0.121709 0.152630
H80   H     H_    0.514807 0.417832 0.951256 0.170083
I1    I     I_    0.476113 0.825184 0.939327 -0.311657
I2    I     I_    0.120746 0.023062 0.859672 -0.267430
I3    I     I_    0.381352 0.492477 0.148440 -0.252943
I4    I     I_    0.654470 0.627806 0.885088 -0.244970
I5    I     I_    0.873746 0.999601 0.010453 -0.327763
I6    I     I_    0.131623 0.016449 0.991506 -0.346180
I7    I     I_    0.382076 0.478607 0.016155 -0.318532
I8    I     I_    0.652174 0.536674 0.007444 -0.354431
I9    I     I_    0.479484 0.832036 0.070369 -0.295915
I10   I     I_    0.964121 0.326667 0.941498 -0.306780
I11   I     I_    0.971139 0.333018 0.072482 -0.288376
I12   I     I_    0.650510 0.969388 0.650961 -0.395202
I13   I     I_    0.339399 0.999370 0.346156 -0.392078
I14   I     I_    0.153919 0.481561 0.652571 -0.389485
I15   I     I_    0.872693 0.314526 0.348912 -0.371429
I16   I     I_    0.880002 0.013725 0.142379 -0.243628
O1    O     O_R   0.769900 0.064540 0.196060 -0.476243
O2    O     O_R   0.433710 0.069580 0.694600 -0.510019
O3    O     O_R   0.066290 0.569580 0.305400 -0.508344
O4    O     O_R   0.933710 0.569580 0.694600 -0.505167
O5    O     O_R   0.680760 0.993330 0.302620 -0.507108
O6    O     O_R   0.319240 0.993330 0.697380 -0.505643
O7    O     O_R   0.180760 0.493330 0.302620 -0.504013
O8    O     O_R   0.819240 0.493330 0.697380 -0.498074
O9    O     O_3   0.668770 0.168760 0.250420 -0.280774
O10   O     O_3   0.331230 0.168760 0.749580 -0.283058
O11   O     O_3   0.168770 0.668760 0.250420 -0.283216
O12   O     O_R   0.230100 0.064540 0.803940 -0.477872
O13   O     O_3   0.831230 0.668760 0.749580 -0.285987
O14   O     O_R   0.750800 0.274080 0.199250 -0.480535
O15   O     O_R   0.249200 0.274080 0.800750 -0.477941
O16   O     O_R   0.250800 0.774080 0.199250 -0.481771
O17   O     O_R   0.749200 0.774080 0.800750 -0.471660
O18   O     O_R   0.669990 0.371670 0.194150 -0.495550
O19   O     O_R   0.330010 0.371670 0.805850 -0.493598
O20   O     O_R   0.169990 0.871670 0.194150 -0.490416
O21   O     O_R   0.830010 0.871670 0.805850 -0.495255
O22   O     O_R   0.574600 0.238480 0.197800 -0.513155
O23   O     O_R   0.269900 0.564540 0.196060 -0.477899
O24   O     O_R   0.425400 0.238480 0.802200 -0.512370
O25   O     O_R   0.074600 0.738480 0.197800 -0.513828
O26   O     O_R   0.925400 0.738480 0.802200 -0.511280
O27   O     O_R   0.566130 0.068680 0.194240 -0.511203
O28   O     O_R   0.433870 0.068680 0.805760 -0.511902
O29   O     O_R   0.066130 0.568680 0.194240 -0.511594
O30   O     O_R   0.933870 0.568680 0.805760 -0.510218
O31   O     O_R   0.680610 0.992490 0.199570 -0.510431
O32   O     O_R   0.319390 0.992490 0.800430 -0.509114
O33   O     O_R   0.180610 0.492490 0.199570 -0.507419
O34   O     O_R   0.730100 0.564540 0.803940 -0.479348
O35   O     O_R   0.819390 0.492490 0.800430 -0.505580
O36   O     O_R   0.770060 0.065440 0.307230 -0.493526
O37   O     O_R   0.229940 0.065440 0.692770 -0.507307
O38   O     O_R   0.270060 0.565440 0.307230 -0.508443
O39   O     O_R   0.729940 0.565440 0.692770 -0.510558
O40   O     O_R   0.750960 0.274920 0.302300 -0.458435
O41   O     O_R   0.249040 0.274920 0.697700 -0.474449
O42   O     O_R   0.250960 0.774920 0.302300 -0.478004
O43   O     O_R   0.749040 0.774920 0.697700 -0.481976
O44   O     O_R   0.670160 0.372580 0.305320 -0.527919
O45   O     O_R   0.574760 0.239320 0.300850 -0.501944
O46   O     O_R   0.329840 0.372580 0.694680 -0.512228
O47   O     O_R   0.170160 0.872580 0.305320 -0.508631
O48   O     O_R   0.829840 0.872580 0.694680 -0.510675
O49   O     O_R   0.425240 0.239320 0.699150 -0.507975
O50   O     O_R   0.074760 0.739320 0.300850 -0.506653
O51   O     O_R   0.925240 0.739320 0.699150 -0.508261
O52   O     O_R   0.566290 0.069580 0.305400 -0.509863

loop_
_geom_bond_atom_site_label_1
_geom_bond_atom_site_label_2
_ccdc_geom_bond_type
C21   C26   A    
C34   C56   A    
C157  C161  A    
C24   H77   S    
C132  C150  A    
C107  C112  A    
Cr5   O12   S    
C120  C144  S    
Cr6   O11   S    
C136  C140  A    
C117  C133  S    
C79   C87   A    
C20   H65   S    
C135  C139  A    
C89   O15   A    
C105  I6    S    
C72   O7    A    
C97   C124  A    
C162  H50   S    
C95   C99   A    
C19   H64   S    
C38   H61   S    
C75   C122  A    
C29   C33   A    
C17   H62   S    
Cr7   O17   S    
C98   C169  S    
Cr7   O43   S    
C26   H71   S    
C34   H58   S    
C157  H36   S    
C68   C90   A    
C141  H16   S    
C25   C60   S    
C166  H76   S    
C81   C86   A    
C36   C44   A    
C74   H19   S    
C72   O38   A    
C80   C83   A    
C3    H42   S    
C42   O43   A    
Cr12  O5    S    
C48   I12   S    
C25   C29   A    
C109  C145  S    
C102  I3    S    
C51   C64   A    
C27   C31   A    
C114  H28   S    
C31   H56   S    
Cr11  O21   S    
C47   C64   A    
Cr5   O15   S    
C111  O17   A    
C17   C21   A    
C175  H40   S    
Cr8   O44   S    
C120  O30   A    
C108  C113  A    
C100  O20   A    
C19   C23   A    
Cr7   O34   S    
Cr3   O29   S    
Cr5   O37   S    
C39   O40   A    
C156  C160  A    
C16   C20   A    
C164  C173  A    
Cr8   O22   S    
Cr10  O11   S    
C127  C145  A    
C89   C150  S    
C22   C27   A    
Cr1   O14   S    
C127  H6    S    
C37   C45   A    
C163  H51   S    
C43   C61   A    
C170  C174  A    
C93   H4    S    
C6    H48   S    
C152  C157  A    
C49   C62   A    
Cr9   O19   S    
C4    H46   S    
Cr10  O20   S    
C106  I7    S    
C140  C145  A    
C22   C58   S    
C66   C153  S    
C53   C58   A    
C138  C151  A    
C82   C85   A    
C76   C155  A    
C160  H39   S    
C33   H78   S    
C55   H70   S    
Cr12  O27   S    
C70   O36   A    
C111  C148  S    
C126  H5    S    
Cr1   O1    S    
C165  O31   A    
C67   O50   A    
C77   C82   A    
C49   C53   A    
C134  C151  A    
C32   H67   S    
Cr3   O3    S    
C73   O8    A    
C51   C55   A    
C30   H45   S    
C127  C131  A    
C129  C147  A    
C81   C88   A    
C169  O35   A    
C92   H80   S    
C48   C52   A    
C135  H22   S    
C46   C92   A    
C117  O22   A    
Cr12  O52   S    
C103  C107  A    
Cr8   O45   S    
C133  C166  A    
Cr6   O38   S    
C41   O47   A    
C126  C143  A    
C85   C86   A    
C23   C59   S    
Cr4   O8    S    
C67   C154  S    
C167  O32   A    
Cr12  O31   S    
C13   C57   A    
C170  C171  S    
C28   H73   S    
C118  C122  S    
C165  O1    A    
C153  C158  A    
C136  H24   S    
C139  C143  A    
C98   C125  A    
C7    C156  A    
Cr4   O13   S    
C53   H68   S    
C50   C63   A    
C54   C59   A    
C4    C152  A    
C15   H55   S    
C71   O37   A    
C69   C156  S    
C162  C171  A    
Cr6   O16   S    
C66   O2    A    
C110  C146  S    
C91   C92   A    
C68   C94   A    
C41   O42   A    
Cr11  O26   S    
Cr9   O24   S    
C83   C84   A    
C18   H63   S    
C8    C12   A    
C69   O4    A    
C29   H74   S    
Cr1   O36   S    
C23   C28   A    
C37   C59   A    
C109  C114  A    
C38   C60   A    
C114  C123  A    
C71   O6    A    
C123  H32   S    
C44   H12   S    
C116  C125  A    
C119  O25   A    
C137  C150  A    
C112  C116  A    
C65   O45   A    
C134  H13   S    
C46   C87   A    
C167  O12   A    
C111  O21   A    
C105  C109  A    
C96   C123  A    
C18   C22   A    
C120  O26   A    
C142  C147  A    
Cr2   O28   S    
C168  O33   A    
C139  H14   S    
C39   O44   A    
C26   C30   A    
C11   C33   A    
C97   C168  S    
C8    C70   S    
C112  C147  S    
C154  C159  A    
C65   O52   A    
C128  C146  A    
C110  C115  A    
C49   I13   S    
C1    O18   A    
C40   O41   A    
C89   O19   A    
C113  C121  A    
C36   H59   S    
C96   C101  A    
C172  C176  A    
C10   C72   S    
C117  O27   A    
Cr1   O9    S    
C118  O28   A    
Cr2   O6    S    
C168  O23   A    
C121  H31   S    
Cr3   O11   S    
C128  H7    S    
Cr2   O32   S    
C136  C149  A    
C16   H57   S    
Cr2   O2    S    
C15   C19   A    
C27   H72   S    
C50   C54   A    
C40   C63   S    
C50   I14   S    
Cr10  O25   S    
C160  C164  A    
C3    C7    A    
C161  H49   S    
C20   C25   A    
C126  C130  A    
C98   C103  A    
C35   C166  A    
Cr6   O23   S    
C159  H38   S    
C52   H66   S    
C94   H3    S    
Cr11  O48   S    
C12   C17   A    
C2    C122  A    
Cr1   O40   S    
C130  H9    S    
C97   C102  A    
C99   I16   S    
C95   C121  A    
C73   O39   A    
C99   C104  A    
C4    C174  A    
C55   C60   A    
C5    C175  A    
C41   C62   S    
C95   C165  S    
C40   O46   A    
C125  H35   S    
C7    H47   S    
C34   C43   A    
C131  H10   S    
C138  C142  A    
C176  H43   S    
C76   C81   A    
C9    C14   A    
C11   C16   A    
C1    O14   A    
C2    H75   S    
C28   C32   A    
C5    H44   S    
C107  I8    S    
C158  H37   S    
C6    C154  A    
C141  C146  A    
C88   C90   A    
C11   C73   S    
Cr9   O49   S    
C104  C108  A    
C129  H8    S    
Cr11  O51   S    
C45   H23   S    
C137  C141  A    
C138  H26   S    
C115  C124  A    
C9    C71   S    
C21   C56   S    
C100  C149  S    
C82   C90   A    
C8    C30   A    
C24   C144  A    
C1    C151  S    
C24   C68   A    
C129  C134  A    
C124  H33   S    
C12   H53   S    
C74   C78   A    
C54   H69   S    
C85   I10   S    
C104  I5    S    
Cr7   O13   S    
C108  C143  S    
C76   H21   S    
Cr7   O39   S    
C93   C94   A    
C14   C18   A    
C2    C46   A    
C37   H60   S    
Cr4   O30   S    
C77   H20   S    
C80   C87   A    
C36   C58   A    
C10   C15   A    
C75   H18   S    
C69   O51   A    
Cr10  O50   S    
C74   C133  A    
C142  H17   S    
C35   C79   A    
C83   I1    S    
C66   O49   A    
C13   C155  A    
C67   O3    A    
C3    C173  A    
C118  O24   A    
C164  H52   S    
C119  O29   A    
Cr3   O7    S    
C100  O16   A    
C75   C80   A    
C42   O48   A    
Cr12  O9    S    
Cr3   O33   S    
Cr5   O41   S    
C14   H54   S    
C51   I15   S    
C13   H79   S    
C101  C105  A    
C91   H2    S    
C96   C167  S    
C39   C64   S    
C130  C148  A    
C70   O5    A    
Cr5   O10   S    
C140  H15   S    
C9    C31   A    
C78   C79   A    
C44   C62   A    
C171  C175  A    
C45   C63   A    
C132  H11   S    
Cr4   O4    S    
Cr2   O10   S    
C163  C172  A    
C10   C32   A    
Cr8   O9    S    
C84   I9    S    
C86   I11   S    
C42   C61   S    
C38   C47   A    
C161  C170  A    
C169  O34   A    
C47   H34   S    
Cr10  O47   S    
C159  C163  A    
C113  H27   S    
C172  C173  S    
C106  C110  A    
C128  C132  A    
C119  C155  S    
C137  H25   S    
Cr9   O46   S    
C101  I2    S    
Cr6   O42   S    
C57   C88   A    
C103  I4    S    
C65   C152  S    
C77   C144  A    
Cr11  O13   S    
C48   C61   A    
C6    C176  A    
C5    C153  A    
C102  C106  A    
C174  H41   S    
C131  C149  A    
C158  C162  A    
C78   C84   A    
C43   H1    S    
C135  C148  A    
C115  H29   S    
C57   C93   A    
Cr9   O10   S    
C116  H30   S    
C52   C56   A    
Cr8   O18   S    
Cr4   O35   S    
C35   C91   A    
