data_mof_unit_50610.cif
_audit_creation_date              2012-12-10T19:11:33-0500
_audit_creation_method            fapswitch 2.2
_symmetry_space_group_name_H-M    P1
_symmetry_Int_Tables_number       1
_space_group_crystal_system       triclinic
_cell_length_a                    7.77698
_cell_length_b                    9.090983
_cell_length_c                    16.756066
_cell_angle_alpha                 89.999836
_cell_angle_beta                  85.357269
_cell_angle_gamma                 89.999904
_cell_volume                      1180.77333014

loop_
_atom_site_label
_atom_site_type_symbol
_atom_type_description
_atom_site_fract_x
_atom_site_fract_y
_atom_site_fract_z
_atom_type_partial_charge
C1    C     C_R   0.500000 0.780013 0.500000 0.828163
C2    C     C_R   0.500000 0.219987 0.500000 0.844720
C3    C     C_1   0.500000 0.934627 0.500000 -0.157979
C4    C     C_1   0.500000 0.065364 0.500000 -0.158163
C5    C     C_R   0.476485 0.503136 0.652233 0.855640
C6    C     C_R   0.523515 0.503138 0.347767 0.855644
C7    C     C_R   0.458698 0.530517 0.739554 -0.264715
C8    C     C_R   0.541302 0.530526 0.260447 -0.264712
C9    C     C_R   0.600218 0.521093 0.786233 0.618983
C10   C     C_R   0.399787 0.521091 0.213765 0.618984
C11   C     C_R   0.586027 0.571879 0.865230 -0.317784
C12   C     C_R   0.413977 0.571879 0.134769 -0.317754
C13   C     C_R   0.432824 0.639306 0.898831 -0.089211
C14   C     C_R   0.567175 0.639317 0.101169 -0.089227
C15   C     C_R   0.286482 0.633793 0.853907 0.613150
C16   C     C_R   0.713512 0.633823 0.146097 0.613134
C17   C     C_R   0.300349 0.580661 0.775560 -0.299293
C18   C     C_R   0.699646 0.580688 0.224444 -0.299291
C19   C     C_2   0.428391 0.715105 0.979325 0.074272
C20   C     C_2   0.571607 0.715110 0.020673 0.074288
Cu1   Cu    Cu3+1 0.330920 0.500000 0.500000 1.049313
Cu2   Cu    Cu3+1 0.669080 0.500000 0.500000 1.049313
H1    H     H_    0.300962 0.563838 0.101486 0.214212
H2    H     H_    0.699047 0.563851 0.898511 0.214224
H3    H     H_    0.812715 0.585050 0.258127 0.231434
H4    H     H_    0.187277 0.585010 0.741879 0.231442
N1    N     N_1   0.923170 0.500000 0.500010 -0.022611
N2    N     N_1   0.076830 0.500000 0.499990 -0.022611
O1    O     O_R   0.357240 0.711600 0.500000 -0.581179
O2    O     O_R   0.642760 0.288400 0.500000 -0.573481
O3    O     O_R   0.642760 0.711600 0.500000 -0.581180
O4    O     O_R   0.357240 0.288400 0.500000 -0.573480
O5    O     O_R   0.340660 0.500000 0.613590 -0.590721
O6    O     O_R   0.659340 0.500000 0.386410 -0.590721
O7    O     O_R   0.626230 0.500000 0.613600 -0.522171
O8    O     O_R   0.373770 0.500000 0.386400 -0.522173
F1    F     F_    0.128737 0.679936 0.884073 -0.705495
F2    F     F_    0.871251 0.679989 0.115936 -0.705531
F3    F     F_    0.753888 0.466726 0.755147 -0.643232
F4    F     F_    0.246122 0.466708 0.244849 -0.643234
C21   C     C_3   0.724046 0.814833 0.993187 -0.334618
C22   C     C_3   0.697078 0.918792 0.922477 -0.390882
C23   C     C_3   0.849348 0.023802 0.907230 -0.765853
H5    H     H_    0.862810 0.094095 0.960578 0.246005
H6    H     H_    0.970552 0.961062 0.893266 0.282840
H7    H     H_    0.827603 0.096022 0.855551 0.263739
H8    H     H_    0.684243 0.854844 0.866953 0.245963
H9    H     H_    0.578281 0.985245 0.935281 0.224039
H10   H     H_    0.751506 0.885571 0.044738 0.222265
H11   H     H_    0.838863 0.745284 0.976925 0.280997
C24   C     C_3   0.275940 0.814813 0.006813 -0.334612
C25   C     C_3   0.302931 0.918824 0.077497 -0.390893
C26   C     C_3   0.150579 0.023737 0.092786 -0.765844
H12   H     H_    0.136876 0.093919 0.039419 0.246012
H13   H     H_    0.029473 0.960921 0.106860 0.282929
H14   H     H_    0.172404 0.096071 0.144407 0.263726
H15   H     H_    0.315922 0.854915 0.133022 0.245938
H16   H     H_    0.421656 0.985349 0.064641 0.224040
H17   H     H_    0.248436 0.885521 0.955256 0.222247
H18   H     H_    0.161144 0.745252 0.023097 0.280997

loop_
_geom_bond_atom_site_label_1
_geom_bond_atom_site_label_2
_ccdc_geom_bond_type
C2    C4    S    
C23   H5    S    
C5    C7    S    
C19   C24   S    
C11   C13   A    
C21   C22   S    
C11   H2    S    
C19   C20   D    
C13   C15   A    
C9    F3    S    
C2    O2    A    
C6    O8    A    
C1    O1    A    
C20   C21   S    
C24   C25   S    
C23   H6    S    
Cu1   O8    S    
C22   H9    S    
Cu1   Cu2   S    
C25   H16   S    
Cu2   O7    S    
C9    C11   A    
C12   H1    S    
C18   H3    S    
C10   C12   A    
C17   H4    S    
C5    O7    A    
C8    C10   A    
C22   H8    S    
C23   H7    S    
Cu1   N2    S    
C12   C14   A    
C7    C9    A    
Cu2   N1    S    
C26   H13   S    
Cu2   O6    S    
Cu1   O4    S    
C14   C16   A    
Cu1   O5    S    
C25   H15   S    
C13   C19   S    
C3    C4    T    
C14   C20   S    
C21   H11   S    
C1    O3    A    
C24   H17   S    
C25   C26   S    
C2    O4    A    
Cu2   O3    S    
C26   H14   S    
C21   H10   S    
N1    N2    T    
C15   C17   A    
C15   F1    S    
C10   F4    S    
C6    C8    S    
C24   H18   S    
Cu2   O2    S    
C1    C3    S    
C26   H12   S    
Cu1   O1    S    
C16   C18   A    
C8    C18   A    
C6    O6    A    
C22   C23   S    
C16   F2    S    
C7    C17   A    
C5    O5    A    
