data_mof_unit_19968.cif
_audit_creation_date              2012-12-10T17:02:31-0500
_audit_creation_method            fapswitch 2.2
_symmetry_space_group_name_H-M    P1
_symmetry_Int_Tables_number       1
_space_group_crystal_system       triclinic
_cell_length_a                    10.968672
_cell_length_b                    10.969196
_cell_length_c                    9.792298
_cell_angle_alpha                 108.409982
_cell_angle_beta                  99.303443
_cell_angle_gamma                 89.930791
_cell_volume                      1101.61754936

loop_
_atom_site_label
_atom_site_type_symbol
_atom_type_description
_atom_site_fract_x
_atom_site_fract_y
_atom_site_fract_z
_atom_type_partial_charge
C1    C     C_R   0.493483 0.254858 0.445231 0.791788
C2    C     C_R   0.737086 0.498490 0.498218 0.882595
C3    C     C_R   0.140148 0.619065 0.777596 0.150200
C4    C     C_R   0.853288 0.349141 0.238545 0.100869
C5    C     C_R   0.099609 0.726634 0.878086 0.158874
C6    C     C_R   0.893236 0.330087 0.104287 0.074705
C7    C     C_R   0.988268 0.779001 0.839188 0.114477
C8    C     C_R   0.995604 0.402767 0.098719 0.119922
C9    C     C_R   0.910083 0.713534 0.707280 0.089747
C10   C     C_R   0.067686 0.480539 0.229271 0.145236
C11   C     C_R   0.948187 0.597632 0.612432 -0.029947
C12   C     C_R   0.497522 0.745422 0.554849 0.719332
C13   C     C_R   0.041663 0.476164 0.365583 -0.024389
C14   C     C_R   0.074195 0.572677 0.631906 -0.018479
C15   C     C_R   0.919835 0.439577 0.368034 0.018292
C16   C     C_R   0.869366 0.508103 0.494208 -0.125447
C17   C     C_R   0.126053 0.517126 0.501741 -0.166316
C18   C     C_2   0.499897 0.117964 0.427984 0.252480
C19   C     C_2   0.476764 0.883214 0.574828 0.236950
C20   C     C_2   0.413046 0.059253 0.473490 0.124884
C21   C     C_2   0.420500 0.923497 0.461555 0.147212
C22   C     C_2   0.516479 0.507006 0.083117 0.181737
C23   C     C_2   0.511659 0.475176 0.920569 0.144253
C24   C     C_R   0.261675 0.506528 0.501610 0.777742
Cu1   Cu    Cu3+1 0.521920 0.521810 0.644910 0.985465
Cu2   Cu    Cu3+1 0.478080 0.478190 0.355090 0.969017
H1    H     H_    0.587482 0.644778 0.930436 0.188114
H2    H     H_    0.675913 0.278725 0.170063 0.279201
H3    H     H_    0.115348 0.781005 0.097920 0.259415
H4    H     H_    0.198127 0.875569 0.035407 0.252953
H5    H     H_    0.882001 0.179661 0.918331 0.261011
H6    H     H_    0.787692 0.299107 0.905996 0.270970
H7    H     H_    0.737790 0.769566 0.723500 0.281338
H8    H     H_    0.770965 0.740499 0.551470 0.237630
H9    H     H_    0.218193 0.557584 0.181535 0.259820
H10   H     H_    0.156103 0.656916 0.325439 0.218621
H11   H     H_    0.312990 0.768453 0.329043 0.219057
H12   H     H_    0.379625 0.377257 0.068501 0.184893
H13   H     H_    0.442633 0.796597 0.265400 0.271985
H14   H     H_    0.256790 0.144103 0.416817 0.195853
H15   H     H_    0.319377 0.201613 0.595925 0.243335
H16   H     H_    0.519901 0.901615 0.913121 0.374111
H17   H     H_    0.831882 0.103806 0.433824 0.374302
H18   H     H_    0.515896 0.285306 0.870487 0.286023
H19   H     H_    0.372959 0.337128 0.836596 0.187146
H20   H     H_    0.595052 0.688796 0.165590 0.214054
H21   H     H_    0.695488 0.570709 0.152379 0.208599
H22   H     H_    0.015305 0.492679 0.951835 0.263029
H23   H     H_    0.114378 0.374056 0.955390 0.233283
H24   H     H_    0.939970 0.963358 0.882122 0.262613
H25   H     H_    0.868697 0.877359 0.965847 0.265143
H26   H     H_    0.217157 0.446549 0.764325 0.232672
H27   H     H_    0.308196 0.583615 0.870132 0.266796
H28   H     H_    0.778791 0.173819 0.203767 0.288027
N1    N     N_2   0.445130 0.445420 0.137360 -0.292915
N2    N     N_3   0.137105 0.588098 0.222051 -0.594050
N3    N     N_3   0.370961 0.838217 0.318941 -0.583274
N4    N     N_3   0.299560 0.118255 0.506409 -0.569853
N5    N     N_3   0.465340 0.349958 0.828880 -0.480964
N6    N     N_3   0.609453 0.599531 0.180365 -0.482456
N7    N     N_2   0.554870 0.554580 0.862640 -0.283407
N8    N     N_3   0.023015 0.400069 0.959671 -0.580380
N9    N     N_3   0.953005 0.895775 0.937369 -0.582077
N10   N     N_3   0.219628 0.539342 0.838435 -0.594427
N11   N     N_3   0.752903 0.268549 0.243312 -0.473419
N12   N     N_3   0.171632 0.780224 0.021137 -0.556650
N13   N     N_3   0.822508 0.244762 0.972764 -0.517680
N14   N     N_3   0.804971 0.778358 0.663120 -0.526897
O1    O     O_R   0.511700 0.332340 0.577400 -0.529154
O2    O     O_2   0.414631 0.066218 0.802071 -0.345413
O3    O     O_3   0.589952 0.928031 0.874446 -0.503027
O4    O     O_2   0.662296 0.924971 0.415260 -0.318070
O5    O     O_2   0.625470 0.011525 0.212036 -0.312702
O6    O     O_3   0.757445 0.151570 0.458340 -0.524649
O7    O     O_R   0.488300 0.667660 0.422600 -0.578287
O8    O     O_R   0.474680 0.295500 0.332650 -0.560034
O9    O     O_R   0.525320 0.704500 0.667350 -0.567850
O10   O     O_R   0.338170 0.518410 0.622370 -0.585198
O11   O     O_R   0.661830 0.481590 0.377630 -0.545910
O12   O     O_R   0.301150 0.481570 0.377630 -0.591250
O13   O     O_R   0.698850 0.518430 0.622370 -0.567410
O14   O     O_2   0.618602 0.091195 0.739391 -0.249658
S1    S     S_3+6 0.525174 0.996509 0.750783 -0.001465
S2    S     S_3+6 0.637255 0.044853 0.374741 -0.002666

loop_
_geom_bond_atom_site_label_1
_geom_bond_atom_site_label_2
_ccdc_geom_bond_type
Cu2   N1    S    
H28   N11   S    
C3    N10   S    
H5    N13   S    
C1    C18   S    
Cu1   O9    S    
C19   C21   D    
H15   N4    S    
C22   N6    S    
C4    N11   S    
H27   N10   S    
H18   N5    S    
C15   C16   A    
H13   N3    S    
C2    O11   A    
H1    N7    S    
H21   N6    S    
C24   O12   A    
H12   N1    S    
C18   S2    S    
C2    C16   S    
O5    S2    D    
H17   O6    S    
Cu1   O13   S    
H24   N9    S    
C14   C17   A    
C19   S1    S    
H4    N12   S    
O3    S1    S    
C17   C24   S    
H14   N4    S    
Cu1   O10   S    
H25   N9    S    
C4    C6    A    
H26   N10   S    
H8    N14   S    
C5    C7    A    
C6    C8    A    
Cu1   Cu2   S    
C1    O1    A    
C23   N5    S    
C21   N3    S    
H10   N2    S    
C11   C16   A    
H22   N8    S    
C12   O9    A    
Cu2   O7    S    
Cu1   N7    S    
O2    S1    D    
C9    C11   A    
C7    N9    S    
O4    S2    D    
C3    C14   A    
H6    N13   S    
C24   O10   A    
C6    N13   S    
C13   C15   A    
Cu1   O1    S    
C20   N4    S    
Cu2   O8    S    
C10   N2    S    
C7    C9    A    
H19   N5    S    
H23   N8    S    
H20   N6    S    
H9    N2    S    
C1    O8    A    
O6    S2    S    
C5    N12   S    
C3    C5    A    
C10   C13   A    
C22   N1    D    
Cu2   O11   S    
C13   C17   A    
C4    C15   A    
H2    N11   S    
C9    N14   S    
C12   C19   S    
H16   O3    S    
C11   C14   A    
C18   C20   D    
Cu2   O12   S    
H3    N12   S    
C23   N7    D    
C20   C21   S    
C8    C10   A    
O14   S1    D    
C12   O7    A    
C22   C23   S    
C2    O13   A    
H11   N3    S    
H7    N14   S    
C8    N8    S    
