data_mof_unit_21465.cif
_audit_creation_date              2012-10-26T21:33:01-0400
_audit_creation_method            fapswitch 2.2
_symmetry_space_group_name_H-M    P1
_symmetry_Int_Tables_number       1
_space_group_crystal_system       triclinic
_cell_length_a                    28.060946
_cell_length_b                    18.281437
_cell_length_c                    17.131689
_cell_angle_alpha                 90.000313
_cell_angle_beta                  60.101472
_cell_angle_gamma                 90.000143
_cell_volume                      7618.80064617

loop_
_atom_site_label
_atom_site_type_symbol
_atom_type_description
_atom_site_fract_x
_atom_site_fract_y
_atom_site_fract_z
_atom_type_partial_charge
C1    C     C_R   0.705472 0.277087 0.673099 0.901023
C2    C     C_R   0.967251 0.631041 0.454482 -0.298431
C3    C     C_R   0.070585 0.896126 0.937226 0.892866
C4    C     C_R   0.577190 0.595672 0.930295 0.936150
C5    C     C_R   0.429415 0.396127 0.062774 0.892860
C6    C     C_R   0.422809 0.595670 0.069707 0.936148
C7    C     C_R   0.570584 0.396126 0.937227 0.892866
C8    C     C_R   0.539745 0.999802 0.528020 0.027615
C9    C     C_R   0.460260 0.999802 0.471965 0.027620
C10   C     C_R   0.039743 0.499802 0.528026 0.027618
C11   C     C_R   0.960258 0.499802 0.471970 0.027619
C12   C     C_R   0.518932 0.066719 0.516200 0.042278
C13   C     C_R   0.967453 0.368576 0.454068 -0.267534
C14   C     C_R   0.481083 0.932906 0.483717 0.013756
C15   C     C_R   0.481072 0.066719 0.483789 0.042278
C16   C     C_R   0.518925 0.932906 0.516259 0.013734
C17   C     C_R   0.018930 0.566720 0.516204 0.042279
C18   C     C_R   0.981080 0.432907 0.483726 0.013738
C19   C     C_R   0.981070 0.566720 0.483793 0.042278
C20   C     C_R   0.018921 0.432907 0.516268 0.013735
C21   C     C_R   0.602942 0.933250 0.562910 -0.050732
C22   C     C_R   0.396865 0.066345 0.437281 0.012730
C23   C     C_R   0.397061 0.933250 0.437080 -0.050691
C24   C     C_R   0.032749 0.631041 0.545516 -0.298432
C25   C     C_R   0.603137 0.066345 0.562713 0.012731
C26   C     C_R   0.102941 0.433251 0.562914 -0.050733
C27   C     C_R   0.896864 0.566345 0.437283 0.012731
C28   C     C_R   0.897060 0.433251 0.437083 -0.050727
C29   C     C_R   0.103136 0.566345 0.562715 0.012729
C30   C     C_R   0.653028 0.934142 0.566244 -0.181965
C31   C     C_R   0.346677 0.065455 0.434106 -0.186368
C32   C     C_R   0.346972 0.934142 0.433751 -0.181923
C33   C     C_R   0.653323 0.065456 0.565891 -0.186360
C34   C     C_R   0.153028 0.434142 0.566245 -0.181972
C35   C     C_R   0.532553 0.868574 0.545913 -0.267536
C36   C     C_R   0.846677 0.565455 0.434107 -0.186368
C37   C     C_R   0.846972 0.434142 0.433754 -0.181970
C38   C     C_R   0.153323 0.565456 0.565892 -0.186363
C39   C     C_R   0.672698 0.999528 0.580696 0.118330
C40   C     C_R   0.327301 0.999528 0.419302 0.118302
C41   C     C_R   0.172698 0.499529 0.580696 0.118335
C42   C     C_R   0.827301 0.499528 0.419304 0.118334
C43   C     C_R   0.582020 0.999794 0.551090 -0.014578
C44   C     C_R   0.417983 0.999794 0.448899 -0.014600
C45   C     C_R   0.082019 0.499794 0.551094 -0.014575
C46   C     C_R   0.467252 0.131041 0.454480 -0.298432
C47   C     C_R   0.917982 0.499795 0.448903 -0.014576
C48   C     C_R   0.071160 0.369092 0.575677 0.272491
C49   C     C_R   0.928823 0.630336 0.424817 0.260737
C50   C     C_R   0.928840 0.369092 0.424319 0.272487
C51   C     C_R   0.071177 0.630336 0.575182 0.260737
C52   C     C_R   0.571162 0.869091 0.575670 0.272486
C53   C     C_R   0.428824 0.130336 0.424815 0.260740
C54   C     C_R   0.428840 0.869091 0.424318 0.272440
C55   C     C_R   0.571177 0.130335 0.575179 0.260738
C56   C     C_3   0.694176 0.029234 0.698446 -0.779596
C57   C     C_R   0.467457 0.868576 0.454057 -0.267576
C58   C     C_3   0.305820 0.029228 0.301554 -0.779577
C59   C     C_3   0.194177 0.529232 0.698446 -0.779592
C60   C     C_3   0.805820 0.529227 0.301555 -0.779585
C61   C     C_3   0.047633 0.240542 0.633746 -0.767509
C62   C     C_3   0.946016 0.675286 0.279690 -0.782538
C63   C     C_3   0.952355 0.240536 0.366268 -0.767471
C64   C     C_3   0.053984 0.675286 0.720310 -0.782540
C65   C     C_3   0.547640 0.740539 0.633728 -0.767489
C66   C     C_3   0.446015 0.175287 0.279689 -0.782542
C67   C     C_3   0.452277 0.740498 0.366389 -0.767280
C68   C     C_R   0.532750 0.131041 0.545513 -0.298431
C69   C     C_3   0.553983 0.175285 0.720308 -0.782542
C70   C     C_3   0.695399 0.441515 0.040068 -0.294954
C71   C     C_3   0.399634 0.760820 0.866136 -0.322072
C72   C     C_3   0.304596 0.441524 0.959943 -0.294943
C73   C     C_3   0.600356 0.760874 0.133896 -0.322055
C74   C     C_3   0.195401 0.941518 0.040064 -0.294945
C75   C     C_3   0.899632 0.260816 0.866142 -0.322068
C76   C     C_3   0.804596 0.941533 0.959944 -0.294944
C77   C     C_3   0.100363 0.260829 0.133863 -0.322066
C78   C     C_3   0.799261 0.372369 0.708967 -0.744047
C79   C     C_R   0.728838 0.289762 0.948843 -0.064166
C80   C     C_3   0.325288 0.895885 0.126655 -0.833951
C81   C     C_3   0.200738 0.372376 0.291042 -0.744046
C82   C     C_3   0.674706 0.895896 0.873339 -0.833942
C83   C     C_3   0.299261 0.872371 0.708963 -0.744054
C84   C     C_3   0.825285 0.395884 0.126652 -0.833956
C85   C     C_3   0.700739 0.872391 0.291047 -0.744060
C86   C     C_3   0.174709 0.395886 0.873346 -0.833946
C87   C     C_R   0.288419 0.755927 0.041073 -0.087334
C88   C     C_R   0.271157 0.289771 0.051162 -0.064166
C89   C     C_R   0.301743 0.739112 0.323391 0.876187
C90   C     C_R   0.711568 0.755948 0.958940 -0.087324
C91   C     C_R   0.228839 0.789765 0.948841 -0.064165
C92   C     C_R   0.788417 0.255924 0.041076 -0.087338
C93   C     C_R   0.771150 0.789784 0.051170 -0.064160
C94   C     C_R   0.211579 0.255932 0.958929 -0.087335
C95   C     C_R   0.775963 0.245002 0.909929 -0.303699
C96   C     C_R   0.239494 0.797242 0.082432 -0.302831
C97   C     C_R   0.224031 0.245012 0.090077 -0.303699
C98   C     C_R   0.760496 0.797259 0.917579 -0.302830
C99   C     C_R   0.275965 0.745005 0.909926 -0.303701
C100  C     C_R   0.294527 0.277088 0.326902 0.901026
C101  C     C_R   0.739491 0.297239 0.082435 -0.302836
C102  C     C_R   0.724020 0.745031 0.090089 -0.303718
C103  C     C_R   0.260504 0.297247 0.917571 -0.302829
C104  C     C_R   0.808711 0.235717 0.949662 0.511664
C105  C     C_R   0.213517 0.820465 0.034610 0.509709
C106  C     C_R   0.191283 0.235727 0.050344 0.511662
C107  C     C_R   0.786474 0.820481 0.965400 0.509707
C108  C     C_R   0.308714 0.735721 0.949659 0.511663
C109  C     C_R   0.713514 0.320462 0.034613 0.509711
C110  C     C_R   0.691271 0.735749 0.050356 0.511647
C111  C     C_R   0.698256 0.739113 0.676610 0.876155
C112  C     C_R   0.286480 0.320470 0.965394 0.509706
C113  C     C_R   0.640620 0.321755 0.947939 -0.208363
C114  C     C_R   0.350093 0.669559 0.066228 -0.217201
C115  C     C_R   0.359376 0.321759 0.052064 -0.208364
C116  C     C_R   0.649896 0.669576 0.933787 -0.217185
C117  C     C_R   0.140621 0.821756 0.947938 -0.208363
C118  C     C_R   0.850091 0.169557 0.066230 -0.217202
C119  C     C_R   0.859372 0.821765 0.052067 -0.208367
C120  C     C_R   0.149906 0.169562 0.933774 -0.217198
C121  C     C_R   0.612984 0.341314 0.901488 -0.102892
C122  C     C_R   0.205472 0.777088 0.673098 0.901027
C123  C     C_R   0.380497 0.650265 0.107729 -0.109968
C124  C     C_R   0.387014 0.341316 0.098513 -0.102889
C125  C     C_R   0.619499 0.650270 0.892276 -0.109974
C126  C     C_R   0.112984 0.841315 0.901488 -0.102892
C127  C     C_R   0.880497 0.150264 0.107730 -0.109968
C128  C     C_R   0.887012 0.841319 0.098514 -0.102889
C129  C     C_R   0.119503 0.150265 0.892271 -0.109970
C130  C     C_R   0.632648 0.319987 0.814457 -0.300722
C131  C     C_R   0.369211 0.681181 0.187871 -0.281269
C132  C     C_R   0.367351 0.319988 0.185544 -0.300722
C133  C     C_R   0.801743 0.239112 0.323391 0.876152
C134  C     C_R   0.630790 0.681179 0.812128 -0.281272
C135  C     C_R   0.132648 0.819987 0.814456 -0.300722
C136  C     C_R   0.869212 0.181182 0.187871 -0.281270
C137  C     C_R   0.867349 0.819990 0.185545 -0.300722
C138  C     C_R   0.130789 0.181180 0.812128 -0.281270
C139  C     C_R   0.685963 0.296735 0.765784 -0.101060
C140  C     C_R   0.329076 0.733348 0.225687 -0.139003
C141  C     C_R   0.314035 0.296738 0.234217 -0.101060
C142  C     C_R   0.670923 0.733349 0.774314 -0.139001
C143  C     C_R   0.185964 0.796736 0.765783 -0.101059
C144  C     C_R   0.794527 0.777090 0.326903 0.901030
C145  C     C_R   0.829076 0.233348 0.225687 -0.139009
C146  C     C_R   0.814033 0.796742 0.234220 -0.101057
C147  C     C_R   0.170924 0.233348 0.774313 -0.139003
C148  C     C_R   0.720675 0.296512 0.805164 0.173471
C149  C     C_R   0.309829 0.768788 0.172086 0.209585
C150  C     C_R   0.279322 0.296517 0.194840 0.173470
C151  C     C_R   0.690165 0.768796 0.827918 0.209580
C152  C     C_R   0.220676 0.796514 0.805163 0.173474
C153  C     C_R   0.809828 0.268787 0.172087 0.209591
C154  C     C_R   0.779319 0.796526 0.194845 0.173474
C155  C     C_R   0.198257 0.239112 0.676609 0.876152
C156  C     C_R   0.190170 0.268789 0.827915 0.209588
C157  C     C_R   0.696498 0.302144 0.900282 0.087452
C158  C     C_R   0.316693 0.732421 0.093203 0.104830
C159  C     C_R   0.303498 0.302151 0.099722 0.087451
C160  C     C_R   0.683296 0.732438 0.906808 0.104840
C161  C     C_R   0.196500 0.802147 0.900281 0.087451
C162  C     C_R   0.816691 0.232419 0.093205 0.104833
C163  C     C_R   0.803492 0.802160 0.099727 0.087452
C164  C     C_R   0.183306 0.232424 0.906798 0.104831
C165  C     C_R   0.690269 0.129546 0.538015 0.940690
C166  C     C_R   0.032549 0.368575 0.545925 -0.267533
C167  C     C_R   0.309896 0.870231 0.461476 0.887433
C168  C     C_R   0.309731 0.129546 0.461984 0.940694
C169  C     C_R   0.690105 0.870231 0.538521 0.887367
C170  C     C_R   0.190269 0.629546 0.538016 0.940697
C171  C     C_R   0.809895 0.370231 0.461478 0.887362
C172  C     C_R   0.809731 0.629546 0.461984 0.940694
C173  C     C_R   0.190105 0.370231 0.538521 0.887358
C174  C     C_R   0.077191 0.095670 0.930293 0.936147
C175  C     C_R   0.929414 0.896128 0.062774 0.892860
C176  C     C_R   0.922809 0.095670 0.069707 0.936145
H1    H     H_    0.009785 0.319168 0.553062 0.155681
H2    H     H_    0.221052 0.813758 0.151976 0.213519
H3    H     H_    0.771604 0.955450 0.944318 0.164195
H4    H     H_    0.837375 0.983391 0.927516 0.203970
H5    H     H_    0.101807 0.293164 0.077658 0.162624
H6    H     H_    0.105206 0.297471 0.181345 0.172495
H7    H     H_    0.059057 0.235433 0.170689 0.195690
H8    H     H_    0.798269 0.257996 0.708064 0.246978
H9    H     H_    0.844901 0.372409 0.673451 0.238467
H10   H     H_    0.784029 0.415714 0.761412 0.236909
H11   H     H_    0.785816 0.384620 0.659386 0.234174
H12   H     H_    0.276832 0.859868 0.256498 0.255142
H13   H     H_    0.210896 0.217203 0.153066 0.185457
H14   H     H_    0.304544 0.949930 0.143200 0.241866
H15   H     H_    0.334561 0.881281 0.057644 0.251321
H16   H     H_    0.364408 0.900443 0.127873 0.238758
H17   H     H_    0.201728 0.258003 0.291941 0.246979
H18   H     H_    0.155098 0.372417 0.326559 0.238469
H19   H     H_    0.215970 0.415722 0.238598 0.236909
H20   H     H_    0.214184 0.384625 0.340621 0.234171
H21   H     H_    0.723164 0.859872 0.743500 0.255142
H22   H     H_    0.695453 0.949939 0.856796 0.241866
H23   H     H_    0.665427 0.881295 0.942353 0.251320
H24   H     H_    0.778938 0.813771 0.848034 0.213519
H25   H     H_    0.635589 0.900457 0.872112 0.238758
H26   H     H_    0.298270 0.757999 0.708062 0.246974
H27   H     H_    0.344901 0.872411 0.673445 0.238467
H28   H     H_    0.284031 0.915717 0.761407 0.236911
H29   H     H_    0.285815 0.884622 0.659385 0.234170
H30   H     H_    0.776833 0.359868 0.256497 0.255141
H31   H     H_    0.804541 0.449929 0.143199 0.241864
H32   H     H_    0.834553 0.381281 0.057643 0.251322
H33   H     H_    0.864407 0.400441 0.127861 0.238760
H34   H     H_    0.701723 0.758018 0.291953 0.246980
H35   H     H_    0.289099 0.717196 0.846938 0.185455
H36   H     H_    0.655099 0.872436 0.326568 0.238471
H37   H     H_    0.715971 0.915735 0.238601 0.236912
H38   H     H_    0.714188 0.884641 0.340623 0.234169
H39   H     H_    0.223166 0.359869 0.743503 0.255140
H40   H     H_    0.195454 0.449931 0.856803 0.241864
H41   H     H_    0.165436 0.381284 0.942358 0.251319
H42   H     H_    0.135590 0.400444 0.872127 0.238761
H43   H     H_    0.721050 0.313755 0.151978 0.213520
H44   H     H_    0.710883 0.717225 0.153079 0.185462
H45   H     H_    0.278946 0.313762 0.848027 0.213518
H46   H     H_    0.618806 0.327179 0.020145 0.215265
H47   H     H_    0.353299 0.634855 0.012964 0.210577
H48   H     H_    0.381189 0.327184 0.979858 0.215265
H49   H     H_    0.989461 0.681271 0.447056 0.140919
H50   H     H_    0.646685 0.634880 0.987060 0.210577
H51   H     H_    0.118808 0.827181 0.020144 0.215265
H52   H     H_    0.853297 0.134852 0.012967 0.210574
H53   H     H_    0.881184 0.827191 0.979862 0.215270
H54   H     H_    0.146699 0.134859 0.987039 0.210576
H55   H     H_    0.608175 0.328349 0.782240 0.182070
H56   H     H_    0.388656 0.660268 0.224439 0.187503
H57   H     H_    0.391824 0.328349 0.217759 0.182068
H58   H     H_    0.611350 0.660259 0.775555 0.187512
H59   H     H_    0.108176 0.828349 0.782240 0.182069
H60   H     H_    0.990217 0.319168 0.446929 0.155681
H61   H     H_    0.888657 0.160270 0.224438 0.187507
H62   H     H_    0.891824 0.828347 0.217758 0.182067
H63   H     H_    0.111345 0.160266 0.775559 0.187510
H64   H     H_    0.752149 0.007406 0.562684 0.260731
H65   H     H_    0.726129 0.019561 0.717409 0.232614
H66   H     H_    0.655230 0.003267 0.749690 0.239767
H67   H     H_    0.687862 0.089115 0.697795 0.240665
H68   H     H_    0.247849 0.007408 0.437319 0.260731
H69   H     H_    0.312146 0.089107 0.302197 0.240657
H70   H     H_    0.273863 0.019564 0.282599 0.232609
H71   H     H_    0.010540 0.681271 0.552943 0.140919
H72   H     H_    0.344761 0.003249 0.250310 0.239767
H73   H     H_    0.252150 0.507407 0.562683 0.260730
H74   H     H_    0.187861 0.589113 0.697797 0.240665
H75   H     H_    0.226131 0.519559 0.717409 0.232612
H76   H     H_    0.155232 0.503262 0.749689 0.239766
H77   H     H_    0.747848 0.507407 0.437321 0.260731
H78   H     H_    0.812145 0.589106 0.302197 0.240660
H79   H     H_    0.773862 0.519561 0.282600 0.232610
H80   H     H_    0.844761 0.503248 0.250311 0.239768
H81   H     H_    0.074578 0.325559 0.686385 0.206213
H82   H     H_    0.509791 0.819165 0.553045 0.155684
H83   H     H_    0.059055 0.200689 0.670570 0.235311
H84   H     H_    0.062593 0.219141 0.564684 0.235641
H85   H     H_    0.002222 0.246023 0.669939 0.217516
H86   H     H_    0.944514 0.738717 0.381354 0.215787
H87   H     H_    0.942741 0.725424 0.246120 0.233291
H88   H     H_    0.920034 0.632371 0.273714 0.238397
H89   H     H_    0.989592 0.657040 0.244701 0.234912
H90   H     H_    0.925422 0.325555 0.313611 0.206210
H91   H     H_    0.940927 0.200682 0.329451 0.235309
H92   H     H_    0.937388 0.219144 0.435336 0.235638
H93   H     H_    0.489461 0.181272 0.447054 0.140918
H94   H     H_    0.997766 0.246002 0.330079 0.217510
H95   H     H_    0.055487 0.738718 0.618646 0.215787
H96   H     H_    0.057258 0.725424 0.753880 0.233291
H97   H     H_    0.079965 0.632371 0.726287 0.238399
H98   H     H_    0.010407 0.657040 0.755298 0.234912
H99   H     H_    0.574563 0.825562 0.686393 0.206210
H100  H     H_    0.559062 0.700684 0.670552 0.235308
H101  H     H_    0.562607 0.719141 0.564662 0.235637
H102  H     H_    0.502229 0.746011 0.669915 0.217510
H103  H     H_    0.444513 0.238718 0.381353 0.215787
H104  H     H_    0.490225 0.819170 0.446906 0.155686
H105  H     H_    0.442741 0.225425 0.246120 0.233291
H106  H     H_    0.420034 0.132372 0.273712 0.238396
H107  H     H_    0.489591 0.157041 0.244700 0.234911
H108  H     H_    0.425505 0.825563 0.313537 0.206175
H109  H     H_    0.440819 0.700639 0.329615 0.235318
H110  H     H_    0.437271 0.719165 0.435493 0.235625
H111  H     H_    0.497694 0.745876 0.330213 0.217452
H112  H     H_    0.555486 0.238717 0.618644 0.215787
H113  H     H_    0.557257 0.225423 0.753879 0.233291
H114  H     H_    0.579964 0.132370 0.726285 0.238399
H115  H     H_    0.510540 0.181270 0.552941 0.140919
H116  H     H_    0.510407 0.157039 0.755296 0.234912
H117  H     H_    0.711473 0.444613 0.966185 0.161798
H118  H     H_    0.728389 0.455429 0.055699 0.164196
H119  H     H_    0.662621 0.483376 0.072492 0.203959
H120  H     H_    0.398191 0.793157 0.922339 0.162626
H121  H     H_    0.394790 0.797460 0.818654 0.172494
H122  H     H_    0.440939 0.735423 0.829309 0.195690
H123  H     H_    0.288524 0.444620 0.033825 0.161795
H124  H     H_    0.271605 0.455438 0.944316 0.164195
H125  H     H_    0.337374 0.483385 0.927518 0.203968
H126  H     H_    0.789097 0.217193 0.846940 0.185456
H127  H     H_    0.601786 0.793197 0.077695 0.162632
H128  H     H_    0.605226 0.797523 0.181345 0.172490
H129  H     H_    0.559047 0.735492 0.170766 0.195678
H130  H     H_    0.211474 0.944615 0.966182 0.161795
H131  H     H_    0.228392 0.955433 0.055693 0.164196
H132  H     H_    0.162623 0.983379 0.072488 0.203966
H133  H     H_    0.898186 0.293154 0.922345 0.162625
H134  H     H_    0.894792 0.297454 0.818655 0.172494
H135  H     H_    0.940937 0.235417 0.829321 0.195690
H136  H     H_    0.788525 0.944630 0.033825 0.161793
N1    N     N_2   0.711843 0.997582 0.610804 -0.279325
N2    N     N_2   0.427751 0.191066 0.373231 -0.267261
N3    N     N_2   0.427064 0.810458 0.370243 -0.272876
N4    N     N_2   0.572249 0.191065 0.626766 -0.267261
N5    N     N_2   0.778941 0.301650 0.750040 -0.321797
N6    N     N_2   0.289713 0.842177 0.191987 -0.319463
N7    N     N_2   0.221057 0.301657 0.249966 -0.321797
N8    N     N_2   0.710282 0.842185 0.808012 -0.319466
N9    N     N_2   0.278942 0.801652 0.750037 -0.321797
N10   N     N_2   0.789712 0.342176 0.191987 -0.319462
N11   N     N_2   0.721053 0.801670 0.249975 -0.321803
N12   N     N_2   0.288155 0.997582 0.389198 -0.279324
N13   N     N_2   0.210285 0.342179 0.808014 -0.319465
N14   N     N_2   0.211844 0.497582 0.610803 -0.279324
N15   N     N_2   0.788154 0.497581 0.389200 -0.279325
N16   N     N_2   0.072937 0.310457 0.629749 -0.272814
N17   N     N_2   0.927751 0.691066 0.373232 -0.267261
N18   N     N_2   0.927062 0.310456 0.370248 -0.272827
N19   N     N_2   0.072249 0.691066 0.626767 -0.267261
N20   N     N_2   0.572936 0.810456 0.629745 -0.272815
O1    O     O_R   0.746490 0.236330 0.638080 -0.647507
O2    O     O_R   0.325830 0.813840 0.483730 -0.605491
O3    O     O_R   0.325830 0.186160 0.483730 -0.597005
O4    O     O_R   0.674170 0.813840 0.516270 -0.605516
O5    O     O_R   0.174170 0.686160 0.516270 -0.597004
O6    O     O_R   0.825830 0.313840 0.483730 -0.605519
O7    O     O_R   0.825830 0.686160 0.483730 -0.597004
O8    O     O_R   0.174170 0.313840 0.516270 -0.605520
O9    O     O_R   0.739960 0.127620 0.525000 -0.626863
O10   O     O_R   0.260040 0.872380 0.475000 -0.627027
O11   O     O_R   0.260040 0.127620 0.475000 -0.626862
O12   O     O_R   0.253510 0.763670 0.361920 -0.634864
O13   O     O_R   0.739960 0.872380 0.525000 -0.627017
O14   O     O_R   0.239960 0.627620 0.525000 -0.626865
O15   O     O_R   0.760040 0.372380 0.475000 -0.627010
O16   O     O_R   0.760040 0.627620 0.475000 -0.626862
O17   O     O_R   0.239960 0.372380 0.525000 -0.627012
O18   O     O_R   0.680700 0.294870 0.629350 -0.621742
O19   O     O_R   0.319300 0.705130 0.370650 -0.616626
O20   O     O_R   0.319300 0.294870 0.370650 -0.621744
O21   O     O_R   0.680700 0.705130 0.629350 -0.616610
O22   O     O_R   0.180700 0.794870 0.629350 -0.621741
O23   O     O_R   0.253510 0.236330 0.361920 -0.647505
O24   O     O_R   0.819300 0.205130 0.370650 -0.616611
O25   O     O_R   0.819300 0.794870 0.370650 -0.621744
O26   O     O_R   0.180700 0.205130 0.629350 -0.616609
O27   O     O_R   0.062020 0.072840 0.007170 -0.612293
O28   O     O_R   0.937980 0.927160 0.992830 -0.615060
O29   O     O_R   0.937980 0.072840 0.992830 -0.612294
O30   O     O_R   0.062020 0.927160 0.007170 -0.615057
O31   O     O_R   0.562020 0.572840 0.007170 -0.612293
O32   O     O_R   0.437980 0.427160 0.992830 -0.615057
O33   O     O_R   0.437980 0.572840 0.992830 -0.612295
O34   O     O_R   0.746490 0.763670 0.638080 -0.634859
O35   O     O_R   0.562020 0.427160 0.007170 -0.615056
O36   O     O_R   0.947860 0.073950 0.109290 -0.621641
O37   O     O_R   0.052140 0.926050 0.890710 -0.624077
O38   O     O_R   0.052140 0.073950 0.890710 -0.621642
O39   O     O_R   0.947860 0.926050 0.109290 -0.624076
O40   O     O_R   0.447860 0.573950 0.109290 -0.621639
O41   O     O_R   0.552140 0.426050 0.890710 -0.624077
O42   O     O_R   0.552140 0.573950 0.890710 -0.621642
O43   O     O_R   0.447860 0.426050 0.109290 -0.624080
O44   O     O_3   0.672506 0.372259 0.074805 -0.627593
O45   O     O_R   0.246490 0.736330 0.638080 -0.647511
O46   O     O_3   0.359937 0.704639 0.897529 -0.628263
O47   O     O_3   0.327489 0.372268 0.925202 -0.627594
O48   O     O_3   0.640043 0.704680 0.102490 -0.628260
O49   O     O_3   0.172508 0.872262 0.074803 -0.627594
O50   O     O_3   0.859934 0.204636 0.897532 -0.628263
O51   O     O_3   0.827485 0.872275 0.925204 -0.627596
O52   O     O_3   0.140059 0.204648 0.102473 -0.628262
O53   O     O_R   0.753510 0.263670 0.361920 -0.634859
O54   O     O_R   0.753510 0.736330 0.361920 -0.647508
O55   O     O_R   0.246490 0.263670 0.638080 -0.634860
O56   O     O_R   0.674170 0.186160 0.516270 -0.597005
Zn1   Zn    Zn3+2 0.792340 0.208750 0.507670 0.938397
Zn2   Zn    Zn3+2 0.494040 0.500000 0.919480 0.954980
Zn3   Zn    Zn3+2 0.005960 0.000000 0.080520 0.954982
Zn4   Zn    Zn3+2 0.994040 1.000000 0.919480 0.954979
Zn5   Zn    Zn3+2 0.207660 0.791250 0.492330 0.950981
Zn6   Zn    Zn3+2 0.207660 0.208750 0.492330 0.938409
Zn7   Zn    Zn3+2 0.792340 0.791250 0.507670 0.950981
Zn8   Zn    Zn3+2 0.292340 0.708750 0.507670 0.938339
Zn9   Zn    Zn3+2 0.707660 0.291250 0.492330 0.950981
Zn10  Zn    Zn3+2 0.707660 0.708750 0.492330 0.938402
Zn11  Zn    Zn3+2 0.292340 0.291250 0.507670 0.950979
Zn12  Zn    Zn3+2 0.505960 0.500000 0.080520 0.954982

loop_
_geom_bond_atom_site_label_1
_geom_bond_atom_site_label_2
_ccdc_geom_bond_type
C131  H56   S    
C28   C47   A    
C144  O54   A    
C174  O27   A    
C36   C42   A    
O20   Zn11  S    
H34   N11   S    
C4    C125  S    
C6    C123  S    
C61   N16   S    
C58   N12   S    
O34   Zn7   S    
C63   H94   S    
C82   H22   S    
C16   C35   A    
C6    O33   A    
C37   C42   A    
C66   H106  S    
C171  O6    A    
C131  C140  A    
C111  C142  S    
C75   H134  S    
C118  C162  A    
C10   C20   A    
O13   Zn7   S    
O37   Zn4   S    
C77   H5    S    
C78   H10   S    
C114  H47   S    
C147  C155  S    
C117  C126  A    
C88   C97   A    
C172  O7    A    
C173  O17   A    
C119  C128  A    
C24   C51   A    
C2    C19   A    
C8    C16   A    
C65   H100  S    
O43   Zn12  S    
C80   H16   S    
C69   N4    S    
O41   Zn2   S    
C42   N15   S    
C64   N19   S    
C150  C159  A    
C79   C109  A    
C59   N14   S    
C17   C24   A    
H17   N7    S    
C137  C146  A    
C127  C136  A    
C120  H54   S    
C148  N5    S    
C84   H33   S    
C81   N7    S    
C82   N8    S    
C29   C45   A    
C103  C112  A    
C122  O22   A    
C142  C151  A    
C30   C169  S    
C82   H25   S    
C101  H43   S    
C146  C154  A    
C165  O56   A    
C59   H74   S    
C60   H78   S    
C166  H1    S    
C65   N20   S    
O29   Zn4   S    
C13   C18   A    
O30   Zn3   S    
C51   N19   S    
C74   O49   S    
C133  C145  S    
O36   Zn3   S    
C106  O52   S    
H30   N10   S    
C127  C176  S    
C14   C57   A    
C56   H66   S    
H99   N20   S    
C128  C175  S    
O33   Zn2   S    
C58   H69   S    
C25   C55   A    
C83   H28   S    
O2    Zn8   S    
C62   H87   S    
C64   H97   S    
C155  O55   A    
C176  O29   A    
C9    C15   A    
C61   H85   S    
C62   H89   S    
C55   N4    S    
C103  H45   S    
C152  N9    S    
C89   O12   A    
C46   C53   A    
C151  N8    S    
C77   H7    S    
C86   H40   S    
C92   C104  A    
H77   N15   S    
C112  O47   S    
C3    O37   A    
C68   H115  S    
C84   N10   S    
C65   H102  S    
C175  O28   A    
C61   H84   S    
C113  C157  A    
O9    Zn1   S    
C89   O19   A    
H103  N2    S    
H95   N19   S    
C11   C18   A    
C91   C105  A    
C155  O26   A    
C121  C130  A    
C76   H3    S    
C73   H129  S    
C25   C43   A    
C99   H35   S    
C69   H114  S    
C99   C108  A    
C12   C68   A    
O19   Zn8   S    
C77   O52   S    
O45   Zn8   S    
C72   O47   S    
C93   C163  S    
C111  O21   A    
C60   H80   S    
H21   N8    S    
O26   Zn6   S    
O27   Zn3   S    
C85   N11   S    
C64   H96   S    
C26   C45   A    
C29   C38   A    
C169  O13   A    
O23   Zn6   S    
O16   Zn10  S    
C149  C158  A    
C138  C147  A    
C152  C161  A    
O10   Zn5   S    
C102  H44   S    
C75   H135  S    
C135  C143  A    
O8    Zn6   S    
O40   Zn12  S    
O1    Zn1   S    
C122  C143  S    
C7    C121  S    
C7    O35   A    
C141  C150  A    
C139  C148  A    
C36   C172  S    
C100  O20   A    
C120  C129  A    
H68   N12   S    
C38   C41   A    
C40   N12   S    
H64   N1    S    
C119  H53   S    
C150  N7    S    
C41   N14   S    
C5    O32   A    
C71   H121  S    
C81   H19   S    
C1    O1    A    
C84   H32   S    
C8    C12   A    
C89   C140  S    
C10   C45   A    
C134  H58   S    
C138  H63   S    
C70   H119  S    
C170  O5    A    
O35   Zn12  S    
C114  C123  A    
O4    Zn10  S    
C116  C125  A    
C59   H75   S    
C118  C127  A    
C39   N1    S    
C72   H123  S    
C74   H132  S    
O24   Zn1   S    
H86   N17   S    
C29   C51   A    
H108  N3    S    
C27   C47   A    
C132  C141  A    
C61   H83   S    
O18   Zn9   S    
C33   C165  S    
C170  O14   A    
C1    C139  S    
C37   C171  S    
O14   Zn8   S    
C58   H72   S    
C168  O3    A    
C82   H23   S    
C83   H29   S    
C85   H38   S    
H90   N18   S    
C4    O42   A    
C28   C37   A    
C176  O36   A    
C30   C39   A    
C148  C157  A    
C66   H107  S    
H73   N14   S    
C120  C164  A    
C13   C50   A    
C75   H133  S    
C57   H104  S    
C113  C121  A    
O38   Zn4   S    
C24   H71   S    
C78   H11   S    
C15   C46   A    
C91   C99   A    
C140  C149  A    
C153  N10   S    
C27   C49   A    
C25   C33   A    
C54   C57   A    
C125  C134  A    
C96   C105  A    
C167  O2    A    
C11   C47   A    
C8    C43   A    
C73   O48   S    
C55   C68   A    
C3    C126  S    
C5    C124  S    
C11   C19   A    
C78   N5    S    
C116  C160  A    
C67   H110  S    
C100  C141  S    
C101  C109  A    
C144  O25   A    
C31   C40   A    
C70   H117  S    
C114  C158  A    
C76   H136  S    
O3    Zn11  S    
C108  O46   S    
C73   H127  S    
C53   N2    S    
C63   H92   S    
C74   H130  S    
C26   C48   A    
C75   O50   S    
C169  O4    A    
C136  H61   S    
C175  O39   A    
C35   H82   S    
C34   C41   A    
C130  C139  A    
C165  O9    A    
C38   C170  S    
C66   N2    S    
C58   H70   S    
C104  O50   S    
C144  C146  S    
C62   H88   S    
C76   O51   S    
C64   H98   S    
C23   C44   A    
C109  O44   S    
C115  C159  A    
C66   H105  S    
C9    C14   A    
C79   C95   A    
C134  C142  A    
C115  H48   S    
C71   O46   S    
C12   C15   A    
C77   H6    S    
C78   H9    S    
C147  C156  A    
C92   C101  A    
C5    O43   A    
C97   C106  A    
C83   H27   S    
C143  C152  A    
C67   N3    S    
C126  C135  A    
C50   N18   S    
C65   H101  S    
C80   H15   S    
C135  H59   S    
C129  C174  S    
C102  C110  A    
H39   N13   S    
O11   Zn6   S    
C94   C164  S    
O55   Zn11  S    
C56   N1    S    
C92   C162  S    
C115  C124  A    
O28   Zn4   S    
C123  C131  A    
C70   O44   S    
C76   H4    S    
C93   C102  A    
C79   C157  S    
C100  O23   A    
C133  O24   A    
C27   C36   A    
C20   C166  A    
C21   C30   A    
C69   H116  S    
C98   H24   S    
C153  C162  A    
C118  H52   S    
C23   C32   A    
C34   C173  S    
O39   Zn3   S    
C71   H120  S    
C90   C160  S    
C4    O31   A    
C113  H46   S    
H26   N9    S    
C173  O8    A    
C94   C106  A    
C98   C107  A    
C88   C112  A    
C48   C166  A    
C31   C168  S    
C32   C167  S    
C35   C52   A    
C91   C161  S    
C80   N6    S    
C2    H49   S    
O15   Zn9   S    
C56   H65   S    
C133  O53   A    
O25   Zn7   S    
C122  O45   A    
O5    Zn5   S    
C6    O40   A    
C33   C39   A    
C86   H42   S    
C49   N17   S    
C111  O34   A    
O53   Zn9   S    
C10   C17   A    
C88   C159  S    
C137  H62   S    
H8    N5    S    
C67   H111  S    
C167  O10   A    
C81   H18   S    
C21   C43   A    
C28   C50   A    
C26   C34   A    
C22   C44   A    
C87   C108  A    
C52   N20   S    
C83   N9    S    
C63   N18   S    
C136  C145  A    
O42   Zn2   S    
C105  O49   S    
C1    O18   A    
C145  C153  A    
C70   H118  S    
C107  O51   S    
C73   H128  S    
C154  N11   S    
C72   H124  S    
C168  O11   A    
C124  C132  A    
C22   C53   A    
O21   Zn10  S    
H81   N16   S    
C22   C31   A    
C129  C138  A    
O22   Zn5   S    
C154  C163  A    
H12   N6    S    
C119  C163  A    
C117  C161  A    
C60   H79   S    
C116  H50   S    
C86   H41   S    
C128  C137  A    
O32   Zn2   S    
C2    C49   A    
C85   H37   S    
C7    O41   A    
C172  O16   A    
O7    Zn7   S    
C87   C96   A    
C56   H67   S    
C46   H93   S    
C13   H60   S    
C132  H57   S    
C14   C16   A    
H112  N4    S    
C86   N13   S    
C85   H36   S    
C95   C104  A    
C23   C54   A    
O56   Zn9   S    
C117  H51   S    
C9    C44   A    
C110  O48   S    
C80   H14   S    
C171  O15   A    
C156  N13   S    
O17   Zn11  S    
C94   C103  A    
C62   N17   S    
C87   C158  S    
C151  C160  A    
O6    Zn1   S    
C71   H122  S    
C67   H109  S    
C72   H125  S    
C93   C107  A    
C81   H20   S    
C84   H31   S    
C149  N6    S    
C130  H55   S    
C48   N16   S    
C97   H13   S    
C17   C19   A    
C95   H126  S    
C69   H113  S    
C18   C20   A    
C54   N3    S    
C32   C40   A    
C3    O30   A    
O54   Zn10  S    
O12   Zn5   S    
C156  C164  A    
C59   H76   S    
C174  O38   A    
C60   N15   S    
C96   H2    S    
O31   Zn12  S    
C63   H91   S    
C90   C98   A    
C21   C52   A    
C74   H131  S    
C90   C110  A    
