data_mof_unit_17982.cif
_audit_creation_date              2012-12-10T19:47:26-0500
_audit_creation_method            fapswitch 2.2
_symmetry_space_group_name_H-M    P1
_symmetry_Int_Tables_number       1
_space_group_crystal_system       triclinic
_cell_length_a                    10.870418
_cell_length_b                    10.891312
_cell_length_c                    12.788987
_cell_angle_alpha                 90.502762
_cell_angle_beta                  91.438136
_cell_angle_gamma                 89.36716
_cell_volume                      1513.50403932

loop_
_atom_site_label
_atom_site_type_symbol
_atom_type_description
_atom_site_fract_x
_atom_site_fract_y
_atom_site_fract_z
_atom_type_partial_charge
C1    C     C_R   0.262101 0.500796 0.501574 0.812899
C2    C     C_R   0.874013 0.471441 0.225994 -0.159176
C3    C     C_R   0.123438 0.599724 0.682636 -0.071758
C4    C     C_R   0.876352 0.400199 0.316797 -0.072231
C5    C     C_R   0.184509 0.714290 0.680494 0.448495
C6    C     C_R   0.813704 0.286391 0.317681 0.454364
C7    C     C_R   0.255096 0.751718 0.767980 0.488863
C8    C     C_R   0.744727 0.249931 0.228911 0.478903
C9    C     C_R   0.262014 0.676960 0.857242 -0.328854
C10   C     C_R   0.740692 0.325002 0.139805 -0.326958
C11   C     C_R   0.935064 0.544489 0.584979 -0.218665
C12   C     C_R   0.737871 0.498757 0.498439 0.811695
C13   C     C_R   0.064880 0.453850 0.415216 -0.214733
C14   C     C_R   0.871680 0.497997 0.496871 -0.077718
C15   C     C_R   0.128245 0.500680 0.503226 -0.074663
C16   C     C_R   0.499558 0.262112 0.502375 0.819614
C17   C     C_R   0.499971 0.737889 0.497668 0.816025
C18   C     C_R   0.937463 0.451636 0.411301 0.007516
C19   C     C_R   0.062394 0.546879 0.588784 0.008563
C20   C     C_2   0.464269 0.468322 0.032461 -0.270204
C21   C     C_2   0.536123 0.532278 0.967569 -0.271504
C22   C     C_1   0.525873 0.524058 0.852204 0.216651
C23   C     C_R   0.500354 0.871575 0.495521 -0.115355
C24   C     C_1   0.474381 0.476219 0.147798 0.213186
C25   C     C_R   0.649768 0.127778 0.864759 0.177285
C26   C     C_R   0.332841 0.874901 0.141676 0.187263
C27   C     C_R   0.641824 0.107451 0.756006 0.368313
C28   C     C_R   0.346965 0.887678 0.251020 0.352619
C29   C     C_R   0.525485 0.115712 0.703089 -0.119669
C30   C     C_R   0.466965 0.884690 0.297779 -0.117335
C31   C     C_R   0.419857 0.153385 0.758877 0.486727
C32   C     C_R   0.570379 0.857286 0.235731 0.479673
C33   C     C_R   0.431225 0.176385 0.865994 -0.193883
C34   C     C_R   0.498205 0.128423 0.504703 -0.114868
C35   C     C_R   0.553517 0.842127 0.128093 -0.201411
C36   C     C_R   0.543485 0.160374 0.918889 -0.347457
C37   C     C_R   0.437190 0.854056 0.081375 -0.325057
C38   C     C_R   0.514351 0.933647 0.591475 -0.083774
C39   C     C_R   0.484018 0.066356 0.408796 -0.077480
C40   C     C_3   0.770935 0.110209 0.923657 -0.346648
C41   C     C_3   0.859655 0.214507 0.902372 -0.764191
C42   C     C_3   0.207191 0.885451 0.088315 -0.355845
C43   C     C_3   0.195969 0.000983 0.021917 -0.804420
C44   C     C_R   0.485473 0.939334 0.402987 -0.022471
C45   C     C_R   0.511519 0.060693 0.597458 -0.026964
C46   C     C_R   0.196943 0.567755 0.860647 -0.185083
C47   C     C_R   0.806605 0.433746 0.137930 -0.181468
C48   C     C_R   0.128142 0.528963 0.773702 -0.156266
Cu1   Cu    Cu3+1 0.492140 0.492110 0.395880 0.997684
Cu2   Cu    Cu3+1 0.507860 0.507890 0.604120 0.999486
H1    H     H_    0.546144 0.172832 0.002612 0.155208
H2    H     H_    0.470775 0.116637 0.336510 0.182978
H3    H     H_    0.318593 0.701888 0.924056 0.150898
H4    H     H_    0.685913 0.300464 0.071788 0.161080
H5    H     H_    0.201988 0.511712 0.930098 0.157119
H6    H     H_    0.803558 0.490121 0.068634 0.156093
H7    H     H_    0.081520 0.441620 0.776069 0.167841
H8    H     H_    0.921687 0.558246 0.224582 0.168406
H9    H     H_    0.120084 0.759559 0.541844 0.321003
H10   H     H_    0.874422 0.240091 0.457207 0.318803
H11   H     H_    0.369024 0.870893 0.827359 0.291991
H12   H     H_    0.429589 0.848444 0.997464 0.157578
H13   H     H_    0.633745 0.130264 0.165841 0.294143
H14   H     H_    0.889965 0.211040 0.820177 0.287629
H15   H     H_    0.815064 0.305008 0.917079 0.236032
H16   H     H_    0.942261 0.205699 0.954730 0.233014
H17   H     H_    0.756461 0.105473 0.009066 0.187588
H18   H     H_    0.813628 0.021071 0.900805 0.227264
H19   H     H_    0.214234 0.083863 0.070875 0.250842
H20   H     H_    0.261870 0.997116 0.957201 0.261754
H21   H     H_    0.101427 0.008343 0.987446 0.252358
H22   H     H_    0.190224 0.803299 0.038605 0.188820
H23   H     H_    0.885462 0.581508 0.650938 0.168297
H24   H     H_    0.132299 0.888114 0.145733 0.258723
H25   H     H_    0.735795 0.084349 0.628872 0.348991
H26   H     H_    0.262290 0.895595 0.384004 0.353412
H27   H     H_    0.306721 0.150459 0.637433 0.337498
H28   H     H_    0.689153 0.852390 0.352857 0.337112
H29   H     H_    0.114563 0.416989 0.349244 0.167557
H30   H     H_    0.604720 0.593680 0.001145 0.157319
H31   H     H_    0.395514 0.407188 0.998907 0.155705
H32   H     H_    0.350885 0.203034 0.909486 0.164582
H33   H     H_    0.632198 0.824965 0.079547 0.165650
H34   H     H_    0.527718 0.883352 0.663716 0.183309
N1    N     N_1   0.480320 0.480250 0.239400 -0.162126
N2    N     N_1   0.519680 0.519750 0.760600 -0.161227
O1    O     O_R   0.313000 0.493330 0.412070 -0.589079
O2    O     O_3   0.814619 0.210104 0.403584 -0.704687
O3    O     O_3   0.316913 0.861304 0.763349 -0.698318
O4    O     O_3   0.681749 0.140865 0.232024 -0.692113
O5    O     O_3   0.747860 0.073063 0.705158 -0.731855
O6    O     O_3   0.243180 0.910010 0.309033 -0.733137
O7    O     O_3   0.303287 0.163551 0.713845 -0.698145
O8    O     O_3   0.689605 0.850946 0.275564 -0.690816
O9    O     O_R   0.687000 0.506670 0.587930 -0.588810
O10   O     O_R   0.326280 0.506660 0.587930 -0.565926
O11   O     O_R   0.673720 0.493340 0.412070 -0.567643
O12   O     O_R   0.493370 0.312980 0.412070 -0.577778
O13   O     O_R   0.506630 0.687020 0.587930 -0.578253
O14   O     O_R   0.506650 0.326310 0.587930 -0.578294
O15   O     O_R   0.493350 0.673690 0.412070 -0.580983
O16   O     O_3   0.180962 0.790180 0.594311 -0.707122

loop_
_geom_bond_atom_site_label_1
_geom_bond_atom_site_label_2
_ccdc_geom_bond_type
C1    O1    A    
C32   O8    S    
C13   H29   S    
C27   C29   A    
Cu1   O1    S    
Cu2   O10   S    
C37   H12   S    
H10   O2    S    
C48   H7    S    
C15   C19   A    
C11   C19   A    
Cu2   O13   S    
C17   C23   S    
C13   C18   A    
C35   C37   A    
C25   C40   S    
Cu1   O15   S    
C11   C14   A    
Cu2   O9    S    
C7    O3    S    
C3    C48   A    
C33   C36   A    
C6    O2    S    
H13   O4    S    
C17   O15   A    
C38   C45   A    
C16   C34   S    
Cu1   O12   S    
C20   C24   S    
C40   H17   S    
C46   H5    S    
C31   C33   A    
C12   O9    A    
C3    C19   S    
C1    C15   S    
C24   N1    T    
H25   O5    S    
C4    C18   S    
C39   H2    S    
C9    C46   A    
C43   H19   S    
C20   H31   S    
C30   C44   S    
H11   O3    S    
C46   C48   A    
C42   H24   S    
C34   C39   A    
C32   C35   A    
Cu1   N1    S    
C4    C6    A    
C11   H23   S    
C5    C7    A    
C35   H33   S    
C16   O14   A    
C41   H15   S    
C31   O7    S    
C23   C44   A    
C29   C45   S    
C2    C4    A    
C42   H22   S    
C28   O6    S    
C34   C45   A    
C27   O5    S    
C17   O13   A    
C12   O11   A    
C41   H16   S    
C36   H1    S    
H26   O6    S    
C40   C41   S    
C12   C14   S    
C43   H20   S    
C13   C15   A    
C9    H3    S    
C42   C43   S    
C26   C42   S    
C33   H32   S    
C7    C9    A    
C5    O16   S    
C43   H21   S    
C38   H34   S    
H9    O16   S    
Cu2   O14   S    
C14   C18   A    
C3    C5    A    
C6    C8    A    
C2    H8    S    
C26   C37   A    
C39   C44   A    
C2    C47   A    
C25   C27   A    
C23   C38   A    
C26   C28   A    
C28   C30   A    
C29   C31   A    
C30   C32   A    
C16   O12   A    
H28   O8    S    
C1    O10   A    
C21   H30   S    
H27   O7    S    
C22   N2    T    
C10   H4    S    
Cu2   N2    S    
C25   C36   A    
Cu1   O11   S    
C8    O4    S    
C20   C21   D    
C8    C10   A    
Cu1   Cu2   S    
C40   H18   S    
C10   C47   A    
C41   H14   S    
C21   C22   S    
C47   H6    S    
