data_mof_unit_67354.cif
_audit_creation_date              2013-03-05T16:08:11-0500
_audit_creation_method            fapswitch 2.2
_symmetry_space_group_name_H-M    P1
_symmetry_Int_Tables_number       1
_space_group_crystal_system       triclinic
_cell_length_a                    20.302348
_cell_length_b                    23.523045
_cell_length_c                    9.341325
_cell_angle_alpha                 90.416598
_cell_angle_beta                  106.261779
_cell_angle_gamma                 90.117659
_cell_volume                      4282.53203688

loop_
_atom_site_label
_atom_site_type_symbol
_atom_site_description
_atom_site_fract_x
_atom_site_fract_y
_atom_site_fract_z
_atom_type_partial_charge
P1    P     P_3+3 0.853370 0.434890 0.996520 0.504169
P2    P     P_3+3 0.853370 0.565110 0.496520 0.577031
P3    P     P_3+3 0.353370 0.934890 0.996520 0.509583
P4    P     P_3+3 0.353370 0.065110 0.496520 0.575342
O1    O     O_2   0.860260 0.414960 0.826400 -0.322214
O2    O     O_2   0.860260 0.585040 0.326400 -0.409329
O3    O     O_2   0.360260 0.914960 0.826400 -0.324020
O4    O     O_2   0.360260 0.085040 0.326400 -0.409735
O5    O     O_3   0.918600 0.470180 0.098890 -0.397016
O6    O     O_3   0.918600 0.529820 0.598890 -0.340008
O7    O     O_3   0.418600 0.970180 0.098890 -0.397866
O8    O     O_3   0.418600 0.029820 0.598890 -0.338981
O9    O     O_3   0.975750 0.362410 0.628650 -0.422845
O10   O     O_3   0.975750 0.637590 0.128650 -0.393569
O11   O     O_3   0.475750 0.862410 0.628650 -0.416861
O12   O     O_3   0.475750 0.137590 0.128650 -0.396320
O13   O     O_2   0.859065 0.332449 0.643228 -0.344110
O14   O     O_2   0.863966 0.671506 0.165914 -0.258458
O15   O     O_2   0.359671 0.830411 0.645833 -0.376682
O16   O     O_2   0.363068 0.170704 0.164260 -0.257784
O17   O     O_3   0.772500 0.467278 0.976876 -0.685791
O18   O     O_3   0.787487 0.513237 0.464666 -0.509665
O19   O     O_3   0.272754 0.968149 0.975562 -0.674256
O20   O     O_3   0.286893 0.013794 0.461538 -0.514018
O21   O     O_3   0.944915 0.248758 0.621682 -0.407347
O22   O     O_3   0.950917 0.746627 0.129317 -0.484580
O23   O     O_3   0.447024 0.748457 0.621202 -0.398747
O24   O     O_3   0.449122 0.246221 0.126953 -0.485120
H1    H     H_    0.021412 0.285391 0.792946 0.088963
H2    H     H_    0.027245 0.718553 0.035717 0.042270
H3    H     H_    0.522211 0.785338 0.794685 0.090436
H4    H     H_    0.525112 0.218886 0.031152 0.039431
C1    C     C_3   0.060279 0.204465 0.752483 0.205112
C2    C     C_3   0.060282 0.795743 0.155881 0.129299
C3    C     C_3   0.562691 0.705000 0.752283 0.198548
C4    C     C_3   0.558224 0.295396 0.153998 0.125801
H5    H     H_    0.066195 0.199456 0.871222 0.121616
H6    H     H_    0.069121 0.786133 0.274921 0.137717
H7    H     H_    0.570704 0.700801 0.872112 0.121635
H8    H     H_    0.564562 0.286809 0.272333 0.106860
P5    P     P_3+3 0.146350 0.434230 0.693140 0.613915
P6    P     P_3+3 0.146350 0.565770 0.193140 0.675875
P7    P     P_3+3 0.646350 0.934230 0.693140 0.613853
P8    P     P_3+3 0.646350 0.065770 0.193140 0.672925
P9    P     P_3+3 0.089289 0.313083 0.139162 0.526613
P10   P     P_3+3 0.086595 0.688893 0.640189 0.591593
P11   P     P_3+3 0.589396 0.813161 0.139733 0.526837
P12   P     P_3+3 0.587101 0.188243 0.640551 0.570287
O25   O     O_2   0.139400 0.414340 0.863230 -0.337337
O26   O     O_2   0.139400 0.585660 0.363230 -0.254165
O27   O     O_2   0.639400 0.914340 0.863230 -0.339213
O28   O     O_2   0.639400 0.085660 0.363230 -0.259830
O29   O     O_3   0.023740 0.362300 0.060930 -0.298983
O30   O     O_3   0.023740 0.637700 0.560930 -0.333426
O31   O     O_3   0.523740 0.862300 0.060930 -0.298536
O32   O     O_3   0.523740 0.137700 0.560930 -0.330669
O33   O     O_2   0.138267 0.321892 0.043075 -0.329111
O34   O     O_2   0.140737 0.666385 0.570690 -0.214568
O35   O     O_2   0.638365 0.821941 0.043693 -0.330024
O36   O     O_2   0.641114 0.164301 0.572941 -0.246298
O37   O     O_3   0.228080 0.463294 0.789536 -0.609387
O38   O     O_3   0.222833 0.526445 0.200644 -0.560586
O39   O     O_3   0.728185 0.963485 0.788318 -0.609525
O40   O     O_3   0.722798 0.026275 0.200971 -0.554695
O41   O     O_3   0.062194 0.243652 0.081371 -0.666731
O42   O     O_3   0.065716 0.752323 0.536687 -0.598836
O43   O     O_3   0.562722 0.743630 0.082424 -0.665100
O44   O     O_3   0.567068 0.251572 0.536216 -0.615402
C5    C     C_3   0.010228 0.218057 0.134096 1.149565
C6    C     C_3   0.012643 0.785738 0.566881 1.163697
C7    C     C_3   0.511073 0.717895 0.135747 1.152745
C8    C     C_3   0.514422 0.285450 0.566800 1.178000
C9    C     C_3   0.023095 0.153650 0.137355 -0.814124
C10   C     C_3   0.981725 0.821258 0.431505 -0.731646
C11   C     C_3   0.524880 0.653639 0.141428 -0.811500
C12   C     C_3   0.484849 0.322478 0.433637 -0.755016
H9    H     H_    0.993782 0.130701 0.203334 0.280558
H10   H     H_    0.950637 0.794803 0.340932 0.295865
H11   H     H_    0.494796 0.630627 0.205662 0.278463
H12   H     H_    0.456185 0.296908 0.338711 0.292114
H13   H     H_    0.008814 0.134650 0.024424 0.291199
H14   H     H_    0.023490 0.842206 0.400898 0.251160
H15   H     H_    0.512121 0.634273 0.029166 0.294161
H16   H     H_    0.527293 0.345279 0.410035 0.258003
C13   C     C_3   0.227694 0.470471 0.252062 0.719345
C14   C     C_3   0.246209 0.517202 0.754571 0.705644
C15   C     C_3   0.727602 0.970286 0.252525 0.716788
C16   C     C_3   0.746077 0.017573 0.753571 0.707784
H17   H     H_    0.185986 0.443747 0.180287 0.026435
H18   H     H_    0.210367 0.530706 0.652132 0.162253
H19   H     H_    0.685930 0.943547 0.180695 0.027082
H20   H     H_    0.709723 0.031455 0.651932 0.162385
C17   C     C_3   0.299557 0.442912 0.264035 0.071035
C18   C     C_3   0.326551 0.519595 0.774857 0.083250
C19   C     C_3   0.799552 0.942551 0.265520 0.070318
C20   C     C_3   0.826444 0.020154 0.772621 0.088522
H21   H     H_    0.308066 0.441723 0.153555 0.081222
H22   H     H_    0.339900 0.491970 0.692060 0.158178
H23   H     H_    0.808408 0.940797 0.155501 0.081305
H24   H     H_    0.839659 0.992378 0.689910 0.158189
Ba1   Ba    Ba6+2 0.999900 0.457470 0.844900 1.760654
Ba2   Ba    Ba6+2 0.999900 0.542530 0.344900 1.774999
Ba3   Ba    Ba6+2 0.499900 0.957470 0.844900 1.754326
Ba4   Ba    Ba6+2 0.499900 0.042530 0.344900 1.764013
C21   C     C_3   0.767196 0.524343 0.938543 0.747600
C22   C     C_3   0.739914 0.513568 0.323070 0.929024
C23   C     C_3   0.267604 0.024975 0.934461 0.775796
C24   C     C_3   0.239659 0.015713 0.319480 0.938845
H25   H     H_    0.811085 0.549508 0.008487 0.020275
H26   H     H_    0.755075 0.542838 0.246841 -0.150701
H27   H     H_    0.311951 0.050291 0.001997 0.009045
H28   H     H_    0.254171 0.046627 0.246199 -0.142904
C25   C     C_3   0.698051 0.547482 0.947886 -0.284142
C26   C     C_3   0.738038 0.453464 0.260546 -0.257643
C27   C     C_3   0.198804 0.049326 0.943675 -0.302835
C28   C     C_3   0.238934 0.956880 0.251171 -0.297310
H29   H     H_    0.655161 0.537698 0.847303 0.236875
H30   H     H_    0.789129 0.445285 0.246320 0.071307
H31   H     H_    0.155480 0.038955 0.844438 0.240129
H32   H     H_    0.290748 0.949275 0.240162 0.090402
H33   H     H_    0.681955 0.527340 0.035808 0.159899
H34   H     H_    0.699256 0.448525 0.152298 0.192266
H35   H     H_    0.182586 0.031257 0.033776 0.159092
H36   H     H_    0.200291 0.952226 0.142553 0.203706
O45   O     O_3   0.081330 0.529680 0.090830 -0.369745
O46   O     O_3   0.081330 0.470320 0.590830 -0.341946
O47   O     O_3   0.581330 0.029680 0.090830 -0.368271
O48   O     O_3   0.581330 0.970320 0.590830 -0.341211
P13   P     P_3+3 0.907894 0.683516 0.059179 0.564645
P14   P     P_3+3 0.909044 0.315464 0.553321 0.609577
P15   P     P_3+3 0.407166 0.182741 0.057932 0.561277
P16   P     P_3+3 0.409582 0.814867 0.554283 0.600778
C29   C     C_3   0.016069 0.257464 0.693689 0.415758
C30   C     C_3   0.002213 0.758007 0.058692 0.268368
C31   C     C_3   0.517837 0.757889 0.694958 0.427953
C32   C     C_3   0.500071 0.258128 0.055656 0.278356
H37   H     H_    0.041258 0.279953 0.619300 0.084912
H38   H     H_    0.977401 0.779535 0.952747 0.225206
H39   H     H_    0.543033 0.781195 0.621864 0.078362
H40   H     H_    0.475077 0.280002 0.950250 0.223148
H41   H     H_    0.112853 0.212848 0.743644 0.072921
H42   H     H_    0.109197 0.783959 0.132619 0.079991
H43   H     H_    0.614672 0.712941 0.739304 0.073408
H44   H     H_    0.607608 0.282379 0.134895 0.056565
H45   H     H_    0.078453 0.145467 0.183834 0.250691
H46   H     H_    0.948894 0.855234 0.454852 0.265522
H47   H     H_    0.580181 0.646017 0.191180 0.249430
H48   H     H_    0.449985 0.354881 0.456462 0.269311
C33   C     C_R   0.129861 0.693438 0.852236 0.233741
C34   C     C_R   0.140447 0.313669 0.342096 0.243884
C35   C     C_R   0.630435 0.193080 0.851825 0.250417
C36   C     C_R   0.640459 0.813654 0.342693 0.244294
C37   C     C_R   0.184136 0.733613 0.914222 0.082964
C38   C     C_R   0.188216 0.269017 0.405397 0.058776
C39   C     C_R   0.685075 0.233089 0.912749 0.061256
C40   C     C_R   0.688054 0.768891 0.406309 0.064342
C41   C     C_R   0.786594 0.321324 0.039817 0.003568
C42   C     C_R   0.784505 0.678451 0.539038 0.076364
C43   C     C_R   0.286147 0.821519 0.041129 0.023442
C44   C     C_R   0.284608 0.178542 0.537866 0.073971
C45   C     C_R   0.750431 0.319763 0.888350 -0.141460
C46   C     C_R   0.751654 0.680819 0.385591 0.014269
C47   C     C_R   0.248100 0.821251 0.890973 -0.164911
C48   C     C_R   0.251760 0.180938 0.384331 0.015433
C49   C     C_R   0.200149 0.778148 0.830300 0.050299
C50   C     C_R   0.204223 0.223894 0.320795 -0.088190
C51   C     C_R   0.702976 0.276388 0.827003 0.105042
C52   C     C_R   0.704033 0.723709 0.321975 -0.085942
C53   C     C_R   0.838297 0.365031 0.101641 0.232011
C54   C     C_R   0.833552 0.633880 0.603603 0.313775
C55   C     C_R   0.338083 0.865064 0.102483 0.223355
C56   C     C_R   0.333348 0.133827 0.602739 0.311507
H49   H     H_    0.759428 0.351525 0.813814 0.167608
H50   H     H_    0.761678 0.648475 0.312651 0.162080
H51   H     H_    0.255138 0.854371 0.817681 0.158721
H52   H     H_    0.261647 0.148631 0.311091 0.161256
H53   H     H_    0.171061 0.782384 0.717416 0.194869
H54   H     H_    0.181157 0.221801 0.202411 0.201487
H55   H     H_    0.677369 0.279168 0.710993 0.225217
H56   H     H_    0.681025 0.721643 0.203647 0.201646
C57   C     C_R   0.871857 0.360527 0.256587 -0.325816
C58   C     C_R   0.863926 0.637922 0.761192 -0.324238
C59   C     C_R   0.371732 0.860385 0.257529 -0.316073
C60   C     C_R   0.363272 0.137529 0.760307 -0.335757
C61   C     C_R   0.158737 0.639308 0.093516 0.302929
C62   C     C_R   0.160150 0.361981 0.589530 0.261335
C63   C     C_R   0.658830 0.139456 0.093738 0.295820
C64   C     C_R   0.660010 0.861945 0.589878 0.262018
C65   C     C_R   0.215631 0.680172 0.146126 -0.173916
C66   C     C_R   0.212079 0.318454 0.643528 -0.187742
C67   C     C_R   0.715526 0.180578 0.146364 -0.213002
C68   C     C_R   0.711726 0.818314 0.644308 -0.191411
C69   C     C_R   0.222697 0.730265 0.064268 -0.005313
C70   C     C_R   0.221189 0.269454 0.559209 0.043570
C71   C     C_R   0.722633 0.230503 0.063760 0.003158
C72   C     C_R   0.720880 0.769285 0.560191 0.041669
C73   C     C_R   0.267929 0.674437 0.277763 0.276733
C74   C     C_R   0.263091 0.324987 0.772023 0.176327
C75   C     C_R   0.768179 0.174980 0.277664 0.265848
C76   C     C_R   0.762498 0.824786 0.773139 0.177224
C77   C     C_R   0.797746 0.222732 0.360154 0.380731
C78   C     C_R   0.790722 0.778415 0.856585 0.379538
C79   C     C_R   0.297754 0.721983 0.360142 0.407499
C80   C     C_R   0.291306 0.278621 0.855530 0.379230
C81   C     C_R   0.808364 0.272928 0.283784 -0.188168
C82   C     C_R   0.803530 0.726919 0.786199 -0.142754
C83   C     C_R   0.308684 0.772351 0.284434 -0.208506
C84   C     C_R   0.303817 0.227021 0.785043 -0.142563
C85   C     C_R   0.772814 0.275278 0.129144 0.079916
C86   C     C_R   0.769092 0.723863 0.628994 0.084026
C87   C     C_R   0.273064 0.774923 0.129846 0.089916
C88   C     C_R   0.269395 0.224036 0.627832 0.084383
C89   C     C_R   0.858406 0.316252 0.348578 0.336256
C90   C     C_R   0.852249 0.683044 0.854200 0.228985
C91   C     C_R   0.358544 0.815843 0.349532 0.330458
C92   C     C_R   0.351938 0.182761 0.853073 0.227808
C93   C     C_R   0.114161 0.651580 0.948888 -0.351344
C94   C     C_R   0.124791 0.356186 0.436604 -0.258575
C95   C     C_R   0.614293 0.151698 0.949100 -0.344122
C96   C     C_R   0.624757 0.856178 0.436978 -0.257760
H57   H     H_    0.908766 0.393078 0.308423 0.141934
H58   H     H_    0.901206 0.606190 0.813412 0.132556
H59   H     H_    0.408640 0.892929 0.309412 0.142290
H60   H     H_    0.400106 0.105501 0.812663 0.134879
H61   H     H_    0.071277 0.623259 0.903223 0.142755
H62   H     H_    0.085380 0.386661 0.387306 0.165501
H63   H     H_    0.571254 0.123497 0.903654 0.141207
H64   H     H_    0.585396 0.886672 0.387537 0.165536
I1    I     I_    0.396817 0.475129 0.397764 -0.212477
I2    I     I_    0.403197 0.499366 0.980965 -0.092919
I3    I     I_    0.896700 0.975410 0.397974 -0.207245
I4    I     I_    0.904130 0.000511 0.978063 -0.084385
I5    I     I_    0.305924 0.359866 0.355448 -0.098811
I6    I     I_    0.366615 0.597963 0.741874 0.108377
I7    I     I_    0.805769 0.859497 0.357408 -0.103633
I8    I     I_    0.865942 0.098677 0.738046 0.104566
S1    S     S_3+6 0.763214 0.525443 0.753525 -0.004162
O49   O     O_2   0.732864 0.579871 0.683239 -0.289015
O50   O     O_2   0.835784 0.518097 0.753011 -0.308458
O51   O     O_3   0.714401 0.470642 0.670528 -0.434704
H65   H     H_    0.741943 0.436362 0.703242 0.377373
S2    S     S_3+6 0.655528 0.535309 0.330965 0.026895
O52   O     O_2   0.660414 0.594382 0.392634 -0.324237
O53   O     O_2   0.605705 0.534913 0.178003 -0.297388
O54   O     O_3   0.622671 0.493542 0.438140 -0.381879
H66   H     H_    0.574092 0.505257 0.417325 0.378218
S3    S     S_3+6 0.262735 0.023802 0.749278 -0.005188
O55   O     O_2   0.231568 0.077157 0.673740 -0.287034
O56   O     O_2   0.335381 0.016659 0.749421 -0.313432
O57   O     O_3   0.214836 0.967439 0.673158 -0.447055
H67   H     H_    0.247152 0.935801 0.680445 0.383737
S4    S     S_3+6 0.154890 0.035630 0.327860 0.026452
O58   O     O_2   0.157986 0.095261 0.385175 -0.331584
O59   O     O_2   0.104553 0.032898 0.175560 -0.291637
O60   O     O_3   0.124634 0.994102 0.439799 -0.378350
H68   H     H_    0.075822 0.004895 0.420530 0.378788
I9    I     I_    0.703545 0.636459 0.985425 -0.323236
I10   I     I_    0.719672 0.388529 0.402283 -0.115591
I11   I     I_    0.204897 0.138441 0.977435 -0.328991
I12   I     I_    0.218973 0.890767 0.383432 -0.196130
S5    S     S_3+6 0.768487 0.221394 0.519247 0.025774
O61   O     O_2   0.750979 0.160722 0.538017 -0.219760
O62   O     O_2   0.817021 0.238556 0.664324 -0.170462
O63   O     O_3   0.697542 0.261029 0.481410 -0.528715
H69   H     H_    0.666820 0.243274 0.390783 0.327441
S6    S     S_3+6 0.803741 0.799192 0.040032 0.019373
O64   O     O_2   0.788727 0.753591 0.136279 -0.229319
O65   O     O_2   0.873204 0.825007 0.104270 -0.246146
O66   O     O_3   0.748556 0.852464 0.035067 -0.509873
H70   H     H_    0.764430 0.884707 0.986682 0.346791
S7    S     S_3+6 0.272115 0.719455 0.523729 0.022760
O67   O     O_2   0.251212 0.659345 0.538293 -0.196081
O68   O     O_2   0.324456 0.733091 0.666667 -0.192849
O69   O     O_3   0.204264 0.761895 0.498884 -0.546283
H71   H     H_    0.223945 0.796624 0.553946 0.361621
S8    S     S_3+6 0.304358 0.299580 0.038974 0.021490
O70   O     O_2   0.289921 0.254055 0.136144 -0.223989
O71   O     O_2   0.373576 0.326009 0.102850 -0.247437
O72   O     O_3   0.248559 0.352425 0.033353 -0.509495
H72   H     H_    0.264565 0.384855 0.985841 0.347841
I13   I     I_    0.345448 0.615844 0.302270 -0.035437
I14   I     I_    0.346082 0.376050 0.769035 -0.068619
I15   I     I_    0.845135 0.116237 0.299373 -0.025378
I16   I     I_    0.845165 0.876473 0.771569 -0.065739
S9    S     S_3+6 0.034487 0.136003 0.674185 0.073044
O73   O     O_2   0.028611 0.096339 0.795312 -0.275757
O74   O     O_2   0.967652 0.138228 0.557104 -0.152249
O75   O     O_3   0.094392 0.110372 0.600204 -0.452621
H73   H     H_    0.091146 0.068743 0.609341 0.397907
S10   S     S_3+6 0.047752 0.870707 0.116871 0.083767
O76   O     O_2   0.099060 0.891584 0.040747 -0.198774
O77   O     O_2   0.977529 0.880212 0.015993 -0.197801
O78   O     O_3   0.056822 0.910685 0.270003 -0.457045
H74   H     H_    0.012869 0.931176 0.254521 0.383797
S11   S     S_3+6 0.535417 0.636240 0.677035 0.073252
O79   O     O_2   0.528998 0.597670 0.799783 -0.272841
O80   O     O_2   0.468517 0.638609 0.560014 -0.152212
O81   O     O_3   0.594618 0.608758 0.603739 -0.455014
H75   H     H_    0.589638 0.567231 0.612016 0.397301
S12   S     S_3+6 0.548242 0.370274 0.113620 0.083960
O82   O     O_2   0.601096 0.389430 0.039785 -0.208854
O83   O     O_2   0.478874 0.380978 0.010464 -0.195146
O84   O     O_3   0.557274 0.410783 0.265606 -0.458510
H76   H     H_    0.512387 0.429552 0.252404 0.382238
S13   S     S_3+6 0.930375 0.230023 0.002300 0.027626
O85   O     O_2   0.934279 0.204879 0.858831 -0.261146
O86   O     O_2   0.872279 0.202619 0.046213 -0.252836
O87   O     O_3   0.918110 0.299435 0.979264 -0.526123
H77   H     H_    0.880020 0.302197 0.887885 0.394902
S14   S     S_3+6 0.944141 0.745059 0.599403 -0.048386
O88   O     O_2   0.886688 0.783142 0.604532 -0.288084
O89   O     O_2   0.918470 0.703443 0.473351 -0.285957
O90   O     O_3   0.971570 0.712421 0.763588 -0.669664
H78   H     H_    0.975321 0.671773 0.742464 0.322432
S15   S     S_3+6 0.431547 0.728880 0.002573 0.031295
O91   O     O_2   0.437767 0.703650 0.860907 -0.255462
O92   O     O_2   0.373424 0.700596 0.044604 -0.254029
O93   O     O_3   0.417677 0.798128 0.977767 -0.522536
H79   H     H_    0.377322 0.799997 0.890535 0.393844
S16   S     S_3+6 0.444720 0.245225 0.596011 -0.043470
O94   O     O_2   0.387261 0.283528 0.599572 -0.286390
O95   O     O_2   0.419328 0.203753 0.469512 -0.278022
O96   O     O_3   0.470686 0.212487 0.760339 -0.667700
H80   H     H_    0.474249 0.171796 0.739524 0.323632
S17   S     S_3+6 0.005431 0.239693 0.314994 -0.069372
O97   O     O_2   0.997014 0.302629 0.323641 -0.394272
O98   O     O_2   0.944094 0.212612 0.343176 -0.259466
O99   O     O_3   0.074795 0.218792 0.447760 -0.602373
H81   H     H_    0.089303 0.182863 0.411757 0.391857
S18   S     S_3+6 0.046209 0.836661 0.711715 -0.012433
O100  O     O_2   0.991663 0.877644 0.724650 -0.187121
O101  O     O_2   0.072152 0.805908 0.854756 -0.391570
O102  O     O_3   0.109797 0.874145 0.673745 -0.531082
H82   H     H_    0.125023 0.901347 0.758049 0.408897
S19   S     S_3+6 0.505483 0.739887 0.315561 -0.071161
O103  O     O_2   0.496720 0.802806 0.323298 -0.392782
O104  O     O_2   0.444139 0.712539 0.343107 -0.262193
O105  O     O_3   0.574785 0.719354 0.448925 -0.610178
H83   H     H_    0.587277 0.681851 0.417639 0.394320
S20   S     S_3+6 0.548619 0.335087 0.714181 -0.011927
O106  O     O_2   0.494696 0.376748 0.726937 -0.189122
O107  O     O_2   0.573125 0.303383 0.856020 -0.393045
O108  O     O_3   0.613525 0.371799 0.679511 -0.528337
H84   H     H_    0.627538 0.399759 0.762344 0.402342
S21   S     S_3+6 0.218370 0.478409 0.423543 -0.108764
O109  O     O_2   0.142872 0.478298 0.402647 -0.335817
O110  O     O_2   0.252070 0.434829 0.531192 -0.406055
O111  O     O_3   0.254318 0.542590 0.473720 -0.558257
H85   H     H_    0.302501 0.537805 0.478058 0.354601
S22   S     S_3+6 0.222637 0.566384 0.864157 -0.032119
O112  O     O_2   0.224232 0.623681 0.798386 -0.263063
O113  O     O_2   0.152494 0.549875 0.872260 -0.348189
O114  O     O_3   0.280322 0.565821 0.025447 -0.491726
H86   H     H_    0.287753 0.525119 0.045125 0.341806
S23   S     S_3+6 0.718087 0.978403 0.423693 -0.107981
O115  O     O_2   0.642559 0.978244 0.402340 -0.334430
O116  O     O_2   0.751817 0.934893 0.531513 -0.405225
O117  O     O_3   0.753916 0.042662 0.473525 -0.558653
H87   H     H_    0.801798 0.038312 0.474875 0.355040
S24   S     S_3+6 0.723499 0.066120 0.865853 -0.028219
O118  O     O_2   0.726669 0.124065 0.804621 -0.261135
O119  O     O_2   0.652970 0.050237 0.872627 -0.348373
O120  O     O_3   0.781171 0.062731 0.026724 -0.488719
H88   H     H_    0.786934 0.021671 0.042725 0.338823

loop_
_geom_bond_atom_site_label_1
_geom_bond_atom_site_label_2
_geom_bond_distance
_ccdc_geom_bond_type
C3    S11   1.782877 S    
C29   H37   1.107923 S    
C15   H19   1.111482 S    
S10   O78   1.672332 S    
H1    C29   1.112439 S    
P5    O37   1.783578 S    
C32   H40   1.104705 S    
Ba2   O45   3.262878 S    
P7    O39   1.784250 S    
O102  H82   0.990308 S    
P8    O40   1.794646 S    
C31   H39   1.108303 S    
P9    O33   1.529396 D    
C5    S13   1.764190 S    
C55   C59   1.423014 A    
C47   C49   1.405540 A    
C71   C85   1.469014 A    
C19   H23   1.092312 S    
O10   Ba2   2.972656 S    
P3    Ba3   3.674555 S    
S7    O67   1.493507 D    
C43   C87   1.447064 A    
O69   H71   0.984402 S    
P13   C90   1.931552 S    
C33   C37   1.439801 A    
C41   C53   1.462820 A    
O12   Ba4   2.972656 S    
O28   Ba4   2.965457 S    
O11   P16   1.731428 S    
C36   C40   1.444749 A    
C39   C51   1.408697 A    
P2    O18   1.769654 S    
S2    O53   1.501750 D    
O9    P14   1.731365 S    
C35   C39   1.440338 A    
P4    O8    1.632236 S    
O21   C29   1.426120 S    
C60   H60   1.081133 S    
C72   C86   1.474681 A    
C82   C90   1.452196 A    
O54   H66   0.990437 S    
P5    O25   1.702766 D    
C10   H46   1.100755 S    
C59   C91   1.431422 A    
O1    Ba1   2.962869 S    
S2    O54   1.672780 S    
C27   H35   1.075777 S    
S18   O100  1.499325 D    
C57   H57   1.082270 S    
O96   H80   0.982183 S    
S16   O96   1.671216 S    
S20   O106  1.499637 D    
C14   H18   1.077723 S    
S19   O104  1.486515 D    
C18   I6    2.072992 S    
C52   H56   1.073450 S    
C62   C66   1.458905 A    
C5    S17   1.789940 S    
O84   H76   0.990008 S    
Ba4   O48   2.972749 S    
O44   C8    1.424900 S    
O19   C23   1.389498 S    
C44   C56   1.459623 A    
C33   C93   1.434937 A    
S21   O111  1.680852 S    
O4    Ba4   2.967643 S    
S18   O101  1.485803 D    
C1    S9    1.779760 S    
C74   C80   1.375109 A    
C35   C95   1.434920 A    
O81   H75   0.987666 S    
P1    Ba1   3.674555 S    
S12   O82   1.499084 D    
S3    O57   1.674163 S    
C65   C73   1.389036 A    
C14   S22   1.695513 S    
C19   I3    2.152116 S    
C4    H44   1.109711 S    
S9    O74   1.486640 D    
C27   I11   2.115786 S    
O42   C6    1.424385 S    
P4    Ba4   3.673345 S    
O111  H85   0.974459 S    
C68   C76   1.354968 A    
S22   O112  1.489320 D    
C4    S12   1.803905 S    
C70   C88   1.474141 A    
S19   O103  1.494724 D    
P11   C36   1.888975 S    
C12   H48   1.100819 S    
C76   C78   1.374965 A    
P12   C35   1.925058 S    
C9    H9    1.111040 S    
O11   Ba3   2.948949 S    
C11   H11   1.111167 S    
C94   H62   1.080287 S    
C73   I13   2.059291 S    
S4    O58   1.492675 D    
C41   C85   1.445825 A    
C76   I16   2.073877 S    
C49   H53   1.060020 S    
S20   O108  1.680933 S    
C47   H51   1.076204 S    
S11   O80   1.487462 D    
C62   C94   1.413174 A    
C24   S4    1.807131 S    
C21   C25   1.531544 S    
S10   O76   1.499913 D    
S5    O61   1.493473 D    
P2    Ba2   3.673345 S    
S6    O65   1.494968 D    
S17   O98   1.486161 D    
O12   P15   1.733315 S    
C13   C17   1.573210 S    
C8    S16   1.785180 S    
O63   H69   0.989050 S    
H2    C30   1.107159 S    
C15   C19   1.574779 S    
Ba1   O45   2.949691 S    
Ba3   O47   2.949691 S    
P6    O38   1.793770 S    
O40   C15   1.399789 S    
S12   O84   1.670664 S    
P8    O28   1.696564 D    
O2    Ba2   2.967643 S    
P9    O29   1.766180 S    
O3    Ba3   2.962869 S    
S1    O49   1.496282 D    
P10   O34   1.518915 D    
C83   C87   1.424262 A    
O23   P16   1.778169 S    
O21   P14   1.777389 S    
S24   O118  1.490225 D    
C20   I8    2.075271 S    
C80   C84   1.433406 A    
P3    O7    1.622368 S    
C3    C31   1.550827 S    
C42   C54   1.460013 A    
C1    H41   1.110735 S    
P11   O35   1.528818 D    
C28   H32   1.100112 S    
C9    H45   1.103422 S    
S16   O95   1.501265 D    
C6    C10   1.504749 S    
O78   H74   0.989948 S    
O22   C30   1.406306 S    
C82   C86   1.440053 A    
O72   H72   0.984472 S    
C78   S6    1.725944 S    
C45   C51   1.405672 A    
C79   S7    1.748233 S    
P6    O26   1.696564 D    
S4    O60   1.672448 S    
C25   H29   1.109881 S    
P6    C61   2.018494 S    
S23   O116  1.470544 D    
C27   H31   1.109806 S    
P9    O41   1.754598 S    
C46   C52   1.413036 A    
C17   H21   1.093237 S    
C18   I2    2.166372 S    
O15   P16   1.540819 D    
S23   O115  1.489901 D    
C21   H25   1.112401 S    
S15   O93   1.660503 S    
C21   S1    1.707827 S    
P4    C56   1.991949 S    
C37   C49   1.403918 A    
O13   P14   1.539027 D    
C23   H27   1.112407 S    
C12   H12   1.090200 S    
O99   H81   0.983118 S    
Ba2   O46   2.972749 S    
S6    O66   1.674879 S    
C6    S18   1.785063 S    
S5    O63   1.671505 S    
C61   C65   1.473238 A    
C64   C68   1.458546 A    
O23   C31   1.425673 S    
C20   H24   1.097876 S    
O51   H65   0.982864 S    
P5    C62   2.008361 S    
C15   S23   1.673047 S    
C67   C71   1.438858 A    
P8    C63   2.020936 S    
C65   C69   1.437911 A    
P10   C33   1.930969 S    
C25   H33   1.077570 S    
S8    O70   1.489449 D    
C80   S8    1.727029 S    
C59   H59   1.082238 S    
S1    O51   1.671788 S    
C77   C81   1.430723 A    
C57   C89   1.428636 A    
O10   P13   1.732554 S    
S24   O120  1.628572 S    
C93   H61   1.081321 S    
S7    O69   1.666747 S    
C51   H55   1.065164 S    
C16   C20   1.591986 S    
P8    O47   1.629015 S    
Ba1   Ba2   5.094552 S    
O39   C16   1.387895 S    
C12   H16   1.088615 S    
O114  H86   0.980234 S    
C43   C55   1.462224 A    
P1    O1    1.696663 D    
C44   C48   1.403772 A    
C40   C72   1.404917 A    
S20   O107  1.485236 D    
P10   O42   1.770523 S    
P3    O3    1.696663 D    
O25   Ba1   2.970285 S    
P4    O20   1.768056 S    
C60   C92   1.426619 A    
C18   H22   1.097615 S    
O27   Ba3   2.970285 S    
C96   H64   1.080226 S    
S7    O68   1.487504 D    
P9    C34   1.889283 S    
C9    H13   1.103631 S    
C74   I14   2.073879 S    
O29   Ba1   2.973462 S    
O5    Ba2   2.951130 S    
S18   O102  1.681134 S    
O120  H88   0.980655 S    
C5    C9    1.536997 S    
O7    Ba4   2.951130 S    
C50   H54   1.074125 S    
S21   O110  1.470623 D    
C8    C12   1.505349 S    
S3    O56   1.484389 D    
C81   C89   1.442054 A    
S15   O91   1.483879 D    
O66   H70   0.984361 S    
C25   I9    2.117203 S    
C22   S2    1.809963 S    
C4    C32   1.543697 S    
S12   O83   1.490060 D    
S14   O89   1.501286 D    
C64   C96   1.412414 A    
C58   H58   1.081112 S    
P1    O5    1.622368 S    
O32   Ba4   2.949777 S    
O8    Ba3   2.974221 S    
H3    C31   1.112351 S    
S11   O79   1.501087 D    
H4    C32   1.107701 S    
C13   H17   1.111521 S    
S22   O114  1.629078 S    
C17   I5    2.127326 S    
O57   H67   0.983196 S    
C1    H5    1.089010 S    
C24   H28   1.097050 S    
C3    H7    1.090364 S    
S9    O73   1.501839 D    
C45   H49   1.074512 S    
C68   C72   1.432335 A    
S8    O72   1.674734 S    
C75   I15   2.055988 S    
P10   O30   1.754528 S    
C83   C91   1.443299 A    
S2    O52   1.492779 D    
P16   C91   1.903471 S    
P12   O44   1.770925 S    
S22   O113  1.497685 D    
C53   C57   1.421493 A    
O22   P13   1.748183 S    
P2    C54   1.995983 S    
O26   Ba2   2.965457 S    
O16   P15   1.539253 D    
C41   C45   1.399888 A    
C66   C74   1.355509 A    
S4    O59   1.502225 D    
S14   O88   1.483348 D    
C2    H42   1.109697 S    
C28   H36   1.099629 S    
P15   C92   1.928108 S    
O24   C32   1.406871 S    
P5    O46   1.639050 S    
O30   Ba2   2.949777 S    
O6    Ba1   2.974221 S    
C77   S5    1.748563 S    
P7    O48   1.639050 S    
S19   O105  1.671758 S    
C11   H47   1.103853 S    
C24   C28   1.518041 S    
S16   O94   1.483017 D    
C11   H15   1.102170 S    
O90   H78   0.982326 S    
Ba4   O47   3.262878 S    
P7    C64   2.006612 S    
P7    O27   1.702766 D    
O41   C5    1.418057 S    
P5    Ba1   3.674916 S    
C48   H52   1.075113 S    
O43   C7    1.417203 S    
S17   O97   1.494815 D    
P7    Ba3   3.674916 S    
C39   C71   1.405017 A    
O37   C14   1.386224 S    
S13   O85   1.483369 D    
C10   H10   1.092304 S    
Ba3   Ba4   5.094552 S    
C75   C77   1.393356 A    
C2    C30   1.544876 S    
C38   C50   1.410645 A    
O14   P13   1.539607 D    
C95   H63   1.081466 S    
C6    S14   1.782560 S    
O17   C21   1.388408 S    
O20   C24   1.403913 S    
C3    H43   1.111077 S    
S14   O90   1.671027 S    
C42   C86   1.442483 A    
O108  H84   0.990353 S    
P1    O17   1.774325 S    
P3    O19   1.776863 S    
P4    O4    1.702880 D    
S24   O119  1.497608 D    
P8    Ba4   3.676164 S    
C63   C95   1.431272 A    
C8    S20   1.782882 S    
C61   C93   1.431636 A    
C22   C26   1.522119 S    
C23   S3    1.704832 S    
C67   C75   1.390324 A    
S9    O75   1.669700 S    
O31   Ba3   2.973462 S    
P14   C89   1.901198 S    
C14   C18   1.589348 S    
P6    O45   1.629015 S    
C16   H20   1.079751 S    
C63   C67   1.474412 A    
C28   I12   2.101195 S    
C84   C88   1.439959 A    
C84   C92   1.452016 A    
P2    O2    1.702880 D    
C19   I7    2.129377 S    
P6    Ba2   3.676164 S    
P11   O43   1.753908 S    
P12   O36   1.517824 D    
S11   O81   1.670006 S    
C44   C88   1.442400 A    
O38   C13   1.399020 S    
S15   O92   1.499770 D    
C4    H8    1.096800 S    
S5    O62   1.487618 D    
C66   C70   1.432619 A    
S13   O86   1.498893 D    
O18   C22   1.402547 S    
C79   C83   1.432531 A    
C26   H34   1.099067 S    
S17   O99   1.672290 S    
O93   H79   0.981815 S    
C56   C60   1.428378 A    
C81   C85   1.424106 A    
S13   O87   1.658639 S    
C7    S19   1.787809 S    
Ba1   O46   3.265448 S    
C34   C94   1.423467 A    
C37   C69   1.403919 A    
Ba3   O48   3.265448 S    
C26   I10   2.128081 S    
C23   C27   1.535092 S    
C26   H30   1.099211 S    
S8    O71   1.496240 D    
S1    O50   1.485117 D    
C34   C38   1.444119 A    
C43   C47   1.399000 A    
O9    Ba1   2.948949 S    
O60   H68   0.990304 S    
P2    O6    1.632236 S    
O87   H77   0.980919 S    
P11   O31   1.767474 S    
C10   H14   1.086117 S    
C17   I1    2.152324 S    
P12   O32   1.751144 S    
C2    H6    1.100862 S    
C30   H38   1.103969 S    
S3    O55   1.496523 D    
C46   H50   1.074852 S    
O24   P15   1.744786 S    
O75   H73   0.987247 S    
C48   C50   1.413015 A    
C7    C11   1.536425 S    
P3    C55   1.991871 S    
C36   C96   1.422564 A    
P1    C53   1.986953 S    
C16   S24   1.693614 S    
C73   C79   1.390491 A    
S10   O77   1.490825 D    
C20   I4    2.169045 S    
O117  H87   0.974272 S    
C69   C87   1.469648 A    
S6    O64   1.489320 D    
C42   C46   1.403021 A    
C38   C70   1.404900 A    
C40   C52   1.409903 A    
C1    C29   1.549196 S    
S23   O117  1.681136 S    
C22   H26   1.097660 S    
O105  H83   0.983183 S    
C78   C82   1.432738 A    
C58   C90   1.428500 A    
C13   S21   1.674002 S    
S21   O109  1.489955 D    
C54   C58   1.430278 A    
C7    S15   1.761439 S    
C2    S10   1.807277 S    
