data_mof_unit_64467.cif
_audit_creation_date              2012-12-10T18:34:25-0500
_audit_creation_method            fapswitch 2.2
_symmetry_space_group_name_H-M    P1
_symmetry_Int_Tables_number       1
_space_group_crystal_system       triclinic
_cell_length_a                    36.156547
_cell_length_b                    36.17461
_cell_length_c                    25.553443
_cell_angle_alpha                 90.004722
_cell_angle_beta                  134.987583
_cell_angle_gamma                 90.000538
_cell_volume                      23638.4680357

loop_
_atom_site_label
_atom_site_type_symbol
_atom_type_description
_atom_site_fract_x
_atom_site_fract_y
_atom_site_fract_z
_atom_type_partial_charge
Br1   Br    Br    0.611758 0.784272 0.646481 -0.061334
Br2   Br    Br    0.553466 0.169682 0.529376 -0.106479
Br3   Br    Br    0.024547 0.330458 0.471415 -0.109085
Br4   Br    Br    0.052706 0.669543 0.527854 -0.107079
Br5   Br    Br    0.677855 0.541735 0.520823 -0.044773
Br6   Br    Br    0.657332 0.452217 0.481207 -0.100090
Br7   Br    Br    0.164040 0.041742 0.494328 -0.043691
Br8   Br    Br    0.146788 0.952224 0.454956 -0.099198
Br9   Br    Br    0.616312 0.228065 0.655564 -0.056937
Br10  Br    Br    0.103753 0.297839 0.630498 -0.062484
Br11  Br    Br    0.116100 0.727325 0.655145 -0.057224
Br12  Br    Br    0.390428 0.779273 0.931740 -0.023786
Br13  Br    Br    0.379987 0.227378 0.916200 -0.050956
Br14  Br    Br    0.887809 0.271095 0.931737 -0.023577
Br15  Br    Br    0.879773 0.728114 0.916188 -0.048828
Br16  Br    Br    0.540357 0.831689 0.503081 -0.109196
C1    C     C_R   0.849652 0.750061 0.699283 0.506301
C2    C     C_3   0.536338 0.249321 0.499310 0.025075
C3    C     C_3   0.304445 0.521539 0.565508 -0.280673
C4    C     C_3   0.731745 0.978919 0.426358 0.219139
C5    C     C_3   0.733643 0.022204 0.427198 0.202803
C6    C     C_3   0.229364 0.478917 0.424806 0.219084
C7    C     C_3   0.231209 0.522202 0.425513 0.202843
C8    C     C_1   0.749854 0.110682 0.499758 0.006709
C9    C     C_1   0.749834 0.889312 0.499800 0.004780
C10   C     C_1   0.249836 0.610682 0.499742 0.006489
C11   C     C_1   0.249822 0.389312 0.499791 0.004661
C12   C     C_3   0.749007 0.963362 0.498668 0.024121
C13   C     C_3   0.036186 0.250595 0.499017 0.025572
C14   C     C_3   0.748922 0.036594 0.497978 0.046823
C15   C     C_3   0.248967 0.463361 0.498667 0.024187
C16   C     C_3   0.248856 0.536593 0.497953 0.046884
C17   C     C_3   0.708980 0.021714 0.499365 0.171141
C18   C     C_3   0.709172 0.978232 0.500392 0.170929
C19   C     C_3   0.210725 0.521714 0.502831 0.171246
C20   C     C_3   0.210949 0.478231 0.503879 0.170930
C21   C     C_1   0.749561 0.077374 0.499216 -0.002882
C22   C     C_1   0.749533 0.922620 0.499433 -0.012982
C23   C     C_1   0.249523 0.577374 0.499192 -0.003026
C24   C     C_3   0.036334 0.749321 0.499302 0.025205
C25   C     C_1   0.249509 0.422620 0.499425 -0.013179
C26   C     C_3   0.796317 0.521988 0.582582 0.192075
C27   C     C_3   0.797841 0.478895 0.580205 0.204898
C28   C     C_3   0.290002 0.021982 0.583140 0.192106
C29   C     C_3   0.292115 0.978889 0.581646 0.204864
C30   C     C_3   0.697154 0.522053 0.471167 -0.062403
C31   C     C_3   0.695368 0.478928 0.464404 -0.133806
C32   C     C_3   0.194040 0.022057 0.459320 -0.062106
C33   C     C_3   0.193058 0.978933 0.453137 -0.133676
C34   C     C_1   0.750053 0.389130 0.500043 0.020068
C35   C     C_3   0.499418 0.784178 0.543056 -0.225803
C36   C     C_1   0.750060 0.610871 0.500305 0.017294
C37   C     C_1   0.250053 0.889130 0.500030 0.019965
C38   C     C_1   0.250045 0.110871 0.500279 0.017177
C39   C     C_R   0.750036 0.849697 0.500010 0.503123
C40   C     C_R   0.750040 0.150302 0.500006 0.501546
C41   C     C_R   0.250035 0.349696 0.500010 0.503488
C42   C     C_R   0.250039 0.650302 0.500006 0.501740
C43   C     C_3   0.750328 0.536895 0.501717 0.006452
C44   C     C_3   0.749833 0.463101 0.500138 0.004507
C45   C     C_3   0.250136 0.036894 0.501533 0.006388
C46   C     C_3   0.504640 0.219825 0.553507 -0.226867
C47   C     C_3   0.249804 0.963100 0.500050 0.004557
C48   C     C_3   0.756414 0.477611 0.448998 0.125907
C49   C     C_3   0.753669 0.521111 0.447078 0.135697
C50   C     C_3   0.265472 0.977611 0.459781 0.125919
C51   C     C_3   0.262637 0.021111 0.457325 0.135635
C52   C     C_1   0.749960 0.422403 0.500087 0.017963
C53   C     C_1   0.750112 0.577600 0.500778 0.006684
C54   C     C_1   0.249948 0.922403 0.500039 0.017843
C55   C     C_1   0.250042 0.077600 0.500695 0.006527
C56   C     C_R   0.849668 0.750027 0.499957 0.506833
C57   C     C_3   0.992404 0.287731 0.529027 -0.225759
C58   C     C_R   0.849671 0.249974 0.499962 0.503120
C59   C     C_R   0.349668 0.250027 0.499958 0.506997
C60   C     C_R   0.349670 0.749974 0.499960 0.504068
C61   C     C_R   0.650406 0.750050 0.500018 0.505444
C62   C     C_R   0.650407 0.249950 0.500017 0.505145
C63   C     C_R   0.150408 0.250048 0.500023 0.505773
C64   C     C_R   0.150407 0.749950 0.500017 0.505301
C65   C     C_3   0.543059 0.784736 0.543834 0.007781
C66   C     C_3   0.548350 0.219318 0.554427 0.008907
C67   C     C_3   0.035947 0.288350 0.529607 0.007334
C68   C     C_3   0.004353 0.719569 0.552932 -0.226879
C69   C     C_3   0.048059 0.719058 0.553845 0.008790
C70   C     C_3   0.481111 0.752062 0.417586 0.177925
C71   C     C_3   0.481959 0.241344 0.419263 0.177778
C72   C     C_3   0.981543 0.244055 0.418451 0.177739
C73   C     C_3   0.981881 0.741725 0.419106 0.177713
C74   C     C_3   0.438268 0.753872 0.418464 0.169896
C75   C     C_3   0.439403 0.239601 0.420716 0.170018
C76   C     C_3   0.938338 0.245903 0.418605 0.169812
C77   C     C_3   0.939308 0.739976 0.420524 0.170003
C78   C     C_3   0.447636 0.730306 0.092706 -0.116614
C79   C     C_3   0.463151 0.749922 0.499568 0.030331
C80   C     C_3   0.470580 0.257392 0.123308 -0.134182
C81   C     C_3   0.950315 0.219946 0.092658 -0.115813
C82   C     C_3   0.970649 0.758230 0.123300 -0.133725
C83   C     C_3   0.420607 0.674631 0.920288 -0.146371
C84   C     C_3   0.391595 0.313352 0.948579 -0.126908
C85   C     C_3   0.928881 0.170846 0.920276 -0.146715
C86   C     C_3   0.892196 0.814125 0.948578 -0.126390
C87   C     C_3   0.554311 0.706808 0.926547 -0.132212
C88   C     C_3   0.569737 0.257292 0.956644 -0.112647
C89   C     C_3   0.058403 0.216681 0.926478 -0.132529
C90   C     C_3   0.463097 0.250088 0.499455 0.030145
C91   C     C_3   0.069808 0.756431 0.956654 -0.112860
C92   C     C_3   0.806889 0.958100 0.454037 -0.078135
C93   C     C_3   0.744432 0.044717 0.353134 -0.119606
C94   C     C_3   0.302409 0.458105 0.447206 -0.078083
C95   C     C_3   0.238339 0.544711 0.347402 -0.119789
C96   C     C_3   0.639855 0.941885 0.461670 -0.111733
C97   C     C_3   0.632890 0.048380 0.456704 -0.098626
C98   C     C_3   0.143010 0.441875 0.469465 -0.110999
C99   C     C_3   0.136144 0.548380 0.464926 -0.098319
C100  C     C_3   0.447663 0.730393 0.304824 -0.112084
C101  C     C_3   0.963214 0.249904 0.499698 0.030279
C102  C     C_3   0.445880 0.253640 0.301052 -0.113927
C103  C     C_3   0.953336 0.211877 0.316219 -0.111114
C104  C     C_3   0.945924 0.754579 0.301135 -0.113452
C105  C     C_3   0.775170 0.456066 0.642252 -0.063498
C106  C     C_3   0.839371 0.543333 0.700707 -0.114878
C107  C     C_3   0.256267 0.956064 0.625828 -0.064131
C108  C     C_3   0.320597 0.043312 0.694698 -0.115121
C109  C     C_3   0.839306 0.543290 0.511185 -0.089291
C110  C     C_3   0.797443 0.456003 0.414264 -0.105448
C111  C     C_3   0.350609 0.043289 0.537657 -0.088737
C112  C     C_R   0.849660 0.249944 0.699287 0.503812
C113  C     C_3   0.963099 0.750087 0.499459 0.030210
C114  C     C_3   0.318012 0.955992 0.444055 -0.104753
C115  C     C_3   0.393459 0.695719 0.372651 -0.087581
C116  C     C_3   0.385397 0.293234 0.356592 -0.086536
C117  C     C_3   0.905299 0.184401 0.396298 -0.086625
C118  C     C_3   0.885816 0.793912 0.357425 -0.086084
C119  C     C_3   0.535532 0.679377 0.643627 -0.134304
C120  C     C_3   0.523002 0.331436 0.618578 -0.132986
C121  C     C_3   0.047935 0.194725 0.668494 -0.134197
C122  C     C_3   0.023774 0.830865 0.620127 -0.133037
C123  C     C_3   0.498773 0.714879 0.539967 0.163837
C124  C     C_3   0.492753 0.287950 0.527917 0.163880
C125  C     C_3   0.005267 0.219457 0.552976 0.163968
C126  C     C_3   0.993115 0.787813 0.528641 0.163959
C127  C     C_3   0.539425 0.714555 0.535260 -0.182141
C128  C     C_3   0.533424 0.287878 0.523242 -0.182299
C129  C     C_3   0.046018 0.218674 0.548468 -0.182278
C130  C     C_3   0.033786 0.787762 0.523965 -0.182345
C131  C     C_1   0.422454 0.750020 0.499672 -0.008086
C132  C     C_R   0.349652 0.250061 0.699283 0.505888
C133  C     C_1   0.422423 0.249987 0.499609 -0.007729
C134  C     C_1   0.922484 0.250006 0.499735 -0.007876
C135  C     C_1   0.922424 0.749986 0.499609 -0.007930
C136  C     C_1   0.577292 0.750355 0.499620 -0.013053
C137  C     C_1   0.577326 0.249657 0.499682 -0.013400
C138  C     C_1   0.077274 0.250331 0.499587 -0.012968
C139  C     C_1   0.077325 0.749656 0.499680 -0.013393
C140  C     C_1   0.610708 0.750168 0.499834 0.015564
C141  C     C_1   0.610719 0.249841 0.499852 0.014732
C142  C     C_1   0.110710 0.250161 0.499840 0.015698
C143  C     C_R   0.349659 0.749945 0.699288 0.504814
C144  C     C_1   0.110719 0.749840 0.499852 0.014730
C145  C     C_3   0.483281 0.734633 0.044506 0.198674
C146  C     C_3   0.482055 0.262904 0.044054 0.196643
C147  C     C_3   0.985191 0.230571 0.044496 0.198605
C148  C     C_3   0.982178 0.763274 0.044052 0.196432
C149  C     C_R   0.650420 0.750017 0.300708 0.506568
C150  C     C_R   0.650425 0.249980 0.300720 0.503410
C151  C     C_R   0.150420 0.250017 0.300707 0.506463
C152  C     C_R   0.150425 0.749980 0.300719 0.503581
C153  C     C_3   0.526758 0.789488 0.042796 -0.234574
C154  C     C_1   0.389214 0.750016 0.499816 0.013442
C155  C     C_3   0.529242 0.211467 0.042912 -0.228031
C156  C     C_3   0.022609 0.289812 0.042803 -0.234631
C157  C     C_3   0.028884 0.711394 0.042911 -0.228151
C158  C     C_3   0.487508 0.789042 0.957185 -0.242600
C159  C     C_3   0.486470 0.211426 0.957275 -0.268211
C160  C     C_3   0.983381 0.289748 0.957191 -0.242664
C161  C     C_3   0.986109 0.711353 0.957274 -0.268169
C162  C     C_1   0.389146 0.750015 0.778560 0.021096
C163  C     C_1   0.389066 0.250008 0.778550 0.031222
C164  C     C_1   0.889171 0.249990 0.778558 0.020847
C165  C     C_1   0.389203 0.249986 0.499792 0.014216
C166  C     C_1   0.889068 0.750010 0.778549 0.031622
C167  C     C_3   0.535422 0.749806 0.073198 0.012231
C168  C     C_3   0.535407 0.250529 0.073261 0.020013
C169  C     C_3   0.035512 0.249660 0.073193 0.012311
C170  C     C_3   0.035413 0.750539 0.073261 0.020011
C171  C     C_3   0.437932 0.738940 0.957484 0.320850
C172  C     C_3   0.437237 0.262526 0.956090 0.304324
C173  C     C_3   0.939395 0.234660 0.957477 0.321005
C174  C     C_3   0.937358 0.762908 0.956088 0.304482
C175  C     C_3   0.462563 0.749751 0.926751 0.051998
C176  C     C_1   0.889225 0.250009 0.499840 0.013660
C177  C     C_3   0.462062 0.250529 0.926949 0.070569
C178  C     C_3   0.962653 0.249648 0.926746 0.052077
C179  C     C_3   0.962069 0.750541 0.926949 0.070450
C180  C     C_3   0.509244 0.723837 0.957355 0.146428
C181  C     C_3   0.506730 0.278444 0.957201 0.168613
C182  C     C_3   0.011901 0.227205 0.957337 0.146570
C183  C     C_3   0.006999 0.778177 0.957201 0.168571
C184  C     C_3   0.551918 0.724516 0.043566 -0.239321
C185  C     C_3   0.550481 0.277943 0.044163 -0.256846
C186  C     C_3   0.054509 0.227830 0.043551 -0.239254
C187  C     C_1   0.889202 0.749986 0.499791 0.013995
C188  C     C_3   0.050742 0.777675 0.044163 -0.256737
C189  C     C_1   0.422219 0.749985 0.845211 0.008756
C190  C     C_1   0.421957 0.250134 0.845204 0.036382
C191  C     C_1   0.922271 0.249929 0.845207 0.008703
C192  C     C_1   0.921961 0.750139 0.845203 0.036548
C193  C     C_1   0.576963 0.750022 0.154771 -0.019126
C194  C     C_1   0.576914 0.250123 0.154814 -0.042252
C195  C     C_1   0.077020 0.249952 0.154767 -0.019267
C196  C     C_1   0.076917 0.750127 0.154813 -0.042307
C197  C     C_R   0.750056 0.650425 0.499987 0.506461
C198  C     C_3   0.536258 0.750666 0.499156 0.025376
C199  C     C_R   0.750060 0.349575 0.499988 0.502198
C200  C     C_R   0.250055 0.150425 0.499984 0.506056
C201  C     C_R   0.250060 0.849575 0.499990 0.502338
C202  C     C_1   0.610641 0.750079 0.221428 0.012573
C203  C     C_1   0.610665 0.249952 0.221464 -0.006910
C204  C     C_1   0.110669 0.250051 0.221425 0.012378
C205  C     C_1   0.110665 0.749953 0.221463 -0.006930
C206  C     C_3   0.803321 0.978811 0.569872 -0.301374
C207  C     C_3   0.803948 0.021539 0.567348 -0.280740
C208  C     C_3   0.303954 0.478812 0.568197 -0.301373
H1    H     H_    0.475713 0.809936 0.517667 0.090394
H2    H     H_    0.464166 0.310464 0.492363 0.084276
H3    H     H_    0.961330 0.738288 0.145598 0.145967
H4    H     H_    0.460887 0.667484 0.972716 0.065040
H5    H     H_    0.415623 0.674133 0.872178 0.125129
H6    H     H_    0.395247 0.652312 0.910444 0.151112
H7    H     H_    0.418074 0.334178 0.992807 0.106304
H8    H     H_    0.380814 0.292696 0.967993 0.128457
H9    H     H_    0.355233 0.327861 0.900468 0.152579
H10   H     H_    0.969841 0.165233 0.972701 0.065044
H11   H     H_    0.923838 0.172368 0.872163 0.124373
H12   H     H_    0.906006 0.146487 0.910439 0.150710
H13   H     H_    0.985720 0.192137 0.535576 0.084169
H14   H     H_    0.918867 0.834912 0.992802 0.106483
H15   H     H_    0.881227 0.793662 0.967998 0.128829
H16   H     H_    0.855969 0.828745 0.900464 0.152981
H17   H     H_    0.575033 0.718239 0.912747 0.152097
H18   H     H_    0.523979 0.687308 0.881696 0.111911
H19   H     H_    0.583563 0.691895 0.980155 0.105197
H20   H     H_    0.575504 0.232148 0.986426 0.103516
H21   H     H_    0.602730 0.276915 0.994856 0.122357
H22   H     H_    0.570170 0.248379 0.915551 0.146861
H23   H     H_    0.030163 0.196465 0.881606 0.111380
H24   H     H_    0.964743 0.810494 0.493518 0.084285
H25   H     H_    0.089220 0.202097 0.980066 0.104828
H26   H     H_    0.077755 0.230974 0.912676 0.151396
H27   H     H_    0.075339 0.731374 0.986438 0.103203
H28   H     H_    0.102984 0.775923 0.994864 0.122512
H29   H     H_    0.070159 0.747319 0.915565 0.146612
H30   H     H_    0.827647 0.983493 0.487193 0.161410
H31   H     H_    0.818458 0.952976 0.424418 0.131505
H32   H     H_    0.819892 0.933669 0.489802 0.110029
H33   H     H_    0.719190 0.069460 0.333260 0.117289
H34   H     H_    0.721020 0.021122 0.314493 0.149084
H35   H     H_    0.564571 0.801365 0.067096 0.126790
H36   H     H_    0.774465 0.051598 0.353416 0.139556
H37   H     H_    0.323674 0.483499 0.479969 0.161349
H38   H     H_    0.312205 0.452984 0.415354 0.131627
H39   H     H_    0.316379 0.433674 0.483356 0.110241
H40   H     H_    0.213345 0.569452 0.328853 0.116777
H41   H     H_    0.214300 0.521112 0.309160 0.149003
H42   H     H_    0.267063 0.551592 0.345108 0.139392
H43   H     H_    0.636718 0.957939 0.495509 0.103684
H44   H     H_    0.665574 0.917417 0.493030 0.117429
H45   H     H_    0.600226 0.931680 0.411909 0.149876
H46   H     H_    0.567027 0.202241 0.063520 0.108514
H47   H     H_    0.652853 0.073466 0.491989 0.109354
H48   H     H_    0.630982 0.026632 0.485496 0.116068
H49   H     H_    0.592221 0.056175 0.405745 0.147081
H50   H     H_    0.141456 0.457920 0.504997 0.103716
H51   H     H_    0.168950 0.417408 0.499926 0.118021
H52   H     H_    0.102985 0.431668 0.421013 0.151096
H53   H     H_    0.156749 0.573464 0.499983 0.109511
H54   H     H_    0.135554 0.526629 0.495087 0.116032
H55   H     H_    0.095072 0.556177 0.415323 0.147515
H56   H     H_    0.472581 0.748259 0.304595 0.112205
H57   H     H_    0.059020 0.304339 0.067102 0.126723
H58   H     H_    0.409849 0.744341 0.275593 0.149650
H59   H     H_    0.438940 0.704761 0.273934 0.136842
H60   H     H_    0.410512 0.237476 0.276615 0.151020
H61   H     H_    0.473770 0.236029 0.306733 0.107073
H62   H     H_    0.433247 0.276443 0.262304 0.134982
H63   H     H_    0.974764 0.229386 0.309019 0.113430
H64   H     H_    0.913094 0.222723 0.282157 0.149318
H65   H     H_    0.949871 0.183740 0.295863 0.138501
H66   H     H_    0.910404 0.738532 0.276392 0.151411
H67   H     H_    0.973649 0.736943 0.306484 0.107272
H68   H     H_    0.066582 0.701913 0.063519 0.107964
H69   H     H_    0.933509 0.777565 0.262822 0.135429
H70   H     H_    0.747519 0.479469 0.616498 0.190027
H71   H     H_    0.794645 0.454633 0.700454 0.130792
H72   H     H_    0.754711 0.429359 0.616119 0.128122
H73   H     H_    0.855419 0.568828 0.698506 0.109572
H74   H     H_    0.867857 0.520224 0.725695 0.147465
H75   H     H_    0.833458 0.548956 0.737048 0.141105
H76   H     H_    0.228671 0.979471 0.595705 0.190037
H77   H     H_    0.269342 0.954632 0.680235 0.130451
H78   H     H_    0.236962 0.929359 0.597670 0.128378
H79   H     H_    0.511690 0.807806 0.059276 0.171028
H80   H     H_    0.339356 0.068803 0.697997 0.108512
H81   H     H_    0.349262 0.020194 0.724436 0.147697
H82   H     H_    0.308051 0.048934 0.722927 0.140856
H83   H     H_    0.856161 0.517874 0.545253 0.145998
H84   H     H_    0.843903 0.567488 0.542045 0.108990
H85   H     H_    0.862723 0.549353 0.499108 0.139363
H86   H     H_    0.780862 0.479759 0.375565 0.153551
H87   H     H_    0.772293 0.431155 0.384292 0.106995
H88   H     H_    0.836326 0.449589 0.436208 0.140391
H89   H     H_    0.364519 0.017873 0.571237 0.145662
H90   H     H_    0.518795 0.191136 0.063422 0.173991
H91   H     H_    0.350976 0.067486 0.564685 0.109673
H92   H     H_    0.379366 0.049356 0.535096 0.139698
H93   H     H_    0.305157 0.979745 0.406720 0.153367
H94   H     H_    0.293943 0.931144 0.411234 0.107591
H95   H     H_    0.359091 0.949574 0.474596 0.140714
H96   H     H_    0.429574 0.682329 0.394239 0.152909
H97   H     H_    0.360534 0.682365 0.318729 0.135647
H98   H     H_    0.387150 0.690272 0.408581 0.108319
H99   H     H_    0.419160 0.308229 0.373488 0.152308
H100  H     H_    0.377991 0.301505 0.390314 0.108597
H101  H     H_    0.005736 0.305558 0.059291 0.170803
H102  H     H_    0.350631 0.302017 0.299055 0.138362
H103  H     H_    0.943825 0.173380 0.422707 0.152771
H104  H     H_    0.875503 0.166060 0.348597 0.136197
H105  H     H_    0.899692 0.182535 0.433646 0.107481
H106  H     H_    0.919722 0.808825 0.374608 0.152259
H107  H     H_    0.878486 0.802022 0.391300 0.108712
H108  H     H_    0.851136 0.802968 0.300057 0.138887
H109  H     H_    0.557100 0.662879 0.635462 0.102572
H110  H     H_    0.498591 0.665181 0.617785 0.113142
H111  H     H_    0.560404 0.681135 0.703979 0.149085
H112  H     H_    0.485286 0.192347 0.536857 0.091127
H113  H     H_    0.018250 0.691257 0.063424 0.173952
H114  H     H_    0.483920 0.343349 0.588413 0.112370
H115  H     H_    0.541970 0.347034 0.605179 0.101016
H116  H     H_    0.547732 0.334628 0.678687 0.152703
H117  H     H_    0.072789 0.177734 0.666922 0.101823
H118  H     H_    0.013993 0.178302 0.648671 0.111985
H119  H     H_    0.071888 0.202322 0.727008 0.148809
H120  H     H_    0.984805 0.842920 0.590190 0.112421
H121  H     H_    0.042890 0.846527 0.607026 0.100712
H122  H     H_    0.048533 0.833770 0.680294 0.152639
H123  H     H_    0.457731 0.811042 0.932634 0.113537
H124  H     H_    0.456201 0.190579 0.936964 0.121584
H125  H     H_    0.951373 0.309770 0.932650 0.112677
H126  H     H_    0.955646 0.690696 0.936966 0.121935
H127  H     H_    0.508276 0.797046 0.941442 0.188015
H128  H     H_    0.503058 0.201951 0.936043 0.136878
H129  H     H_    0.003136 0.300743 0.941445 0.188102
H130  H     H_    0.002606 0.701622 0.936041 0.136682
H131  H     H_    0.558925 0.695867 0.064840 0.062490
H132  H     H_    0.963934 0.310529 0.494082 0.090168
H133  H     H_    0.554383 0.306223 0.064852 0.083927
H134  H     H_    0.064570 0.198958 0.064814 0.062062
H135  H     H_    0.054905 0.806015 0.064848 0.084295
H136  H     H_    0.589699 0.734561 0.064999 0.165827
H137  H     H_    0.590090 0.270985 0.069404 0.125249
H138  H     H_    0.091074 0.240684 0.064986 0.165846
H139  H     H_    0.090287 0.770468 0.069408 0.125350
H140  H     H_    0.495056 0.695201 0.938554 0.092492
H141  H     H_    0.489289 0.306547 0.942206 0.183253
H142  H     H_    0.000772 0.198224 0.938526 0.092360
H143  H     H_    0.984737 0.692171 0.535758 0.090513
H144  H     H_    0.989821 0.806373 0.942201 0.183285
H145  H     H_    0.490658 0.704852 0.060181 0.094419
H146  H     H_    0.487975 0.292087 0.063070 0.098260
H147  H     H_    0.995724 0.200909 0.060169 0.094141
H148  H     H_    0.988370 0.792487 0.063073 0.098324
H149  H     H_    0.833307 0.030582 0.567263 0.171616
H150  H     H_    0.836181 0.967032 0.580091 0.117250
H151  H     H_    0.332510 0.530580 0.562891 0.171698
H152  H     H_    0.335813 0.467031 0.576030 0.117136
H153  H     H_    0.689358 0.972334 0.381154 0.171648
H154  H     H_    0.516867 0.784131 0.600363 0.191251
H155  H     H_    0.693202 0.032700 0.378806 0.125130
H156  H     H_    0.186897 0.472330 0.381341 0.171589
H157  H     H_    0.190464 0.532697 0.378566 0.125076
H158  H     H_    0.723707 0.969751 0.554525 0.061874
H159  H     H_    0.723271 0.031475 0.552749 0.061867
H160  H     H_    0.227164 0.469748 0.559033 0.061640
H161  H     H_    0.226683 0.531473 0.557233 0.061424
H162  H     H_    0.811582 0.970385 0.619218 0.110862
H163  H     H_    0.816681 0.033020 0.618448 0.101884
H164  H     H_    0.313963 0.470388 0.618902 0.110619
H165  H     H_    0.521714 0.224544 0.610042 0.189955
H166  H     H_    0.318813 0.533023 0.617659 0.101490
H167  H     H_    0.664999 0.533257 0.414219 0.085205
H168  H     H_    0.667296 0.473294 0.403971 0.086084
H169  H     H_    0.166230 0.033265 0.401922 0.084666
H170  H     H_    0.170480 0.973303 0.394145 0.085681
H171  H     H_    0.714362 0.527117 0.391012 0.107914
H172  H     H_    0.721972 0.467077 0.391853 0.076772
H173  H     H_    0.226488 0.027119 0.398382 0.107730
H174  H     H_    0.235071 0.967080 0.401489 0.076506
H175  H     H_    0.833378 0.532891 0.603248 0.052739
H176  H     H_    0.009300 0.293257 0.585250 0.191438
H177  H     H_    0.832233 0.473614 0.589174 0.165594
H178  H     H_    0.329198 0.032882 0.612043 0.052526
H179  H     H_    0.330108 0.973605 0.600011 0.165537
H180  H     H_    0.479386 0.778333 0.392854 0.083100
H181  H     H_    0.484649 0.213427 0.403340 0.082786
H182  H     H_    0.974951 0.267433 0.383990 0.083836
H183  H     H_    0.984307 0.713884 0.402655 0.082936
H184  H     H_    0.424327 0.783036 0.403083 0.108454
H185  H     H_    0.430328 0.209570 0.415035 0.109958
H186  H     H_    0.918861 0.273012 0.392160 0.108914
H187  H     H_    0.021469 0.724018 0.609554 0.189854
H188  H     H_    0.929946 0.709973 0.414271 0.109873
H189  H     H_    0.579597 0.710856 0.591233 0.148682
H190  H     H_    0.572621 0.296046 0.577305 0.148388
H191  H     H_    0.086382 0.220467 0.604812 0.148535
H192  H     H_    0.073059 0.795674 0.578181 0.148341
H193  H     H_    0.532304 0.690044 0.502829 0.123791
H194  H     H_    0.522590 0.309445 0.483333 0.123300
H195  H     H_    0.043952 0.191484 0.526169 0.123510
H196  H     H_    0.023157 0.809518 0.484468 0.123167
H197  H     H_    0.475799 0.709234 0.135351 0.111055
H198  H     H_    0.474079 0.689772 0.512250 0.084663
H199  H     H_    0.412402 0.716679 0.040714 0.154876
H200  H     H_    0.434846 0.747058 0.113941 0.139850
H201  H     H_    0.440916 0.279767 0.095473 0.095671
H202  H     H_    0.510147 0.268802 0.170802 0.126219
H203  H     H_    0.461450 0.237262 0.145612 0.145629
H204  H     H_    0.980660 0.199710 0.135296 0.111014
H205  H     H_    0.916577 0.205424 0.040652 0.154735
H206  H     H_    0.935875 0.234127 0.113880 0.140789
H207  H     H_    0.941196 0.780751 0.095468 0.096001
H208  H     H_    0.010322 0.769491 0.170798 0.126337
O1    O     O_3   0.750040 0.750040 0.500000 -0.438231
O2    O     O_R   0.750020 0.167970 0.542980 -0.540912
O3    O     O_R   0.250020 0.332030 0.542980 -0.541038
O4    O     O_R   0.250020 0.667970 0.542980 -0.541191
O5    O     O_R   0.853500 0.728560 0.663950 -0.538500
O6    O     O_R   0.853500 0.271440 0.663950 -0.531732
O7    O     O_R   0.353500 0.228560 0.663950 -0.538730
O8    O     O_R   0.353500 0.771440 0.663950 -0.531744
O9    O     O_R   0.689570 0.771520 0.336050 -0.534891
O10   O     O_R   0.689570 0.228480 0.336050 -0.534633
O11   O     O_R   0.189570 0.271520 0.336050 -0.535294
O12   O     O_3   0.750040 0.249960 0.500000 -0.437883
O13   O     O_R   0.189570 0.728480 0.336050 -0.535204
O14   O     O_R   0.810510 0.771550 0.663950 -0.529577
O15   O     O_R   0.810510 0.228450 0.663950 -0.533097
O16   O     O_R   0.310510 0.271550 0.663950 -0.529882
O17   O     O_R   0.310510 0.728450 0.663950 -0.533733
O18   O     O_R   0.646590 0.728530 0.336050 -0.537331
O19   O     O_R   0.646590 0.271470 0.336050 -0.543392
O20   O     O_R   0.146590 0.228530 0.336050 -0.536937
O21   O     O_R   0.146590 0.771470 0.336050 -0.543078
O22   O     O_R   0.793040 0.668060 0.542980 -0.540809
O23   O     O_3   0.250040 0.250040 0.500000 -0.438160
O24   O     O_R   0.793040 0.331940 0.542980 -0.526989
O25   O     O_R   0.293040 0.168060 0.542980 -0.540661
O26   O     O_R   0.293040 0.831940 0.542980 -0.527611
O27   O     O_R   0.750030 0.832020 0.457020 -0.530095
O28   O     O_R   0.750030 0.167980 0.457020 -0.534674
O29   O     O_R   0.250030 0.332020 0.457020 -0.530407
O30   O     O_R   0.250030 0.667980 0.457020 -0.534754
O31   O     O_R   0.853520 0.728540 0.542980 -0.535169
O32   O     O_R   0.853520 0.271460 0.542980 -0.532866
O33   O     O_R   0.353520 0.228540 0.542980 -0.534621
O34   O     O_3   0.250040 0.749960 0.500000 -0.437557
O35   O     O_R   0.353520 0.771460 0.542980 -0.533649
O36   O     O_R   0.689540 0.771550 0.542990 -0.534881
O37   O     O_R   0.689540 0.228450 0.542990 -0.531755
O38   O     O_R   0.189540 0.271550 0.542990 -0.535251
O39   O     O_R   0.189540 0.728450 0.542990 -0.531814
O40   O     O_R   0.810530 0.771520 0.457010 -0.538331
O41   O     O_R   0.810530 0.228480 0.457010 -0.537842
O42   O     O_R   0.310530 0.271520 0.457010 -0.538710
O43   O     O_R   0.310530 0.728480 0.457010 -0.538793
O44   O     O_R   0.646570 0.728550 0.457020 -0.534003
O45   O     O_R   0.707070 0.668050 0.457020 -0.535686
O46   O     O_R   0.646570 0.271450 0.457020 -0.536343
O47   O     O_R   0.146570 0.228550 0.457020 -0.533813
O48   O     O_R   0.146570 0.771450 0.457020 -0.536291
O49   O     O_3   0.471849 0.753927 0.080224 -0.564662
O50   O     O_3   0.468801 0.238882 0.072904 -0.572107
O51   O     O_3   0.971880 0.246655 0.080216 -0.564558
O52   O     O_3   0.968698 0.739507 0.072896 -0.572025
O53   O     O_3   0.402386 0.708410 0.922469 -0.574651
O54   O     O_3   0.415253 0.298442 0.926804 -0.608616
O55   O     O_3   0.907187 0.202389 0.922456 -0.574487
O56   O     O_R   0.707070 0.331950 0.457020 -0.541633
O57   O     O_3   0.915717 0.798892 0.926808 -0.608705
O58   O     O_3   0.530994 0.736285 0.930945 -0.565939
O59   O     O_3   0.521834 0.275340 0.918532 -0.567610
O60   O     O_3   0.032133 0.243290 0.930929 -0.565454
O61   O     O_3   0.022076 0.774748 0.918537 -0.567543
O62   O     O_3   0.751994 0.961375 0.400854 -0.564520
O63   O     O_3   0.769917 0.035598 0.425868 -0.574913
O64   O     O_3   0.247638 0.461375 0.396499 -0.564604
O65   O     O_3   0.265832 0.535599 0.421007 -0.574699
O66   O     O_3   0.658123 0.964344 0.438674 -0.538642
O67   O     O_R   0.207070 0.168050 0.457020 -0.535488
O68   O     O_3   0.658188 0.035366 0.436558 -0.540937
O69   O     O_3   0.159490 0.464345 0.443946 -0.538864
O70   O     O_3   0.159466 0.535368 0.441754 -0.540953
O71   O     O_3   0.474411 0.720763 0.377920 -0.566681
O72   O     O_3   0.470453 0.269043 0.370016 -0.566865
O73   O     O_3   0.981298 0.209513 0.391684 -0.566625
O74   O     O_3   0.970640 0.769655 0.370388 -0.566938
O75   O     O_3   0.814021 0.460161 0.642692 -0.573829
O76   O     O_3   0.790636 0.534155 0.629448 -0.547217
O77   O     O_3   0.300729 0.960153 0.638550 -0.574375
O78   O     O_R   0.207070 0.831950 0.457020 -0.541150
O79   O     O_3   0.276051 0.034150 0.620163 -0.547285
O80   O     O_3   0.786715 0.539340 0.443245 -0.558370
O81   O     O_3   0.803882 0.464471 0.474232 -0.575068
O82   O     O_3   0.301122 0.039338 0.464653 -0.558089
O83   O     O_3   0.315870 0.964469 0.495781 -0.574869
O84   O     O_3   0.391408 0.733955 0.360282 -0.560818
O85   O     O_3   0.389685 0.254505 0.356820 -0.560076
O86   O     O_3   0.895914 0.220707 0.369287 -0.560026
O87   O     O_3   0.889734 0.755184 0.356914 -0.559829
O88   O     O_3   0.525166 0.715565 0.615371 -0.562921
O89   O     O_R   0.750020 0.832030 0.542980 -0.541218
O90   O     O_3   0.518711 0.293426 0.602513 -0.562963
O91   O     O_3   0.030818 0.227469 0.626676 -0.562140
O92   O     O_3   0.019123 0.792933 0.603338 -0.562927
Zn1   Zn    Zn3+2 0.688630 0.719330 0.438590 0.950265
Zn2   Zn    Zn3+2 0.750040 0.219260 0.438590 0.944916
Zn3   Zn    Zn3+2 0.250040 0.280740 0.438590 0.951921
Zn4   Zn    Zn3+2 0.250040 0.719260 0.438590 0.944165
Zn5   Zn    Zn3+2 0.750030 0.780760 0.561410 0.953053
Zn6   Zn    Zn3+2 0.750030 0.219240 0.561410 0.950743
Zn7   Zn    Zn3+2 0.250030 0.280760 0.561410 0.952727
Zn8   Zn    Zn3+2 0.250030 0.719240 0.561410 0.950557
Zn9   Zn    Zn3+2 0.688630 0.280670 0.438590 0.940679
Zn10  Zn    Zn3+2 0.188630 0.219330 0.438590 0.950438
Zn11  Zn    Zn3+2 0.188630 0.780670 0.438590 0.941403
Zn12  Zn    Zn3+2 0.811460 0.719330 0.561410 0.948244
Zn13  Zn    Zn3+2 0.811460 0.280670 0.561410 0.958343
Zn14  Zn    Zn3+2 0.311460 0.219330 0.561410 0.948316
Zn15  Zn    Zn3+2 0.311460 0.780670 0.561410 0.958018
Zn16  Zn    Zn3+2 0.750040 0.780740 0.438590 0.952352

loop_
_geom_bond_atom_site_label_1
_geom_bond_atom_site_label_2
_ccdc_geom_bond_type
C109  O80   S    
C105  H70   S    
C71   C75   S    
C200  O25   A    
C146  H146  S    
C126  C130  S    
C97   H48   S    
C208  H164  S    
O1    Zn5   S    
C74   C79   S    
O17   Zn8   S    
C38   C200  S    
C195  C204  T    
C107  H77   S    
C138  C142  T    
C148  C170  S    
C80   H201  S    
C61   C140  S    
C143  O17   A    
C175  C180  S    
C59   O33   A    
C19   O70   S    
C180  H140  S    
O1    Zn12  S    
Br14  C173  S    
C145  H145  S    
O27   Zn16  S    
C136  C140  T    
C153  C158  S    
C28   O79   S    
C63   O47   A    
C112  C164  S    
C96   H44   S    
C83   H4    S    
C125  C129  S    
C158  C175  S    
O12   Zn9   S    
C45   C55   S    
C84   O54   S    
C118  H107  S    
C182  O60   S    
C115  H96   S    
C207  H149  S    
C122  H120  S    
C122  O92   S    
C3    C16   S    
O26   Zn15  S    
C117  H104  S    
C88   O59   S    
C177  C190  S    
C51   O82   S    
C124  C128  S    
C86   O57   S    
C11   C41   S    
C35   H154  S    
C76   H186  S    
C113  C126  S    
C4    C12   S    
C155  H90   S    
O48   Zn11  S    
C136  C198  S    
C122  H121  S    
C72   O73   S    
C49   H171  S    
C169  C186  S    
C57   H132  S    
C207  H163  S    
C1    O5    A    
C90   C133  S    
C18   O66   S    
O1    Zn16  S    
C39   O89   A    
C100  H56   S    
C188  H135  S    
C185  H133  S    
O18   Zn1   S    
C60   C154  S    
O44   Zn1   S    
C81   H204  S    
C43   C53   S    
C56   C187  S    
C46   H165  S    
C173  O55   S    
C132  C163  S    
C92   H31   S    
Br3   C67   S    
C183  C188  S    
C68   H187  S    
C109  H85   S    
C116  H100  S    
C161  C179  S    
C5    O63   S    
C30   H167  S    
C124  H2    S    
C63   O38   A    
C3    C208  S    
C9    C39   S    
C80   H203  S    
C96   H45   S    
C28   H178  S    
C46   C90   S    
C143  O8    A    
C8    C40   S    
Br5   C30   S    
C19   H161  S    
C79   C123  S    
O34   Zn11  S    
C44   C48   S    
C183  H144  S    
C103  H65   S    
C109  H84   S    
Br7   C32   S    
C34   C199  S    
O8    Zn15  S    
C96   O66   S    
C2    C66   S    
C127  H193  S    
C64   O39   A    
C6    O64   S    
C117  O86   S    
O9    Zn16  S    
C148  H148  S    
O22   Zn12  S    
C4    C5    S    
C119  H111  S    
C85   H10   S    
C41   O3    A    
C6    C7    S    
C100  H59   S    
C104  H67   S    
C106  H74   S    
C128  H190  S    
C150  C203  S    
C159  C177  S    
C149  O9    A    
C152  O13   A    
C35   C79   S    
O31   Zn12  S    
O7    Zn14  S    
C111  H91   S    
O30   Zn4   S    
C64   O48   A    
C82   H208  S    
C108  H82   S    
C152  C205  S    
C97   O68   S    
C63   C142  S    
C85   O55   S    
C206  H162  S    
O36   Zn5   S    
C102  H60   S    
C178  C191  S    
C206  H150  S    
C91   H29   S    
C86   H15   S    
C199  O24   A    
O34   Zn15  S    
O40   Zn16  S    
C60   O35   A    
C56   O40   A    
C92   O62   S    
C89   H26   S    
C117  H105  S    
C89   O60   S    
C106  H75   S    
O10   Zn2   S    
C102  H61   S    
C81   H206  S    
C72   H182  S    
C77   H188  S    
C179  C192  S    
C13   C72   S    
O14   Zn5   S    
C78   H199  S    
C182  C186  S    
O34   Zn8   S    
C169  C195  S    
C61   O44   A    
C50   H174  S    
C157  C161  S    
C24   C73   S    
C188  H139  S    
C120  H115  S    
C159  H124  S    
C35   C65   S    
C110  H88   S    
C112  O15   A    
C116  H102  S    
C50   C51   S    
C148  C174  S    
C1    C166  S    
O67   Zn10  S    
C83   H5    S    
C179  C183  S    
C37   C201  S    
C107  O77   S    
Br6   C31   S    
C73   H183  S    
C79   C131  S    
C95   H41   S    
C73   O74   S    
C97   H49   S    
C17   O68   S    
C121  H117  S    
Br12  C171  S    
C194  C203  T    
C29   O77   S    
C77   O87   S    
O56   Zn9   S    
C70   C198  S    
C118  O87   S    
C9    C22   T    
C151  O20   A    
C45   C51   S    
C114  H93   S    
C156  C169  S    
C119  H109  S    
O38   Zn7   S    
C184  H131  S    
C85   H12   S    
C8    C21   T    
C71   O72   S    
C58   O32   A    
C114  H95   S    
C91   O61   S    
C94   H39   S    
C174  C179  S    
C156  H57   S    
C32   H169  S    
C99   H54   S    
O89   Zn5   S    
O39   Zn8   S    
C111  H89   S    
C157  H68   S    
C104  O74   S    
C172  C177  S    
C88   H22   S    
C105  H71   S    
C102  O72   S    
C143  C162  S    
C49   O80   S    
C41   O29   A    
C103  H63   S    
C82   H3    S    
C145  C167  S    
O24   Zn13  S    
C15   C25   S    
O12   Zn2   S    
C15   C20   S    
C84   H7    S    
C97   H47   S    
C26   C43   S    
C14   C207  S    
C168  C185  S    
C28   C45   S    
C185  H137  S    
O42   Zn3   S    
C75   O85   S    
C24   C130  S    
C7    H157  S    
C106  H73   S    
C200  O67   A    
C153  H79   S    
C156  H101  S    
C80   H202  S    
C33   H170  S    
C43   C49   S    
C178  C182  S    
C18   H158  S    
Br11  C69   S    
C147  O51   S    
C78   H197  S    
Br16  C65   S    
C57   C67   S    
C127  H189  S    
C56   O31   A    
C145  O49   S    
C93   O63   S    
C73   C77   S    
C95   H40   S    
C110  H86   S    
C115  H98   S    
C12   C18   S    
C15   C208  S    
C155  H46   S    
C156  C160  S    
O28   Zn2   S    
C13   C138  S    
O23   Zn7   S    
C118  H108  S    
C27   H177  S    
C170  C196  S    
C123  H198  S    
O13   Zn4   S    
C100  H58   S    
C19   C20   S    
C104  H66   S    
C151  O11   A    
O6    Zn13  S    
C201  O26   A    
C111  O82   S    
C98   H52   S    
O32   Zn13  S    
C117  H103  S    
C121  H119  S    
C4    H153  S    
C180  O58   S    
O20   Zn10  S    
O23   Zn3   S    
C113  C135  S    
C87   O58   S    
C13   C129  S    
C120  H114  S    
C10   C23   T    
C64   C144  S    
O23   Zn10  S    
Br1   C65   S    
C51   H173  S    
Br10  C67   S    
C87   H18   S    
C48   O81   S    
C122  H122  S    
C175  C189  S    
C16   C23   S    
C93   H34   S    
C89   H23   S    
C94   H37   S    
C36   C53   T    
C110  O81   S    
C128  H194  S    
C150  O10   A    
O34   Zn4   S    
C38   C55   T    
C150  O19   A    
C48   C49   S    
C98   H51   S    
C24   C139  S    
C6    H156  S    
C40   O28   A    
C164  C191  T    
C184  H136  S    
C14   C17   S    
C131  C154  T    
Br9   C66   S    
C92   H30   S    
C46   C66   S    
C47   C50   S    
O11   Zn3   S    
C92   H32   S    
C133  C165  T    
C160  H129  S    
C121  O91   S    
C84   H9    S    
C77   C113  S    
C37   C54   T    
C58   O41   A    
C201  O78   A    
C115  O84   S    
C27   O75   S    
C155  C168  S    
C107  H78   S    
C68   C69   S    
C148  O52   S    
C71   H181  S    
C26   H175  S    
C174  O57   S    
C42   O4    A    
O23   Zn14  S    
C181  H141  S    
C158  H127  S    
C14   C21   S    
C24   C69   S    
O25   Zn14  S    
C101  C125  S    
C159  H128  S    
C146  C168  S    
C70   O71   S    
C31   H168  S    
O78   Zn11  S    
C90   C124  S    
O3    Zn7   S    
C186  H134  S    
C74   O84   S    
C114  O83   S    
C173  C178  S    
C147  C173  S    
C3    H166  S    
C10   C42   S    
C96   H43   S    
C91   H28   S    
C32   C33   S    
C118  H106  S    
C70   C74   S    
C94   O64   S    
C105  O75   S    
O35   Zn15  S    
C160  H125  S    
C60   O43   A    
C197  O22   A    
C17   H159  S    
C28   C29   S    
C98   H50   S    
C99   H55   S    
C30   C31   S    
C83   O53   S    
C78   O49   S    
C81   O51   S    
C12   C206  S    
C167  C184  S    
C168  C194  S    
C182  H142  S    
C5    C14   S    
C86   H16   S    
C91   H27   S    
C7    C16   S    
C93   H36   S    
C2    C128  S    
C89   H25   S    
C95   O65   S    
C123  O88   S    
C146  C172  S    
C20   O69   S    
C20   H160  S    
C137  C141  T    
C102  H62   S    
C81   H205  S    
C152  O21   A    
O33   Zn14  S    
C3    H151  S    
C199  O56   A    
O21   Zn11  S    
O37   Zn6   S    
C44   C52   S    
C74   H184  S    
C78   H200  S    
C160  C178  S    
C120  H116  S    
C34   C52   T    
Br8   C33   S    
C208  H152  S    
C80   O50   S    
C5    H155  S    
C116  H99   S    
O29   Zn3   S    
C109  H83   S    
C186  H138  S    
C33   C47   S    
C30   C43   S    
O19   Zn9   S    
C107  H76   S    
C100  O71   S    
C180  C184  S    
C39   O27   A    
O47   Zn10  S    
C62   O46   A    
C193  C202  T    
C104  H69   S    
C13   C67   S    
C119  H110  S    
O16   Zn7   S    
C7    O65   S    
C124  O90   S    
O41   Zn2   S    
C162  C189  T    
C68   C113  S    
O43   Zn4   S    
C48   H172  S    
C153  C167  S    
C146  O50   S    
C31   C44   S    
C29   H179  S    
C114  H94   S    
C70   H180  S    
C85   H11   S    
C87   H19   S    
C181  C185  S    
C101  C134  S    
C1    O14   A    
O15   Zn6   S    
C171  C175  S    
O2    Zn6   S    
C111  H92   S    
C163  C190  T    
Br13  C172  S    
C82   H207  S    
C75   C90   S    
C108  H81   S    
C123  C127  S    
C132  O7    A    
C4    O62   S    
C196  C205  T    
O4    Zn8   S    
C157  C170  S    
C86   H14   S    
C57   C101  S    
C6    C15   S    
C106  O76   S    
C171  O53   S    
C16   C19   S    
C72   C76   S    
C84   H8    S    
Br4   C69   S    
C161  H130  S    
C88   H20   S    
C155  C159  S    
C29   C47   S    
C76   O86   S    
C59   O42   A    
C116  O85   S    
O46   Zn9   S    
C57   H176  S    
C132  O16   A    
C120  O90   S    
C76   C101  S    
C147  H147  S    
C108  H80   S    
C161  H126  S    
C11   C25   T    
C62   C141  S    
C65   C198  S    
C47   C54   S    
C12   C22   S    
C149  O18   A    
C17   C18   S    
C181  O59   S    
C170  C188  S    
C40   O2    A    
C166  C192  T    
C110  H87   S    
C115  H97   S    
C2    C137  S    
C27   C44   S    
C127  C198  S    
C58   C176  S    
C125  O91   S    
C46   H112  S    
Br15  C174  S    
C126  O92   S    
C50   O83   S    
C126  H24   S    
C103  O73   S    
C129  H191  S    
C98   O69   S    
C130  H192  S    
C42   O30   A    
C59   C165  S    
C149  C202  S    
C151  C204  S    
C83   H6    S    
O45   Zn1   S    
O12   Zn13  S    
C125  H13   S    
C158  H123  S    
C61   O36   A    
C139  C144  T    
C197  O45   A    
C95   H42   S    
C135  C187  T    
O1    Zn1   S    
O5    Zn12  S    
C82   O52   S    
C75   H185  S    
C121  H118  S    
C167  C193  S    
C2    C71   S    
C35   H1    S    
C147  C169  S    
C99   O70   S    
C26   O76   S    
C119  O88   S    
C99   H53   S    
C32   C45   S    
O12   Zn6   S    
C108  O79   S    
C177  C181  S    
C145  C171  S    
C183  O61   S    
C62   O37   A    
C36   C197  S    
C87   H17   S    
C93   H33   S    
C206  C207  S    
C94   H38   S    
C68   H143  S    
Br2   C66   S    
C134  C176  T    
C112  O6    A    
C88   H21   S    
C26   C27   S    
C153  H35   S    
C105  H72   S    
C129  H195  S    
C130  H196  S    
C172  O54   S    
C157  H113  S    
C103  H64   S    
