data_mof_unit_56322.cif
_audit_creation_date              2012-12-10T17:42:38-0500
_audit_creation_method            fapswitch 2.2
_symmetry_space_group_name_H-M    P1
_symmetry_Int_Tables_number       1
_space_group_crystal_system       triclinic
_cell_length_a                    9.912907
_cell_length_b                    10.733778
_cell_length_c                    13.379755
_cell_angle_alpha                 93.197723
_cell_angle_beta                  71.574861
_cell_angle_gamma                 89.823892
_cell_volume                      1348.24041185

loop_
_atom_site_label
_atom_site_type_symbol
_atom_type_description
_atom_site_fract_x
_atom_site_fract_y
_atom_site_fract_z
_atom_type_partial_charge
C1    C     C_R   0.504666 0.737834 0.487638 0.972387
C2    C     C_R   0.447226 0.468520 0.975292 0.075205
C3    C     C_R   0.490699 0.450962 0.864596 0.016468
C4    C     C_R   0.553167 0.483397 0.025018 0.022378
C5    C     C_R   0.693839 0.509315 0.964358 0.041303
C6    C     C_R   0.737114 0.479880 0.856462 -0.218133
C7    C     C_R   0.638443 0.432671 0.811130 0.270841
C8    C     C_R   0.528476 0.459265 0.130229 0.173565
C9    C     C_R   0.754968 0.552084 0.123603 0.219480
C10   C     C_R   0.385786 0.454726 0.812477 -0.097832
C11   C     C_R   0.319060 0.861982 0.381845 -0.211233
C12   C     C_R   0.424469 0.484777 0.700957 0.941163
C13   C     C_R   0.217568 0.925696 0.349970 -0.000716
C14   C     C_R   0.222148 0.055164 0.349405 -0.096894
C15   C     C_R   0.323782 0.119021 0.382222 -0.115185
C16   C     C_R   0.418064 0.058461 0.423887 0.087293
C17   C     C_R   0.416046 0.927265 0.423397 0.103411
C18   C     C_R   0.515817 0.866430 0.460684 -0.147388
C19   C     C_R   0.633837 0.929453 0.469900 -0.168043
C20   C     C_R   0.639340 0.056476 0.467520 0.319469
C21   C     C_R   0.520716 0.124139 0.459755 -0.199333
C22   C     C_R   0.806726 0.686647 0.616779 -0.268933
C23   C     C_R   0.506113 0.259096 0.487468 0.918292
C24   C     C_R   0.854321 0.800255 0.647293 -0.147732
C25   C     C_R   0.000989 0.813248 0.627518 0.200025
C26   C     C_R   0.087788 0.704620 0.606762 -0.099257
C27   C     C_R   0.047025 0.596335 0.556248 0.059264
C28   C     C_R   0.902077 0.592970 0.557546 0.186110
C29   C     C_R   0.954633 0.416660 0.439073 0.040049
C30   C     C_R   0.096560 0.415675 0.440290 -0.020409
C31   C     C_R   0.577968 0.500511 0.297094 0.907311
C32   C     C_R   0.792722 0.546971 0.014015 -0.186493
C33   C     C_R   0.623370 0.503129 0.182386 -0.163264
C34   C     C_R   0.242545 0.441999 0.870978 -0.192290
C35   C     C_R   0.200074 0.452706 0.980503 -0.103817
C36   C     C_R   0.300313 0.474955 0.032089 -0.062914
H1    H     H_    0.324526 0.761989 0.368227 0.193689
H2    H     H_    0.150524 0.107453 0.319983 0.204656
H3    H     H_    0.333645 0.215139 0.367961 0.189986
H4    H     H_    0.923618 0.350701 0.386867 0.170532
H5    H     H_    0.694751 0.673967 0.639576 0.242658
H6    H     H_    0.849307 0.475087 0.811562 0.209336
H7    H     H_    0.170043 0.348997 0.388987 0.146405
H8    H     H_    0.898874 0.571878 0.967996 0.189359
H9    H     H_    0.162551 0.429841 0.832139 0.202849
H10   H     H_    0.261966 0.496919 0.116350 0.197376
H11   H     H_    0.088486 0.449207 0.025217 0.186931
H12   H     H_    0.721788 0.880315 0.483034 0.205772
N1    N     N_R   0.856860 0.501200 0.500990 -0.099350
N2    N     N_R   0.142450 0.501280 0.501020 -0.121378
O1    O     O_R   0.385310 0.683220 0.500000 -0.633172
O2    O     O_R   0.614640 0.683250 0.500010 -0.633693
O3    O     O_R   0.328400 0.499950 0.653610 -0.606939
O4    O     O_R   0.557730 0.499970 0.653620 -0.623427
O5    O     O_R   0.385360 0.316750 0.499990 -0.628519
O6    O     O_R   0.614690 0.316780 0.500000 -0.555397
O7    O     O_R   0.442270 0.500030 0.346380 -0.613622
O8    O     O_R   0.671600 0.500050 0.346390 -0.583320
Zn1   Zn    Zn3+2 0.346880 0.499980 0.499990 0.993839
Zn2   Zn    Zn3+2 0.653120 0.500020 0.500010 1.027224
Br1   Br    Br    0.890808 0.620516 0.185460 -0.516020
C37   C     C_2   0.108738 0.857761 0.315114 0.947871
O9    O     O_2   0.100379 0.744399 0.319419 -0.615196
O10   O     O_R   0.013570 0.924047 0.278801 -0.768175
H13   H     H_    0.940022 0.869125 0.261726 0.382132
Br2   Br    Br    0.817186 0.122164 0.472603 -0.449865
C38   C     C_2   0.747870 0.898553 0.706213 1.019240
O11   O     O_2   0.627916 0.898092 0.698940 -0.613863
O12   O     O_R   0.780897 0.987699 0.774582 -0.707302
H14   H     H_    0.697811 0.046390 0.812179 0.376948
Br3   Br    Br    0.081917 0.972585 0.647596 -0.345526
C39   C     C_2   0.149236 0.693013 0.692430 1.036804
O13   O     O_2   0.251011 0.755157 0.696081 -0.567356
O14   O     O_R   0.074362 0.627610 0.779159 -0.862642
H15   H     H_    0.108827 0.646987 0.841881 0.339937
Br4   Br    Br    0.407297 0.321612 0.183539 -0.571223
Br5   Br    Br    0.708687 0.300754 0.704847 -0.401710

loop_
_geom_bond_atom_site_label_1
_geom_bond_atom_site_label_2
_ccdc_geom_bond_type
C16   C21   A    
O5    Zn1   S    
C26   C39   S    
C19   C20   A    
C4    C8    A    
C35   H11   S    
O3    Zn1   S    
C23   O6    A    
C29   N1    A    
C1    C18   S    
C37   O9    D    
N1    Zn2   S    
C9    Br1   S    
N2    Zn1   S    
C31   O8    A    
C20   Br2   S    
C34   C35   A    
C3    C7    A    
C5    C6    A    
O7    Zn1   S    
C22   H5    S    
O8    Zn2   S    
C15   C16   A    
C8    Br4   S    
C18   C19   A    
C11   H1    S    
C37   O10   S    
O2    Zn2   S    
C9    C32   A    
C13   C37   S    
C35   C36   A    
C16   C17   A    
C31   C33   S    
C36   H10   S    
C25   Br3   S    
C12   O3    A    
C24   C38   S    
C27   N2    A    
C7    Br5   S    
C5    C32   A    
C30   N2    A    
C22   C28   A    
C13   C14   A    
C9    C33   A    
C32   H8    S    
O14   H15   S    
C38   O11   D    
C24   C25   A    
C39   O14   S    
C19   H12   S    
C39   O13   D    
O4    Zn2   S    
C25   C26   A    
O6    Zn2   S    
C38   O12   S    
C2    C4    A    
C29   C30   A    
C14   H2    S    
C28   N1    A    
C17   C18   A    
C26   C27   A    
C10   C34   A    
C34   H9    S    
C1    O1    A    
C15   H3    S    
C10   C12   S    
C21   C23   S    
C22   C24   A    
C30   H7    S    
O1    Zn1   S    
C2    C36   A    
C11   C17   A    
C4    C5    A    
C23   O5    A    
C6    C7    A    
O10   H13   S    
C31   O7    A    
C2    C3    A    
C3    C10   A    
C11   C13   A    
C29   H4    S    
C8    C33   A    
O12   H14   S    
C1    O2    A    
C20   C21   A    
C6    H6    S    
C27   C28   A    
C14   C15   A    
C12   O4    A    
