data_mof_unit_37656.cif
_audit_creation_date              2012-12-10T17:03:45-0500
_audit_creation_method            fapswitch 2.2
_symmetry_space_group_name_H-M    P1
_symmetry_Int_Tables_number       1
_space_group_crystal_system       triclinic
_cell_length_a                    10.150764
_cell_length_b                    10.649029
_cell_length_c                    13.12592
_cell_angle_alpha                 91.849949
_cell_angle_beta                  71.345445
_cell_angle_gamma                 92.474353
_cell_volume                      1342.80675358

loop_
_atom_site_label
_atom_site_type_symbol
_atom_type_description
_atom_site_fract_x
_atom_site_fract_y
_atom_site_fract_z
_atom_type_partial_charge
C1    C     C_R   0.502943 0.737247 0.499444 0.974521
C2    C     C_R   0.374772 0.483672 0.819575 -0.157513
C3    C     C_2   0.622530 0.070832 0.445908 -0.283061
C4    C     C_R   0.423140 0.494473 0.703064 0.859367
C5    C     C_2   0.503088 0.130910 0.470671 -0.383762
C6    C     C_2   0.621867 0.934202 0.438596 0.468120
C7    C     C_2   0.509546 0.870390 0.500219 -0.369689
C8    C     C_2   0.099557 0.431151 0.434946 -0.185690
C9    C     C_2   0.947463 0.422784 0.442979 -0.082839
C10   C     C_R   0.500243 0.262728 0.493281 0.943908
C11   C     C_R   0.576637 0.497838 0.296375 0.878117
C12   C     C_R   0.423416 0.450295 0.984786 0.049800
C13   C     C_R   0.755639 0.358742 0.023222 -0.214687
C14   C     C_R   0.618484 0.473421 0.180826 -0.052670
C15   C     C_R   0.251138 0.541152 0.878194 -0.248726
C16   C     C_R   0.203802 0.540580 0.990441 0.172002
C17   C     C_R   0.283701 0.480812 0.044335 0.114369
C18   C     C_3   0.887801 0.595991 0.570100 -0.191094
C19   C     C_3   0.795377 0.708311 0.607353 -0.754919
C20   C     C_3   0.209927 0.422207 0.153177 -0.441045
C21   C     C_3   0.248206 0.285310 0.158884 -0.859274
C22   C     C_3   0.070250 0.606900 0.049389 -0.427501
C23   C     C_R   0.457818 0.430024 0.873373 0.039908
C24   C     C_3   0.083446 0.747415 0.026036 -0.849632
C25   C     C_R   0.530146 0.438348 0.031212 0.096622
C26   C     C_R   0.652619 0.374520 0.974802 0.176597
C27   C     C_R   0.669985 0.328605 0.870903 -0.264639
C28   C     C_R   0.574677 0.357636 0.819815 -0.177287
C29   C     C_R   0.521943 0.496666 0.129188 -0.245117
C30   C     C_R   0.736988 0.405624 0.127290 -0.220637
H1    H     H_    0.812345 0.385734 0.166789 0.150498
H2    H     H_    0.190391 0.586039 0.836096 0.171277
H3    H     H_    0.593167 0.321756 0.738657 0.178084
H4    H     H_    0.721522 0.121150 0.434495 0.169392
H5    H     H_    0.806535 0.935616 0.333503 0.322281
H6    H     H_    0.803351 0.770003 0.539020 0.283681
H7    H     H_    0.687894 0.682829 0.655864 0.277996
H8    H     H_    0.836960 0.767117 0.662428 0.183130
H9    H     H_    0.887430 0.551101 0.645482 0.155457
H10   H     H_    0.986386 0.646600 0.526443 0.183914
H11   H     H_    0.248758 0.232232 0.084482 0.264020
H12   H     H_    0.405884 0.083349 0.471589 0.156736
H13   H     H_    0.351235 0.280077 0.170547 0.270707
H14   H     H_    0.170101 0.238570 0.227916 0.230931
H15   H     H_    0.228592 0.481163 0.218192 0.211379
H16   H     H_    0.095755 0.417107 0.169220 0.200897
H17   H     H_    0.173292 0.791038 0.046684 0.260700
H18   H     H_    0.097199 0.763899 0.940145 0.248560
H19   H     H_    0.987309 0.793809 0.075559 0.259913
H20   H     H_    0.983526 0.563730 0.024481 0.220567
H21   H     H_    0.041651 0.599924 0.137865 0.215076
H22   H     H_    0.419268 0.915737 0.554338 0.098300
H23   H     H_    0.172078 0.378619 0.371436 0.182351
H24   H     H_    0.089966 0.493641 0.578298 0.175633
H25   H     H_    0.918195 0.353385 0.391068 0.125141
H26   H     H_    0.760309 0.275578 0.827364 0.146567
H27   H     H_    0.848584 0.308074 0.981681 0.140829
H28   H     H_    0.438529 0.559102 0.167440 0.158058
N1    N     N_2   0.148270 0.498670 0.498870 -0.209333
N2    N     N_2   0.852610 0.498640 0.498840 -0.042069
O1    O     O_R   0.386950 0.680940 0.500020 -0.619290
O2    O     O_R   0.613110 0.680900 0.499980 -0.561669
O3    O     O_R   0.330780 0.500000 0.653640 -0.621057
O4    O     O_R   0.556930 0.499960 0.653610 -0.620529
O5    O     O_R   0.386890 0.319100 0.500020 -0.613856
O6    O     O_R   0.613050 0.319060 0.499980 -0.622109
O7    O     O_R   0.443070 0.500040 0.346390 -0.612667
O8    O     O_R   0.669220 0.500000 0.346360 -0.602766
O9    O     O_3   0.735686 0.871938 0.372459 -0.763495
Zn1   Zn    Zn3+2 0.349000 0.500030 0.500020 0.926049
Zn2   Zn    Zn3+2 0.651000 0.499970 0.499980 0.957170

loop_
_geom_bond_atom_site_label_1
_geom_bond_atom_site_label_2
_ccdc_geom_bond_type
C8    H23   S    
O1    Zn1   S    
C6    O9    S    
C2    C4    S    
C5    H12   S    
O6    Zn2   S    
C6    C7    D    
C9    H25   S    
C19   H8    S    
C21   H14   S    
C4    O4    A    
C20   H15   S    
C12   C23   A    
O3    Zn1   S    
C22   H20   S    
C12   C25   A    
C18   H9    S    
C3    C6    S    
C1    O2    A    
O7    Zn1   S    
C15   H2    S    
H24   N1    S    
C21   H13   S    
C23   C28   A    
C11   O8    A    
C12   C17   A    
C2    C15   A    
C4    O3    A    
C26   C27   A    
C3    H4    S    
C14   C30   A    
O8    Zn2   S    
C21   H11   S    
C7    H22   S    
C18   N2    S    
C11   O7    A    
O2    Zn2   S    
C19   H6    S    
C10   O6    A    
C8    N1    D    
C25   C29   A    
C30   H1    S    
C11   C14   S    
C22   C24   S    
C13   C26   A    
C10   O5    A    
C13   H27   S    
C28   H3    S    
N1    Zn1   S    
O5    Zn1   S    
C24   H18   S    
C13   C30   A    
C5    C10   S    
C17   C20   S    
C20   C21   S    
H5    O9    S    
C2    C23   A    
C18   C19   S    
O4    Zn2   S    
C24   H19   S    
C18   H10   S    
C27   H26   S    
C8    C9    S    
C16   C22   S    
C29   H28   S    
C19   H7    S    
N2    Zn2   S    
C3    C5    D    
C25   C26   A    
C1    C7    S    
C24   H17   S    
C20   H16   S    
C15   C16   A    
C16   C17   A    
C14   C29   A    
C22   H21   S    
C27   C28   A    
C9    N2    D    
C1    O1    A    
