data_mof_unit_62873.cif
_audit_creation_date              2013-03-05T16:29:08-0500
_audit_creation_method            fapswitch 2.2
_symmetry_space_group_name_H-M    P1
_symmetry_Int_Tables_number       1
_space_group_crystal_system       triclinic
_cell_length_a                    19.407761
_cell_length_b                    18.259439
_cell_length_c                    27.799869
_cell_angle_alpha                 89.995491
_cell_angle_beta                  92.198708
_cell_angle_gamma                 90.002949
_cell_volume                      9844.32084815

loop_
_atom_site_label
_atom_site_type_symbol
_atom_site_description
_atom_site_fract_x
_atom_site_fract_y
_atom_site_fract_z
_atom_type_partial_charge
O1    O     O_R   0.400190 0.561980 0.499990 -0.546029
O2    O     O_R   0.599810 0.438020 0.500010 -0.549408
O3    O     O_R   0.599810 0.561980 0.500010 -0.546161
O4    O     O_R   0.400190 0.438020 0.499990 -0.549385
C1    C     C_R   0.367797 0.500000 0.499677 0.945360
C2    C     C_R   0.632203 0.500000 0.500325 0.945237
O5    O     O_R   0.500010 0.561950 0.430270 -0.570735
O6    O     O_R   0.499990 0.438050 0.569730 -0.537678
O7    O     O_R   0.499990 0.561950 0.569730 -0.570527
O8    O     O_R   0.500010 0.438050 0.430270 -0.537574
C3    C     C_R   0.501113 0.499824 0.407301 0.952038
C4    C     C_R   0.498889 0.499816 0.592698 0.952004
Cu1   Cu    Cu3+1 0.500000 0.573360 0.500000 1.094106
Cu2   Cu    Cu3+1 0.500000 0.426640 0.500000 1.139699
C5    C     C_R   0.438062 0.496999 0.176235 0.644441
C6    C     C_R   0.561715 0.494848 0.823773 0.645225
O9    O     O_2   0.379874 0.490149 0.200843 -0.415240
O10   O     O_2   0.619717 0.486240 0.799185 -0.415043
N1    N     N_R   0.499103 0.508860 0.201222 -0.462077
N2    N     N_R   0.501049 0.508617 0.798773 -0.462070
C7    C     C_R   0.559122 0.520452 0.178368 0.607296
C8    C     C_R   0.441356 0.522060 0.821612 0.606586
C9    C     C_R   0.488532 0.568537 0.279270 -0.104801
C10   C     C_R   0.511768 0.568355 0.720753 -0.104785
C11   C     C_R   0.489820 0.565919 0.329276 -0.151385
C12   C     C_R   0.510424 0.565802 0.670745 -0.151282
C13   C     C_R   0.516224 0.435426 0.327052 0.275568
C14   C     C_R   0.483583 0.435403 0.672917 0.275533
C15   C     C_R   0.514841 0.438776 0.276406 0.255418
C16   C     C_R   0.484969 0.438702 0.723563 0.255325
C17   C     C_R   0.500732 0.505356 0.252771 0.205721
C18   C     C_R   0.499372 0.505187 0.747225 0.205783
C19   C     C_R   0.498146 0.503222 0.101356 -0.079285
C20   C     C_R   0.501787 0.502994 0.898634 -0.079277
C21   C     C_R   0.436141 0.492188 0.125375 -0.184602
C22   C     C_R   0.563458 0.489948 0.874626 -0.184591
C23   C     C_R   0.375322 0.474454 0.097981 0.301376
C24   C     C_R   0.623720 0.470236 0.902021 0.301300
C25   C     C_R   0.559870 0.518004 0.128075 -0.007051
C26   C     C_R   0.440521 0.519709 0.871907 -0.006974
C27   C     C_R   0.502819 0.499815 0.353975 -0.145640
C28   C     C_R   0.497196 0.499772 0.646021 -0.145769
C29   C     C_R   0.437590 0.505355 0.972897 0.101190
C30   C     C_R   0.562365 0.503377 0.027090 0.101157
C31   C     C_R   0.563383 0.490988 0.976734 -0.074618
C32   C     C_R   0.436215 0.493105 0.023258 -0.074612
C33   C     C_R   0.501017 0.499653 0.949459 0.055601
C34   C     C_R   0.498806 0.499783 0.050530 0.055586
C35   C     C_R   0.378667 0.527659 0.945690 -0.124968
C36   C     C_R   0.621907 0.523813 0.054286 -0.124952
C37   C     C_R   0.379877 0.534034 0.895927 -0.097061
C38   C     C_R   0.620889 0.530329 0.104047 -0.096833
O11   O     O_2   0.382877 0.536834 0.795571 -0.472322
O12   O     O_2   0.617989 0.533475 0.204396 -0.471841
C39   C     C_R   0.375709 0.473449 0.047360 0.167055
C40   C     C_R   0.623290 0.469311 0.952641 0.167044
H1    H     H_    0.520328 0.615911 0.651455 0.216727
H2    H     H_    0.480075 0.616046 0.348583 0.216614
H3    H     H_    0.522518 0.619660 0.739085 0.186425
H4    H     H_    0.477984 0.619906 0.260962 0.186485
H5    H     H_    0.332954 0.550113 0.876358 0.209668
H6    H     H_    0.668258 0.544913 0.123609 0.209776
H7    H     H_    0.331796 0.543175 0.962791 0.194366
H8    H     H_    0.669204 0.537751 0.037178 0.194403
C41   C     C_R   0.742002 0.484293 0.457900 0.280458
C42   C     C_R   0.253294 0.514337 0.455918 0.293215
C43   C     C_R   0.257985 0.484484 0.542119 0.280539
C44   C     C_R   0.746718 0.514458 0.544049 0.293357
C45   C     C_R   0.814011 0.481739 0.458857 -0.086422
C46   C     C_R   0.181181 0.514233 0.456731 -0.082996
C47   C     C_R   0.185975 0.481916 0.541153 -0.086428
C48   C     C_R   0.818830 0.514372 0.543224 -0.083057
H9    H     H_    0.840678 0.470070 0.426180 0.199070
H10   H     H_    0.150620 0.525520 0.424134 0.201561
H11   H     H_    0.159294 0.470382 0.573846 0.199088
H12   H     H_    0.849401 0.525768 0.575799 0.201531
C49   C     C_R   0.852181 0.497454 0.501074 0.079515
C50   C     C_R   0.147818 0.497456 0.498901 0.079498
C51   C     C_R   0.707766 0.499830 0.500834 -0.244788
C52   C     C_R   0.292234 0.499839 0.499160 -0.244764
C53   C     C_R   0.963807 0.564481 0.500499 0.224377
C54   C     C_R   0.036234 0.430220 0.499822 0.224227
C55   C     C_R   0.036185 0.564480 0.499315 0.224325
C56   C     C_R   0.963768 0.430220 0.500291 0.224209
C57   C     C_R   0.072160 0.497357 0.499137 -0.211364
C58   C     C_R   0.927837 0.497358 0.500828 -0.211383
C59   C     C_R   0.454089 0.722338 0.470540 0.320706
C60   C     C_R   0.546524 0.277777 0.529043 0.359395
C61   C     C_R   0.545912 0.722342 0.529455 0.320758
C62   C     C_R   0.453471 0.277775 0.470964 0.359500
C63   C     C_R   0.452892 0.800010 0.470416 0.170204
C64   C     C_R   0.547550 0.200126 0.529268 0.174657
C65   C     C_R   0.547106 0.800013 0.529574 0.170252
C66   C     C_R   0.452456 0.200125 0.470734 0.174662
C67   C     C_R   0.499999 0.839596 0.499994 -0.209462
C68   C     C_R   0.500006 0.160543 0.499999 -0.210569
N3    N     N_R   0.500000 0.683620 0.500000 -0.271815
N4    N     N_R   0.500000 0.316380 0.500000 -0.278857
C69   C     C_R   0.558603 0.961560 0.486800 -0.057710
C70   C     C_R   0.441409 0.038559 0.513204 -0.054045
C71   C     C_R   0.441399 0.961552 0.513188 -0.057664
C72   C     C_R   0.558599 0.038567 0.486788 -0.054053
H13   H     H_    0.604326 0.932677 0.476199 0.181184
H14   H     H_    0.395694 0.067432 0.523833 0.184578
H15   H     H_    0.395675 0.932663 0.523788 0.181200
H16   H     H_    0.604315 0.067446 0.476162 0.184558
C73   C     C_R   0.500005 0.078096 0.499998 0.178042
C74   C     C_R   0.500000 0.922034 0.499993 0.181900
N5    N     N_R   0.533268 0.367398 0.350458 0.158724
O13   O     O_R   0.589825 0.361601 0.376819 -0.257540
O14   O     O_R   0.496750 0.309040 0.341016 -0.235214
N6    N     N_R   0.466343 0.367451 0.649485 0.158717
O15   O     O_R   0.409818 0.361874 0.623068 -0.257791
O16   O     O_R   0.502682 0.308966 0.658916 -0.235157
N7    N     N_R   0.927013 0.632727 0.502368 0.174974
O17   O     O_R   0.944961 0.681970 0.534277 -0.217854
O18   O     O_R   0.876000 0.646280 0.471931 -0.277268
N8    N     N_R   0.073328 0.362016 0.501134 0.175095
O19   O     O_R   0.060044 0.312792 0.533332 -0.218309
O20   O     O_R   0.120270 0.348686 0.470114 -0.263657
N9    N     N_R   0.072974 0.632718 0.497296 0.174974
O21   O     O_R   0.055028 0.681803 0.465276 -0.217795
O22   O     O_R   0.123980 0.646425 0.527707 -0.277173
N10   N     N_R   0.926678 0.362008 0.499131 0.175111
O23   O     O_R   0.939962 0.312628 0.467040 -0.218296
O24   O     O_R   0.879742 0.348824 0.530182 -0.263635
Br1   Br    Br    0.391406 0.673980 0.425833 -0.286686
Br2   Br    Br    0.610581 0.326390 0.572863 -0.204930
Br3   Br    Br    0.608612 0.673993 0.574151 -0.286981
Br4   Br    Br    0.389356 0.326384 0.427183 -0.204911
N11   N     N_R   0.404931 0.838518 0.438989 0.160162
O25   O     O_R   0.427064 0.885204 0.407766 -0.264964
O26   O     O_R   0.338913 0.830959 0.443898 -0.238044
N12   N     N_R   0.595785 0.161632 0.560486 0.165358
O27   O     O_R   0.661733 0.168825 0.555089 -0.238726
O28   O     O_R   0.573907 0.115291 0.592017 -0.242664
N13   N     N_R   0.595066 0.838525 0.560999 0.160152
O29   O     O_R   0.572930 0.885190 0.592228 -0.264924
O30   O     O_R   0.661083 0.830993 0.556081 -0.238155
N14   N     N_R   0.404223 0.161630 0.439515 0.165355
O31   O     O_R   0.338276 0.168774 0.444932 -0.238805
O32   O     O_R   0.426106 0.115327 0.407969 -0.242700
Br5   Br    Br    0.535337 0.353408 0.238817 -0.233370
Br6   Br    Br    0.463920 0.353454 0.761113 -0.233027
N15   N     N_R   0.313642 0.453137 0.121040 0.197613
O33   O     O_R   0.258366 0.493166 0.116149 -0.231770
O34   O     O_R   0.310349 0.389544 0.141949 -0.208064
N16   N     N_R   0.684728 0.446802 0.878961 0.197617
O35   O     O_R   0.741221 0.484859 0.883929 -0.231447
O36   O     O_R   0.686040 0.383180 0.857937 -0.207905
Br7   Br    Br    0.298839 0.425134 0.014016 -0.287187
Br8   Br    Br    0.698682 0.418517 0.986000 -0.287012
N17   N     N_R   0.704774 0.473853 0.412759 0.147342
O37   O     O_R   0.654955 0.518228 0.400042 -0.366831
O38   O     O_R   0.728884 0.429869 0.380631 -0.244374
N18   N     N_R   0.285420 0.528410 0.410976 0.159676
O39   O     O_R   0.253655 0.567654 0.377924 -0.244732
O40   O     O_R   0.342157 0.495314 0.400367 -0.340178
N19   N     N_R   0.295195 0.474262 0.587292 0.147361
O41   O     O_R   0.345059 0.518648 0.599900 -0.366634
O42   O     O_R   0.271027 0.430505 0.619534 -0.244529
N20   N     N_R   0.714603 0.528593 0.588984 0.159642
O43   O     O_R   0.746361 0.567919 0.621995 -0.245174
O44   O     O_R   0.657914 0.495438 0.599645 -0.340186

loop_
_geom_bond_atom_site_label_1
_geom_bond_atom_site_label_2
_geom_bond_distance
_ccdc_geom_bond_type
C47   H11   1.083785 S    
C41   C51   1.416848 A    
C62   C66   1.417994 A    
C59   C63   1.418440 A    
C46   C50   1.394859 A    
C66   N14   1.435693 S    
C45   C49   1.393485 A    
N14   O31   1.301013 A    
C37   H5    1.083264 S    
C70   H14   1.082852 S    
C48   H12   1.083596 S    
O3    C2    1.294505 A    
N1    C17   1.433598 S    
N6    O16   1.300902 A    
N15   O33   1.300931 A    
C16   Br6   1.926635 S    
C14   N6    1.434986 S    
O5    C3    1.302389 A    
C69   C74   1.407432 A    
N13   O30   1.301026 A    
C19   C25   1.411134 A    
C35   H7    1.080277 S    
N18   O39   1.301644 A    
N1    C7    1.364566 A    
C56   C58   1.410756 A    
N5    O14   1.300909 A    
C7    O12   1.349799 S    
C63   N11   1.435871 S    
N7    O17   1.301178 A    
C15   Br5   1.926688 S    
C59   Br1   1.920495 S    
C64   C68   1.406512 A    
C36   H8    1.080289 S    
C13   C15   1.408513 A    
O7    Cu1   1.949637 S    
N8    O19   1.301186 A    
C4    C28   1.484007 S    
C53   C55   1.406333 A    
C60   C64   1.418014 A    
C31   C40   1.420182 A    
C35   C37   1.389374 A    
C32   C39   1.420208 A    
C46   H10   1.083591 S    
C36   C38   1.389340 A    
N19   O42   1.301493 A    
C45   H9    1.083795 S    
N17   O38   1.301506 A    
C43   C47   1.397564 A    
C53   C58   1.410673 A    
O3    Cu1   1.948202 S    
C6    N2    1.367370 A    
C44   C51   1.420030 A    
C25   C38   1.399968 A    
C65   C67   1.405955 A    
Cu1   Cu2   2.679023 S    
C61   C65   1.418421 A    
O2    C2    1.294455 A    
C15   C17   1.403833 A    
C5    C21   1.415697 A    
N6    O15   1.300514 A    
N15   O34   1.301169 A    
Cu2   N4    2.013286 S    
C8    O11   1.349790 S    
N20   O44   1.299894 A    
C31   C33   1.412294 A    
C71   H15   1.082860 S    
C9    H4    1.082915 S    
C32   C34   1.412325 A    
C16   C18   1.403764 A    
N16   O35   1.300929 A    
C69   H13   1.082860 S    
O8    Cu2   1.949639 S    
C11   C27   1.406634 A    
C29   C35   1.406864 A    
N12   O28   1.301157 A    
N7    O18   1.301197 A    
C61   N3    1.381457 A    
C44   C48   1.400598 A    
C9    C17   1.393989 A    
C12   H1    1.081423 S    
C5    N1    1.367374 A    
C10   C18   1.393992 A    
C48   C49   1.394873 A    
C13   C27   1.423114 A    
N19   O41   1.300065 A    
C7    C25   1.399502 A    
O6    C4    1.296637 A    
C8    C26   1.399552 A    
C53   N7    1.438197 S    
C24   C40   1.407674 A    
C72   C73   1.407524 A    
C55   N9    1.438195 S    
C1    C52   1.466038 S    
C66   C68   1.406496 A    
C24   N16   1.433285 S    
N9    O21   1.301176 A    
N16   O36   1.301181 A    
C50   C57   1.468622 S    
C55   C57   1.410680 A    
C68   C73   1.505432 S    
N2    C8    1.364540 A    
C49   C58   1.468605 S    
C54   C56   1.406963 A    
O8    C3    1.296694 A    
O1    C1    1.294452 A    
C40   Br8   1.938309 S    
C11   H2    1.081443 S    
C54   N8    1.438275 S    
N11   O25   1.301174 A    
C54   C57   1.410757 A    
C30   C31   1.418955 A    
C12   C28   1.406597 A    
N10   O24   1.301221 A    
N20   O43   1.301661 A    
N2    C18   1.433536 S    
C30   C36   1.406844 A    
C5    O9    1.348392 S    
C70   C73   1.407531 A    
O6    Cu2   1.949669 S    
C21   C23   1.417441 A    
O7    C4    1.302402 A    
C64   N12   1.435690 S    
C43   C52   1.416873 A    
C10   C12   1.390259 A    
O4    C1    1.294503 A    
N11   O26   1.301025 A    
C23   C39   1.407684 A    
C39   Br7   1.938307 S    
N12   O27   1.301013 A    
N14   O32   1.301153 A    
C44   N20   1.440614 S    
C56   N10   1.438276 S    
C26   C37   1.399971 A    
C42   C52   1.420058 A    
N13   O29   1.301170 A    
N18   O40   1.299879 A    
C14   C16   1.408470 A    
C60   Br2   1.923899 S    
O4    Cu2   1.948202 S    
C38   H6    1.083264 S    
N5    O13   1.300521 A    
C6    C22   1.415622 A    
C22   C24   1.417416 A    
C42   N18   1.440642 S    
C2    C51   1.466043 S    
C42   C46   1.400602 A    
C71   C74   1.407423 A    
C10   H3    1.082911 S    
C41   C45   1.397544 A    
C14   C28   1.423110 A    
C70   C71   1.406114 A    
C19   C21   1.412850 A    
C72   H16   1.082853 S    
C20   C22   1.412837 A    
C9    C11   1.390238 A    
C41   N17   1.436542 S    
Cu1   N3    2.013286 S    
O2    Cu2   1.948181 S    
C29   C32   1.419032 A    
N8    O20   1.301228 A    
N9    O22   1.301199 A    
C65   N13   1.435875 S    
C67   C74   1.505266 S    
C63   C67   1.405971 A    
C62   Br4   1.923861 S    
O5    Cu1   1.949672 S    
C69   C72   1.406116 A    
O1    Cu1   1.948180 S    
C13   N5    1.434976 S    
C6    O10   1.348405 S    
C3    C27   1.484092 S    
C19   C34   1.414902 A    
C20   C26   1.411130 A    
C43   N19   1.436585 S    
C20   C33   1.414893 A    
C23   N15   1.433261 S    
N17   O37   1.300052 A    
C61   Br3   1.920410 S    
C29   C33   1.418531 A    
C62   N4    1.381311 A    
C47   C50   1.393478 A    
C60   N4    1.381311 A    
C30   C34   1.418518 A    
N10   O23   1.301196 A    
C59   N3    1.381476 A    
