data_mof_unit_46703.cif
_audit_creation_date              2012-12-11T14:56:35-0500
_audit_creation_method            fapswitch 2.2
_symmetry_space_group_name_H-M    P1
_symmetry_Int_Tables_number       1
_space_group_crystal_system       triclinic
_cell_length_a                    10.523156
_cell_length_b                    10.675553
_cell_length_c                    17.073743
_cell_angle_alpha                 80.18954
_cell_angle_beta                  89.921959
_cell_angle_gamma                 119.30666
_cell_volume                      1640.08587033

loop_
_atom_site_label
_atom_site_type_symbol
_atom_type_description
_atom_site_fract_x
_atom_site_fract_y
_atom_site_fract_z
_atom_type_partial_charge
C1    C     C_R   0.278528 0.888440 0.132795 0.557788
C2    C     C_R   0.710797 0.257492 0.301505 -0.128226
C3    C     C_R   0.712412 0.245660 0.222689 -0.125376
C4    C     C_R   0.638990 0.298022 0.170021 0.032029
C5    C     C_1   0.685173 0.831661 0.201760 -0.042746
C6    C     C_1   0.703554 0.807311 0.270487 -0.044139
C7    C     C_1   0.227358 0.853785 0.215533 -0.031233
C8    C     C_1   0.178795 0.834635 0.283085 -0.031689
C9    C     C_1   0.661839 0.358140 0.780451 -0.033662
C10   C     C_1   0.684631 0.402221 0.709890 -0.037138
C11   C     C_R   0.615982 0.713107 0.804256 -0.148961
C12   C     C_R   0.633830 0.271354 0.090076 0.535587
C13   C     C_R   0.599957 0.699172 0.726027 -0.142475
C14   C     C_R   0.669364 0.823421 0.665058 0.018196
C15   C     C_R   0.761457 0.961143 0.682747 -0.143616
C16   C     C_R   0.776792 0.976725 0.761708 -0.036341
C17   C     C_R   0.694028 0.852438 0.823039 0.007054
C18   C     C_R   0.086140 0.886924 0.789456 -0.135099
C19   C     C_R   0.071058 0.884192 0.709878 -0.124331
C20   C     C_R   0.114685 0.802226 0.672143 0.028598
C21   C     C_R   0.161444 0.712524 0.716309 -0.129547
C22   C     C_R   0.179044 0.717113 0.796356 -0.116382
C23   C     C_R   0.643557 0.855727 0.124274 0.539731
C24   C     C_R   0.149102 0.811192 0.831578 0.023706
C25   C     C_R   0.711358 0.772463 0.353569 0.562215
C26   C     C_R   0.682006 0.385820 0.398929 0.551253
C27   C     C_R   0.108218 0.812591 0.359904 0.550665
C28   C     C_R   0.677455 0.800196 0.585397 0.545844
C29   C     C_R   0.717447 0.446266 0.625952 0.562260
C30   C     C_R   0.089915 0.798564 0.589517 0.543514
C31   C     C_R   0.216008 0.857941 0.902541 0.558562
C32   C     C_R   0.640295 0.290798 0.861882 0.553746
C33   C     C_R   0.648343 0.867094 0.899454 0.543857
C34   C     C_R   0.554477 0.352053 0.198010 -0.135939
C35   C     C_R   0.554618 0.366093 0.277201 -0.130845
C36   C     C_R   0.638840 0.325127 0.327935 0.027008
Cr1   Cr    Cr6+3 0.402240 0.783890 0.019450 1.027639
Cr2   Cr    Cr6+3 0.382360 0.097900 0.991800 1.029217
Cr3   Cr    Cr6+3 0.715380 0.118170 0.988700 1.046458
Cr4   Cr    Cr6+3 0.936650 0.882420 0.465510 1.019906
Cr5   Cr    Cr6+3 0.605770 0.565620 0.493360 1.023535
Cr6   Cr    Cr6+3 0.921340 0.550490 0.496380 1.028181
H1    H     H_    0.492347 0.386652 0.158382 0.132682
H2    H     H_    0.026633 0.948145 0.677698 0.147898
H3    H     H_    0.189003 0.643865 0.688461 0.139348
H4    H     H_    0.226418 0.656039 0.828616 0.148632
H5    H     H_    0.497767 0.418405 0.296917 0.143129
H6    H     H_    0.774030 0.223009 0.340309 0.143503
H7    H     H_    0.771196 0.195048 0.203090 0.147088
H8    H     H_    0.556510 0.615516 0.850273 0.139315
H9    H     H_    0.536119 0.590045 0.713431 0.142412
H10   H     H_    0.823649 0.055240 0.634993 0.134040
H11   H     H_    0.059302 0.957175 0.816214 0.140415
O1    O     O_R   0.521780 0.757110 0.108900 -0.517611
O2    O     O_R   0.513330 0.228330 0.898660 -0.498765
O3    O     O_R   0.739230 0.266130 0.888050 -0.482174
O4    O     O_R   0.712580 0.991850 0.918770 -0.486999
O5    O     O_3   0.499990 0.999980 0.999980 -0.272164
O6    O     O_R   0.083770 0.911170 0.376030 -0.507119
O7    O     O_R   0.808770 0.880340 0.383890 -0.491230
O8    O     O_R   0.584340 0.689460 0.394160 -0.503958
O9    O     O_R   0.614320 0.443940 0.423590 -0.516325
O10   O     O_R   0.805020 0.410040 0.421340 -0.512633
O11   O     O_R   0.049240 0.685450 0.403290 -0.491458
O12   O     O_R   0.275160 0.783810 0.101120 -0.487146
O13   O     O_R   0.077520 0.903010 0.551800 -0.518895
O14   O     O_R   0.802980 0.872780 0.546830 -0.508136
O15   O     O_R   0.578090 0.681300 0.569920 -0.520483
O16   O     O_R   0.608530 0.436370 0.586530 -0.494133
O17   O     O_R   0.798770 0.401880 0.597100 -0.497559
O18   O     O_R   0.043450 0.677890 0.566230 -0.514483
O19   O     O_3   0.821250 0.666180 0.485090 -0.296882
O20   O     O_R   0.237900 0.972600 0.090980 -0.504075
O21   O     O_R   0.511190 0.220540 0.061620 -0.519460
O22   O     O_R   0.736920 0.257720 0.063840 -0.519145
O23   O     O_R   0.710450 0.984050 0.081720 -0.502899
O24   O     O_R   0.524090 0.765520 0.933110 -0.523254
O25   O     O_R   0.277300 0.791600 0.938160 -0.500440
O26   O     O_R   0.240210 0.981010 0.915190 -0.509903
C37   C     C_1   0.876775 0.120656 0.776875 0.222343
N1    N     N_1   0.957660 0.236091 0.788512 -0.282277

loop_
_geom_bond_atom_site_label_1
_geom_bond_atom_site_label_2
_ccdc_geom_bond_type
Cr4   O7    S    
C12   O21   A    
C19   C20   A    
Cr5   O8    S    
C23   O23   A    
C35   H5    S    
C30   O18   A    
C3    H7    S    
C7    C8    T    
C20   C30   S    
C23   O1    A    
C18   C24   A    
C28   O15   A    
C18   C19   A    
C5    C6    T    
C6    C25   S    
Cr2   O26   S    
C15   C16   A    
Cr3   O4    S    
Cr6   O17   S    
C34   C35   A    
C9    C32   S    
C13   H9    S    
Cr2   O2    S    
C35   C36   A    
C16   C17   A    
Cr4   O14   S    
Cr1   O12   S    
C1    O12   A    
C25   O7    A    
Cr3   O22   S    
C4    C12   S    
C9    C10   T    
C32   O2    A    
C29   O16   A    
Cr1   O5    S    
C18   H11   S    
Cr4   O6    S    
Cr2   O5    S    
C21   C22   A    
C17   C33   S    
Cr5   O9    S    
Cr5   O15   S    
C21   H3    S    
C4    C34   A    
C28   O14   A    
C2    H6    S    
Cr3   O23   S    
Cr3   O5    S    
Cr1   O24   S    
C16   C37   S    
C26   O10   A    
Cr3   O3    S    
C5    C23   S    
Cr6   O19   S    
C25   O8    A    
C15   H10   S    
C30   O13   A    
Cr5   O19   S    
Cr1   O1    S    
C26   C36   S    
C22   H4    S    
C22   C24   A    
C3    C4    A    
Cr6   O11   S    
C19   H2    S    
C31   O25   A    
Cr5   O16   S    
C29   O17   A    
Cr2   O21   S    
C2    C36   A    
C11   C17   A    
C33   O4    A    
Cr4   O19   S    
C1    C7    S    
C34   H1    S    
C37   N1    T    
C31   O26   A    
Cr1   O25   S    
C1    O20   A    
C2    C3    A    
C26   O9    A    
C24   C31   S    
C11   H8    S    
C27   O6    A    
C11   C13   A    
C10   C29   S    
C33   O24   A    
Cr6   O18   S    
C27   O11   A    
C20   C21   A    
C12   O22   A    
C8    C27   S    
C14   C15   A    
Cr4   O13   S    
C14   C28   S    
C13   C14   A    
Cr6   O10   S    
C32   O3    A    
Cr2   O20   S    
