data_mof_unit_64504.cif
_audit_creation_date              2012-10-26T17:57:41-0400
_audit_creation_method            fapswitch 2.2
_symmetry_space_group_name_H-M    P1
_symmetry_Int_Tables_number       1
_space_group_crystal_system       triclinic
_cell_length_a                    21.396538
_cell_length_b                    21.396494
_cell_length_c                    55.82963
_cell_angle_alpha                 89.999927
_cell_angle_beta                  90.000548
_cell_angle_gamma                 90.172901
_cell_volume                      25559.296607

loop_
_atom_site_label
_atom_site_type_symbol
_atom_type_description
_atom_site_fract_x
_atom_site_fract_y
_atom_site_fract_z
_atom_type_partial_charge
C1    C     C_R   0.120522 0.999795 0.499990 0.570602
C2    C     C_3   0.729292 0.053687 0.489750 -0.095198
C3    C     C_R   0.586427 0.925939 0.699099 0.285358
C4    C     C_R   0.574235 0.086727 0.199100 0.284785
C5    C     C_R   0.913351 0.573805 0.199102 0.284813
C6    C     C_R   0.425768 0.913272 0.199099 0.284785
C7    C     C_R   0.086645 0.426193 0.199102 0.284813
C8    C     C_R   0.036764 0.543842 0.686304 0.029806
C9    C     C_R   0.456396 0.036782 0.686301 0.030235
C10   C     C_R   0.963240 0.456157 0.686304 0.029807
C11   C     C_R   0.543600 0.963216 0.686301 0.030235
C12   C     C_R   0.536872 0.043750 0.186302 0.029699
C13   C     C_3   0.054480 0.729222 0.509628 -0.094671
C14   C     C_R   0.956287 0.536653 0.186304 0.029710
C15   C     C_R   0.463131 0.956248 0.186302 0.029696
C16   C     C_R   0.043710 0.463345 0.186304 0.029710
C17   C     C_R   0.000002 0.499999 0.699090 -0.116896
C18   C     C_R   0.499998 0.999999 0.699087 -0.116770
C19   C     C_R   0.500001 0.999999 0.199087 -0.117456
C20   C     C_R   0.999998 0.499999 0.199090 -0.117436
C21   C     C_R   0.510735 0.944419 0.414467 -0.141884
C22   C     C_R   0.055586 0.511037 0.414470 -0.140200
C23   C     C_R   0.489265 0.055581 0.414466 -0.141885
C24   C     C_3   0.270708 0.946274 0.489779 -0.095199
C25   C     C_R   0.944411 0.488962 0.414470 -0.140194
C26   C     C_R   0.010943 0.444460 0.914470 -0.136060
C27   C     C_R   0.555610 0.010916 0.914468 -0.135918
C28   C     C_R   0.989057 0.555540 0.914469 -0.136061
C29   C     C_R   0.444388 0.989083 0.914468 -0.135918
C30   C     C_R   0.034935 0.543475 0.661009 0.409253
C31   C     C_R   0.456750 0.034952 0.661005 0.410195
C32   C     C_R   0.965070 0.456523 0.661009 0.409254
C33   C     C_R   0.543247 0.965047 0.661006 0.410192
C34   C     C_R   0.535041 0.043388 0.161007 0.408554
C35   C     C_3   0.442698 0.770834 0.006747 -0.112156
C36   C     C_R   0.956645 0.534821 0.161008 0.408560
C37   C     C_R   0.464963 0.956609 0.161006 0.408551
C38   C     C_R   0.043353 0.465178 0.161009 0.408560
C39   C     C_R   0.541840 0.039680 0.262778 0.022333
C40   C     C_R   0.960361 0.541641 0.262781 0.022468
C41   C     C_R   0.458161 0.960320 0.262778 0.022333
C42   C     C_R   0.039634 0.458356 0.262781 0.022468
C43   C     C_R   0.041736 0.539791 0.762781 0.022735
C44   C     C_R   0.460477 0.041751 0.762779 0.022795
C45   C     C_R   0.958267 0.460208 0.762781 0.022735
C46   C     C_3   0.228795 0.443496 0.007221 -0.111602
C47   C     C_R   0.539518 0.958246 0.762779 0.022795
C48   C     C_R   0.500001 1.000000 0.275388 0.043909
C49   C     C_R   0.999997 0.499998 0.275391 0.044014
C50   C     C_R   0.000002 0.499999 0.775391 0.044539
C51   C     C_R   0.499998 0.999999 0.775389 0.044577
C52   C     C_R   0.944508 0.510949 0.610501 -0.056961
C53   C     C_R   0.488688 0.944511 0.610497 -0.055827
C54   C     C_R   0.055496 0.489051 0.610501 -0.056961
C55   C     C_R   0.511310 0.055489 0.610497 -0.055833
C56   C     C_R   0.444533 0.011077 0.110499 -0.058960
C57   C     C_3   0.557302 0.229165 0.006748 -0.112156
C58   C     C_R   0.011109 0.555528 0.110500 -0.058953
C59   C     C_R   0.555470 0.988921 0.110499 -0.058959
C60   C     C_R   0.988890 0.444471 0.110500 -0.058954
C61   C     C_R   0.414280 0.925082 0.276178 -0.142732
C62   C     C_R   0.074827 0.414653 0.276182 -0.142593
C63   C     C_R   0.585721 0.074917 0.276179 -0.142732
C64   C     C_R   0.925168 0.585344 0.276181 -0.142593
C65   C     C_R   0.914484 0.424850 0.776182 -0.141072
C66   C     C_R   0.574593 0.914448 0.776180 -0.141022
C67   C     C_R   0.085520 0.575149 0.776182 -0.141072
C68   C     C_3   0.771206 0.556504 0.007221 -0.111602
C69   C     C_R   0.425402 0.085550 0.776179 -0.141022
C70   C     C_R   0.413756 0.926512 0.301077 -0.110031
C71   C     C_R   0.073398 0.414122 0.301081 -0.109863
C72   C     C_R   0.586245 0.073488 0.301077 -0.110031
C73   C     C_R   0.926596 0.585875 0.301080 -0.109863
C74   C     C_R   0.913958 0.426275 0.801080 -0.107268
C75   C     C_R   0.573165 0.913923 0.801079 -0.107241
C76   C     C_R   0.086045 0.573724 0.801081 -0.107268
C77   C     C_R   0.426830 0.086074 0.801078 -0.107241
C78   C     C_R   0.456806 0.963123 0.313663 0.024101
C79   C     C_3   0.993845 0.229379 0.522709 -0.132237
C80   C     C_R   0.036831 0.456989 0.313666 0.024600
C81   C     C_R   0.543195 0.036878 0.313663 0.024101
C82   C     C_R   0.963163 0.543007 0.313666 0.024600
C83   C     C_R   0.956909 0.463003 0.813666 0.024685
C84   C     C_R   0.536715 0.956891 0.813665 0.024699
C85   C     C_R   0.043094 0.536997 0.813667 0.024685
C86   C     C_R   0.463280 0.043107 0.813664 0.024699
C87   C     C_R   0.500000 0.000000 0.300888 -0.028811
C88   C     C_R   0.999997 0.499998 0.300891 -0.028637
C89   C     C_R   0.000001 0.500000 0.800892 -0.028324
C90   C     C_3   0.770666 0.004300 0.477227 -0.133445
C91   C     C_R   0.499997 0.999999 0.800890 -0.028306
C92   C     C_R   0.542812 0.035768 0.338850 0.398007
C93   C     C_R   0.964271 0.542629 0.338853 0.398976
C94   C     C_R   0.457189 0.964232 0.338850 0.398007
C95   C     C_R   0.035724 0.457367 0.338853 0.398979
C96   C     C_R   0.042711 0.535889 0.838854 0.400497
C97   C     C_R   0.464385 0.042725 0.838851 0.400531
C98   C     C_R   0.957291 0.464111 0.838853 0.400496
C99   C     C_R   0.535610 0.957273 0.838852 0.400531
C100  C     C_R   0.000001 0.500000 0.572715 0.006906
C101  C     C_3   0.006106 0.770620 0.522712 -0.132254
C102  C     C_R   0.500000 1.000000 0.572712 0.004757
C103  C     C_R   0.500001 1.000000 0.072714 0.006242
C104  C     C_R   1.000000 0.500000 0.072714 0.006258
C105  C     C_3   0.053155 0.229433 0.490569 -0.142251
C106  C     C_3   0.770496 0.947514 0.510031 -0.141963
C107  C     C_3   0.946864 0.770567 0.490552 -0.142249
C108  C     C_3   0.229504 0.052520 0.510003 -0.141960
C109  C     C_3   0.556003 0.729486 0.993411 -0.125499
C110  C     C_3   0.270906 0.555978 0.992945 -0.125899
C111  C     C_3   0.443997 0.270514 0.993411 -0.125500
C112  C     C_R   0.999658 0.120522 0.500014 0.570842
C113  C     C_3   0.229333 0.995614 0.477229 -0.133414
C114  C     C_3   0.729093 0.444022 0.992946 -0.125899
C115  C     C_3   0.047810 0.270769 0.513226 -0.137723
C116  C     C_3   0.729213 0.951135 0.487311 -0.138377
C117  C     C_3   0.952162 0.729230 0.513211 -0.137731
C118  C     C_3   0.270785 0.048817 0.487285 -0.138364
C119  C     C_3   0.542790 0.770789 0.015598 -0.132412
C120  C     C_3   0.229506 0.544065 0.015239 -0.132891
C121  C     C_3   0.457210 0.229211 0.015598 -0.132412
C122  C     C_3   0.770495 0.455935 0.015239 -0.132891
C123  C     C_3   0.999536 0.311132 0.500106 0.017518
C124  C     C_3   0.486006 0.729367 0.022207 -0.143099
C125  C     C_3   0.688868 0.000457 0.499855 0.017501
C126  C     C_3   0.000464 0.688868 0.500106 0.017527
C127  C     C_3   0.311131 0.999542 0.499855 0.017493
C128  C     C_3   0.499570 0.811182 0.000119 0.021148
C129  C     C_3   0.188820 0.500012 0.000122 0.021179
C130  C     C_3   0.500429 0.188817 0.000119 0.021148
C131  C     C_3   0.811180 0.499988 0.000123 0.021179
C132  C     C_3   0.004889 0.270943 0.477446 -0.102739
C133  C     C_3   0.729009 0.996829 0.522581 -0.101894
C134  C     C_3   0.995159 0.729058 0.477444 -0.102728
C135  C     C_3   0.270546 0.487631 0.022318 -0.143099
C136  C     C_3   0.270992 0.003251 0.522580 -0.101906
C137  C     C_3   0.512815 0.771067 0.977938 -0.090974
C138  C     C_3   0.229018 0.511957 0.977835 -0.091075
C139  C     C_3   0.487185 0.228933 0.977938 -0.090974
C140  C     C_3   0.770981 0.488043 0.977835 -0.091075
C141  C     C_3   0.951206 0.229552 0.487046 0.112729
C142  C     C_3   0.770476 0.049694 0.512386 0.112862
C143  C     C_3   0.048821 0.770449 0.487061 0.112714
C144  C     C_3   0.229526 0.950348 0.512412 0.112852
C145  C     C_3   0.456220 0.729704 0.984675 0.096503
C146  C     C_3   0.513994 0.270633 0.022207 -0.143099
C147  C     C_3   0.269996 0.455727 0.985040 0.096637
C148  C     C_3   0.543780 0.270296 0.984675 0.096503
C149  C     C_3   0.730003 0.544273 0.985041 0.096637
C150  C     C_3   0.171936 0.614677 0.687497 -0.077273
C151  C     C_3   0.386449 0.171990 0.687493 -0.078563
C152  C     C_3   0.828069 0.385320 0.687496 -0.077274
C153  C     C_3   0.613547 0.828008 0.687494 -0.078564
C154  C     C_3   0.672217 0.114256 0.187497 -0.080879
C155  C     C_3   0.885945 0.671654 0.187495 -0.080915
C156  C     C_3   0.327785 0.885749 0.187494 -0.080878
C157  C     C_3   0.729456 0.512368 0.022318 -0.143100
C158  C     C_3   0.114051 0.328344 0.187495 -0.080915
C159  C     C_3   0.999237 0.188991 0.500063 0.047336
C160  C     C_3   0.811008 0.000628 0.499938 0.047396
C161  C     C_3   0.000762 0.811009 0.500064 0.047336
C162  C     C_3   0.188992 0.999368 0.499939 0.047398
C163  C     C_3   0.499231 0.689025 0.000031 0.044757
C164  C     C_R   0.879477 0.000203 0.499989 0.570599
C165  C     C_3   0.310973 0.499549 0.000036 0.044808
C166  C     C_3   0.500769 0.310975 0.000031 0.044757
C167  C     C_3   0.689027 0.500451 0.000036 0.044807
C168  C     C_R   0.500000 0.000000 0.376770 0.235287
C169  C     C_R   0.999998 0.499999 0.376773 0.234916
C170  C     C_R   0.000001 0.500000 0.876773 0.234534
C171  C     C_R   0.499998 0.999999 0.876772 0.234551
C172  C     C_R   0.510997 0.944519 0.389451 -0.056664
C173  C     C_R   0.055486 0.511299 0.389454 -0.055409
C174  C     C_R   0.489004 0.055481 0.389450 -0.056664
C175  C     C_R   0.000342 0.879478 0.500014 0.570833
C176  C     C_R   0.944511 0.488699 0.389454 -0.055405
C177  C     C_R   0.011204 0.444561 0.889453 -0.052072
C178  C     C_R   0.555510 0.011176 0.889452 -0.051985
C179  C     C_R   0.988797 0.555439 0.889453 -0.052072
C180  C     C_R   0.444486 0.988823 0.889452 -0.051984
C181  C     C_R   0.000002 0.500000 0.623177 0.231809
C182  C     C_R   0.499999 1.000000 0.623173 0.231386
C183  C     C_R   0.500002 0.999999 0.123175 0.232095
C184  C     C_R   0.999999 0.500000 0.123176 0.232075
C185  C     C_R   0.944407 0.510686 0.585485 -0.140084
C186  C     C_R   0.620535 0.500236 0.000008 0.565275
C187  C     C_R   0.488953 0.944411 0.585481 -0.138586
C188  C     C_R   0.055595 0.489314 0.585485 -0.140086
C189  C     C_R   0.511045 0.055589 0.585482 -0.138596
C190  C     C_R   0.444432 0.010813 0.085484 -0.142699
C191  C     C_R   0.010843 0.555628 0.085484 -0.142678
C192  C     C_R   0.555570 0.989186 0.085484 -0.142699
C193  C     C_R   0.989156 0.444372 0.085484 -0.142678
C194  C     C_R   0.000000 0.500000 0.546244 0.549435
C195  C     C_R   0.500000 1.000000 0.546243 0.550682
C196  C     C_R   0.500000 1.000000 0.046244 0.548114
C197  C     C_R   0.499645 0.620534 0.000007 0.565152
C198  C     C_R   1.000000 0.500000 0.046244 0.548107
C199  C     C_R   0.999899 0.379618 0.500050 0.557612
C200  C     C_R   0.620382 0.000121 0.499888 0.557445
C201  C     C_R   0.000101 0.620382 0.500050 0.557608
C202  C     C_R   0.379618 0.999879 0.499888 0.557449
C203  C     C_R   0.499904 0.879634 0.000061 0.558210
C204  C     C_R   0.120366 0.500060 0.000064 0.558151
C205  C     C_R   0.500096 0.120365 0.000061 0.558210
C206  C     C_R   0.879634 0.499940 0.000064 0.558151
C207  C     C_R   1.000000 0.500000 0.453708 0.551119
C208  C     C_R   0.379465 0.499764 0.000008 0.565275
C209  C     C_R   0.500000 0.000000 0.453707 0.549651
C210  C     C_R   0.500000 0.000000 0.953707 0.553217
C211  C     C_R   0.000000 0.500000 0.953708 0.553091
C212  C     C_R   0.500000 0.000000 0.427237 0.005782
C213  C     C_R   0.999999 0.500000 0.427239 0.003726
C214  C     C_R   0.000000 0.500000 0.927239 0.004912
C215  C     C_R   0.499999 1.000000 0.927238 0.005035
C216  C     C_R   0.038954 0.542400 0.737321 -0.018169
C217  C     C_R   0.457851 0.038971 0.737318 -0.018082
C218  C     C_R   0.961050 0.457598 0.737321 -0.018169
C219  C     C_R   0.500355 0.379466 0.000007 0.565152
C220  C     C_R   0.542145 0.961026 0.737319 -0.018082
C221  C     C_R   0.539062 0.042299 0.237318 -0.018732
C222  C     C_R   0.957739 0.538850 0.237321 -0.018668
C223  C     C_R   0.460940 0.957700 0.237318 -0.018733
C224  C     C_R   0.042256 0.461147 0.237321 -0.018668
C225  C     C_R   0.000002 0.499999 0.724641 0.007378
C226  C     C_R   0.499998 0.999999 0.724638 0.007465
C227  C     C_R   0.500001 0.999999 0.224638 0.006755
C228  C     C_R   0.999998 0.499999 0.224641 0.006783
C229  C     C_R   0.073519 0.586721 0.724093 -0.122694
C230  C     C_3   0.945499 0.270778 0.509610 -0.094664
C231  C     C_R   0.413756 0.073558 0.724089 -0.122510
C232  C     C_R   0.926486 0.413277 0.724092 -0.122695
C233  C     C_R   0.586239 0.926440 0.724090 -0.122510
C234  C     C_R   0.573736 0.086535 0.224090 -0.123728
C235  C     C_R   0.913543 0.573307 0.224092 -0.123666
C236  C     C_R   0.426266 0.913464 0.224090 -0.123726
C237  C     C_R   0.086453 0.426690 0.224093 -0.123667
C238  C     C_R   0.074020 0.586912 0.699102 0.284956
C239  C     C_R   0.413569 0.074059 0.699099 0.285358
C240  C     C_R   0.925985 0.413086 0.699102 0.284955
Cu1   Cu    Cu3+1 0.000000 0.000000 0.476100 1.004724
Cu2   Cu    Cu3+1 0.999970 0.437240 0.999980 0.956539
Cu3   Cu    Cu3+1 0.562760 0.999970 0.999980 0.956431
Cu4   Cu    Cu3+1 0.000030 0.562760 0.999980 0.956539
Cu5   Cu    Cu3+1 0.500000 0.500000 0.976100 1.089260
Cu6   Cu    Cu3+1 1.000000 0.000000 0.523900 1.011368
Cu7   Cu    Cu3+1 0.500000 0.500000 0.023900 0.949919
Cu8   Cu    Cu3+1 0.937240 0.500030 0.499980 0.956606
Cu9   Cu    Cu3+1 0.499970 0.937240 0.499980 0.956560
Cu10  Cu    Cu3+1 0.062760 0.499970 0.499980 0.956612
Cu11  Cu    Cu3+1 0.500030 0.062760 0.499980 0.956576
Cu12  Cu    Cu3+1 0.437240 0.000030 0.999980 0.956430
H1    H     H_    0.379230 0.898569 0.310441 0.167998
H2    H     H_    0.788674 0.007384 0.458615 0.149518
H3    H     H_    0.433286 0.178684 0.679146 0.124554
H4    H     H_    0.386039 0.191539 0.705955 0.093635
H5    H     H_    0.352290 0.198929 0.676725 0.159204
H6    H     H_    0.821350 0.432114 0.679149 0.124168
H7    H     H_    0.808521 0.384781 0.705958 0.093372
H8    H     H_    0.801150 0.350984 0.676727 0.161139
H9    H     H_    0.566709 0.821316 0.679146 0.124556
H10   H     H_    0.613955 0.808459 0.705956 0.093635
H11   H     H_    0.647706 0.801070 0.676726 0.159202
H12   H     H_    0.678825 0.067444 0.179151 0.123695
H13   H     H_    0.010638 0.788598 0.541285 0.151914
H14   H     H_    0.691764 0.114753 0.205959 0.092429
H15   H     H_    0.699219 0.148526 0.176727 0.157376
H16   H     H_    0.932762 0.678482 0.179146 0.123732
H17   H     H_    0.885482 0.691204 0.205956 0.092348
H18   H     H_    0.851706 0.698491 0.176726 0.157349
H19   H     H_    0.321182 0.932559 0.179146 0.123699
H20   H     H_    0.308235 0.885260 0.205955 0.092427
H21   H     H_    0.300781 0.851479 0.176725 0.157375
H22   H     H_    0.067234 0.321517 0.179146 0.123732
H23   H     H_    0.114512 0.308794 0.205956 0.092348
H24   H     H_    0.211323 0.992461 0.458619 0.149556
H25   H     H_    0.148290 0.301507 0.176728 0.157349
H26   H     H_    0.474980 0.711339 0.040372 0.139064
H27   H     H_    0.288492 0.477615 0.040571 0.139278
H28   H     H_    0.525020 0.288661 0.040372 0.139063
H29   H     H_    0.711510 0.522384 0.040571 0.139277
H30   H     H_    0.519417 0.900923 0.423789 0.136895
H31   H     H_    0.099084 0.519964 0.423794 0.141255
H32   H     H_    0.480583 0.099077 0.423789 0.136895
H33   H     H_    0.101306 0.379737 0.310445 0.167291
H34   H     H_    0.900914 0.480035 0.423794 0.141258
H35   H     H_    0.019794 0.401000 0.923793 0.143187
H36   H     H_    0.599128 0.019746 0.923792 0.143141
H37   H     H_    0.980207 0.599000 0.923793 0.143186
H38   H     H_    0.400870 0.980254 0.923792 0.143141
H39   H     H_    0.099888 0.623456 0.732618 0.124906
H40   H     H_    0.377194 0.099946 0.732614 0.124804
H41   H     H_    0.900117 0.376542 0.732618 0.124905
H42   H     H_    0.622801 0.900052 0.732615 0.124804
H43   H     H_    0.600195 0.123204 0.232617 0.123922
H44   H     H_    0.620771 0.101431 0.310442 0.167999
H45   H     H_    0.876905 0.599588 0.232618 0.123847
H46   H     H_    0.399805 0.876797 0.232616 0.123924
H47   H     H_    0.123091 0.400409 0.232619 0.123848
H48   H     H_    0.519938 0.901427 0.379893 0.139729
H49   H     H_    0.098583 0.520478 0.379897 0.141456
H50   H     H_    0.480062 0.098574 0.379893 0.139730
H51   H     H_    0.901413 0.479520 0.379897 0.141458
H52   H     H_    0.020306 0.401503 0.879896 0.143458
H53   H     H_    0.598627 0.020258 0.879895 0.143464
H54   H     H_    0.979695 0.598498 0.879896 0.143458
H55   H     H_    0.898689 0.620260 0.310444 0.167290
H56   H     H_    0.401369 0.979741 0.879895 0.143465
H57   H     H_    0.901408 0.519806 0.620066 0.131421
H58   H     H_    0.479547 0.901415 0.620062 0.133166
H59   H     H_    0.098596 0.480193 0.620066 0.131422
H60   H     H_    0.520451 0.098584 0.620063 0.133164
H61   H     H_    0.401455 0.020036 0.120065 0.130123
H62   H     H_    0.020093 0.598657 0.120065 0.130145
H63   H     H_    0.598549 0.979962 0.120065 0.130125
H64   H     H_    0.979906 0.401343 0.120065 0.130145
H65   H     H_    0.900901 0.519317 0.576163 0.135194
H66   H     H_    0.879510 0.398237 0.810444 0.170178
H67   H     H_    0.480032 0.900912 0.576158 0.139478
H68   H     H_    0.099101 0.480683 0.576163 0.135194
H69   H     H_    0.519967 0.099088 0.576158 0.139474
H70   H     H_    0.400947 0.019547 0.076161 0.133782
H71   H     H_    0.019601 0.599161 0.076162 0.133770
H72   H     H_    0.599054 0.980452 0.076161 0.133782
H73   H     H_    0.980398 0.400839 0.076161 0.133770
H74   H     H_    0.378366 0.896974 0.267956 0.108120
H75   H     H_    0.102899 0.378878 0.267960 0.107866
H76   H     H_    0.621636 0.103025 0.267956 0.108121
H77   H     H_    0.600979 0.879463 0.810443 0.170165
H78   H     H_    0.897096 0.621118 0.267959 0.107866
H79   H     H_    0.878645 0.396644 0.767960 0.109598
H80   H     H_    0.602566 0.878596 0.767959 0.109538
H81   H     H_    0.121359 0.603355 0.767961 0.109598
H82   H     H_    0.397429 0.121401 0.767958 0.109538
H83   H     H_    0.087513 0.288919 0.524001 0.132355
H84   H     H_    0.711061 0.910625 0.476986 0.132406
H85   H     H_    0.912436 0.711080 0.523973 0.132360
H86   H     H_    0.288937 0.089289 0.476938 0.132394
H87   H     H_    0.578370 0.788951 0.028309 0.132294
H88   H     H_    0.120493 0.601762 0.810445 0.170178
H89   H     H_    0.211591 0.580375 0.027649 0.132404
H90   H     H_    0.421630 0.211049 0.028309 0.132295
H91   H     H_    0.788410 0.419624 0.027649 0.132404
H92   H     H_    0.097253 0.211204 0.482805 0.119855
H93   H     H_    0.788662 0.904024 0.518303 0.120907
H94   H     H_    0.902782 0.788796 0.482775 0.119869
H95   H     H_    0.211337 0.096040 0.518252 0.120876
H96   H     H_    0.602471 0.711433 0.988018 0.154836
H97   H     H_    0.289293 0.602106 0.987163 0.154830
H98   H     H_    0.397529 0.288567 0.988018 0.154836
H99   H     H_    0.399015 0.120535 0.810442 0.170165
H100  H     H_    0.710706 0.397894 0.987163 0.154830
H101  H     H_    0.009228 0.289217 0.458908 0.134382
H102  H     H_    0.710691 0.993960 0.541154 0.135462
H103  H     H_    0.990858 0.710785 0.458905 0.134377
H104  H     H_    0.289312 0.006189 0.541151 0.135464
H105  H     H_    0.523640 0.789359 0.959794 0.143940
H106  H     H_    0.210791 0.521775 0.959606 0.143654
H107  H     H_    0.476360 0.210641 0.959794 0.143940
H108  H     H_    0.789207 0.478225 0.959606 0.143654
H109  H     H_    0.901269 0.288664 0.517382 0.157871
H110  H     H_    0.989274 0.211400 0.541281 0.151933
H111  H     H_    0.711448 0.097303 0.481472 0.156984
H112  H     H_    0.098694 0.711336 0.517413 0.157842
H113  H     H_    0.288552 0.902628 0.481524 0.157015
H114  H     H_    0.396153 0.788705 0.012185 0.142512
H115  H     H_    0.210619 0.397282 0.013047 0.142675
H116  H     H_    0.603846 0.211294 0.012185 0.142512
H117  H     H_    0.789381 0.602717 0.013048 0.142675
H118  H     H_    0.178654 0.567884 0.679150 0.124168
H119  H     H_    0.191485 0.615216 0.705959 0.093371
H120  H     H_    0.198855 0.649013 0.676729 0.161142
I1    I     I_    0.874095 0.196408 0.466254 -0.335677
I2    I     I_    0.803797 0.128288 0.532302 -0.334315
I3    I     I_    0.125979 0.803602 0.466298 -0.335805
I4    I     I_    0.196209 0.871818 0.532367 -0.334212
I5    I     I_    0.386774 0.697764 0.960034 -0.358914
I6    I     I_    0.301523 0.384924 0.960978 -0.359913
I7    I     I_    0.613225 0.302236 0.960035 -0.358916
I8    I     I_    0.698475 0.615077 0.960979 -0.359912
N1    N     N_R   0.500000 0.000000 0.350956 -0.396145
N2    N     N_R   0.999997 0.499998 0.350959 -0.395618
N3    N     N_R   0.000001 0.500000 0.850959 -0.396376
N4    N     N_R   0.499998 0.999999 0.850958 -0.396379
N5    N     N_R   0.000002 0.499999 0.649003 -0.419183
N6    N     N_R   0.499999 1.000000 0.649000 -0.418731
N7    N     N_R   0.500002 0.999999 0.149001 -0.418747
N8    N     N_R   0.999999 0.500000 0.149003 -0.418739
O1    O     O_R   0.091590 0.000030 0.479820 -0.510337
O2    O     O_R   0.999940 0.091560 0.520180 -0.509385
O3    O     O_R   0.908440 0.999940 0.520180 -0.494519
O4    O     O_R   0.000060 0.908440 0.520180 -0.509377
O5    O     O_R   0.591560 0.500060 0.020180 -0.523113
O6    O     O_R   0.499940 0.591560 0.020180 -0.523048
O7    O     O_R   0.408440 0.499940 0.020180 -0.523113
O8    O     O_R   0.500060 0.408440 0.020180 -0.523048
O9    O     O_2   0.585287 0.069772 0.351131 -0.497558
O10   O     O_2   0.930308 0.584932 0.351134 -0.498863
O11   O     O_2   0.414714 0.930228 0.351131 -0.497561
O12   O     O_R   0.999970 0.091590 0.479820 -0.495100
O13   O     O_2   0.069687 0.415065 0.351135 -0.498858
O14   O     O_2   0.085087 0.570016 0.851136 -0.491794
O15   O     O_2   0.430533 0.085116 0.851133 -0.491714
O16   O     O_2   0.914915 0.429984 0.851135 -0.491795
O17   O     O_2   0.569462 0.914882 0.851134 -0.491714
O18   O     O_R   0.947000 0.500060 0.534840 -0.512495
O19   O     O_R   0.499940 0.947000 0.534840 -0.509301
O20   O     O_R   0.053000 0.499940 0.534840 -0.512496
O21   O     O_R   0.500060 0.053000 0.534840 -0.509304
O22   O     O_R   0.447000 0.000060 0.034840 -0.513739
O23   O     O_R   0.908410 0.999970 0.479820 -0.510324
O24   O     O_R   0.999940 0.447000 0.034840 -0.513763
O25   O     O_R   0.553000 0.999940 0.034840 -0.513739
O26   O     O_R   0.000060 0.553000 0.034840 -0.513762
O27   O     O_R   0.947010 0.408460 0.499980 -0.503996
O28   O     O_R   0.591540 0.947010 0.499980 -0.510366
O29   O     O_R   0.052990 0.591540 0.499980 -0.503990
O30   O     O_R   0.408460 0.052990 0.499980 -0.510357
O31   O     O_R   0.447010 0.908460 0.999980 -0.506367
O32   O     O_R   0.091540 0.447010 0.999980 -0.506247
O33   O     O_R   0.552990 0.091540 0.999980 -0.506367
O34   O     O_R   0.000030 0.908410 0.479820 -0.495126
O35   O     O_R   0.908460 0.552990 0.999980 -0.506247
O36   O     O_R   0.053010 0.408470 0.499960 -0.510106
O37   O     O_R   0.591530 0.053010 0.499960 -0.503618
O38   O     O_R   0.946990 0.591530 0.499960 -0.510112
O39   O     O_R   0.408470 0.946990 0.499960 -0.503631
O40   O     O_R   0.553010 0.908470 0.999960 -0.507983
O41   O     O_R   0.091530 0.553010 0.999960 -0.508039
O42   O     O_R   0.446990 0.091530 0.999960 -0.507983
O43   O     O_R   0.908470 0.446990 0.999960 -0.508039
O44   O     O_R   0.946990 0.500000 0.465110 -0.508887
O45   O     O_R   0.591590 0.500030 0.979820 -0.476659
O46   O     O_R   0.500000 0.946990 0.465110 -0.512099
O47   O     O_R   0.053010 0.500000 0.465110 -0.508890
O48   O     O_R   0.500000 0.053010 0.465110 -0.512100
O49   O     O_R   0.446990 0.000000 0.965110 -0.507627
O50   O     O_R   1.000000 0.446990 0.965110 -0.507585
O51   O     O_R   0.553010 0.000000 0.965110 -0.507627
O52   O     O_R   1.000000 0.553010 0.965110 -0.507585
O53   O     O_2   0.067290 0.586504 0.648382 -0.436881
O54   O     O_2   0.413931 0.067327 0.648378 -0.437860
O55   O     O_2   0.932715 0.413494 0.648381 -0.436883
O56   O     O_R   0.499970 0.591590 0.979820 -0.476405
O57   O     O_2   0.586066 0.932672 0.648379 -0.437867
O58   O     O_2   0.567503 0.086338 0.148379 -0.441081
O59   O     O_2   0.913725 0.567064 0.148381 -0.441076
O60   O     O_2   0.432502 0.913659 0.148379 -0.441082
O61   O     O_2   0.086273 0.432935 0.148382 -0.441077
O62   O     O_3   0.108471 0.632377 0.687366 -0.506449
O63   O     O_3   0.368331 0.108535 0.687362 -0.506746
O64   O     O_3   0.891535 0.367621 0.687365 -0.506450
O65   O     O_3   0.631665 0.891463 0.687363 -0.506749
O66   O     O_3   0.608795 0.132108 0.187363 -0.508313
O67   O     O_R   0.408410 0.499970 0.979820 -0.476659
O68   O     O_3   0.868012 0.608147 0.187365 -0.508327
O69   O     O_3   0.391205 0.867892 0.187363 -0.508314
O70   O     O_3   0.131985 0.391851 0.187366 -0.508327
O71   O     O_R   0.500030 0.408410 0.979820 -0.476406
O72   O     O_R   0.091560 0.000060 0.520180 -0.494482

loop_
_geom_bond_atom_site_label_1
_geom_bond_atom_site_label_2
_ccdc_geom_bond_type
C60   C184  A    
C221  C234  A    
C41   C61   A    
C74   C83   A    
C188  H68   S    
Cu12  O31   S    
C134  H103  S    
C46   C129  S    
C117  H85   S    
C111  C139  S    
C23   H32   S    
C35   H114  S    
C35   C124  S    
C100  C188  A    
C36   O59   S    
C85   C96   A    
C146  H28   S    
C189  H69   S    
C106  H93   S    
C137  H105  S    
C235  H45   S    
C25   H34   S    
C2    C90   S    
C54   H59   S    
Cu2   O43   S    
C68   C149  S    
C32   O55   S    
C27   H36   S    
C129  C204  S    
C106  C133  S    
C24   H113  S    
C7    C237  A    
C198  O26   A    
Cu5   O67   S    
C24   C127  S    
Cu2   Cu4   S    
C104  C193  A    
C174  H50   S    
C171  C178  A    
Cu4   O26   S    
C84   C91   A    
C90   C116  S    
C4    C12   A    
C96   O14   S    
C117  C126  S    
C217  C226  A    
C119  C128  S    
C75   H77   S    
C102  C195  S    
C202  O39   A    
C4    C234  A    
C224  C228  A    
C113  H24   S    
Cu9   O39   S    
Cu8   Cu10  S    
C62   H75   S    
C56   C190  A    
C199  O36   A    
C115  C123  S    
C196  O25   A    
C110  C138  S    
C37   O60   S    
C127  C136  S    
C109  C163  S    
C124  H26   S    
C158  H25   S    
C141  C230  S    
C128  C203  S    
C68   C131  S    
C55   H60   S    
Cu9   O46   S    
C236  H46   S    
C199  O27   A    
C220  C233  A    
Cu8   O18   S    
C200  O28   A    
C229  H39   S    
C16   C20   A    
Cu7   O7    S    
C48   C87   A    
C103  C190  A    
C132  H101  S    
C72   H44   S    
Cu8   O38   S    
C231  H40   S    
C94   O11   S    
Cu4   O52   S    
C1    C162  S    
C8    C238  A    
C103  C196  S    
C190  H70   S    
C134  C143  S    
C2    H111  S    
C151  O63   S    
C6    C236  A    
C22   C173  A    
C104  C198  S    
Cu6   O3    S    
C143  I3    S    
C115  H83   S    
C21   C172  A    
C221  C227  A    
C8    C17   A    
C120  C135  S    
C25   C213  A    
C8    C30   A    
C26   H35   S    
C80   C88   A    
C46   H115  S    
C3    C233  A    
C69   H82   S    
Cu10  O29   S    
C45   C50   A    
C78   C94   A    
C198  O24   A    
C169  C176  A    
C209  O46   A    
C194  O18   A    
C196  O22   A    
C3    C11   A    
C155  O68   S    
C126  C134  S    
C166  C219  S    
C143  C161  S    
C78   C87   A    
C238  O62   S    
Cu8   O27   S    
C11   C18   A    
C185  H65   S    
C79   C115  S    
C123  C132  S    
C69   C77   A    
C27   C178  A    
C121  C130  S    
C158  H23   S    
C60   H64   S    
C156  H19   S    
Cu1   O1    S    
C168  C174  A    
C133  C142  S    
Cu1   O23   S    
C55   C189  A    
C123  C199  S    
C107  C134  S    
C35   C145  S    
Cu10  O47   S    
C158  O70   S    
C106  C160  S    
C75   C84   A    
C29   C215  A    
C23   C212  A    
C156  O69   S    
C195  O19   A    
C210  C215  S    
Cu7   O5    S    
C102  C189  A    
C233  H42   S    
C202  O30   A    
C145  I5    S    
Cu1   O34   S    
C86   C97   A    
C19   C227  A    
C15   C37   A    
C147  C165  S    
C114  H100  S    
C232  H41   S    
C81   C92   A    
C17   C225  A    
C141  C159  S    
C83   C98   A    
C64   C73   A    
C36   N8    A    
C131  C140  S    
C114  C140  S    
C179  H54   S    
C153  H9    S    
C42   C62   A    
C124  C163  S    
C90   H2    S    
C157  H29   S    
C45   C218  A    
C197  O56   A    
C184  N8    S    
C98   O16   S    
C42   C224  A    
C43   C216  A    
C192  H72   S    
C186  O5    A    
C3    O65   S    
C60   C193  A    
C144  I4    S    
C83   C89   A    
C207  O47   A    
C139  C148  S    
C204  O32   A    
C120  C129  S    
C107  C161  S    
C57   C130  S    
C11   C33   A    
C63   H76   S    
C211  O50   A    
C230  H109  S    
C154  H15   S    
Cu11  O21   S    
C64   H78   S    
C145  C163  S    
C65   C74   A    
C209  O48   A    
Cu3   O51   S    
C208  O7    A    
Cu1   O12   S    
C168  C172  A    
C150  H120  S    
C216  C229  A    
C54   C181  A    
C220  C226  A    
Cu12  O49   S    
C105  H92   S    
C80   C95   A    
C59   C183  A    
C218  C232  A    
C211  O52   A    
C186  O45   A    
C116  C125  S    
C45   C65   A    
C2    C142  S    
C57   H116  S    
C153  O65   S    
C118  C127  S    
C73   H55   S    
C122  C131  S    
C155  H18   S    
C151  H5    S    
C33   O57   S    
C26   C177  A    
C132  C141  S    
Cu5   O71   S    
C105  C115  S    
C219  O71   A    
C155  H16   S    
C43   C50   A    
Cu12  O22   S    
C7    O70   S    
C47   C220  A    
C102  C187  A    
C20   C228  A    
C21   C212  A    
C170  C179  A    
C234  H43   S    
C100  C185  A    
C53   C182  A    
C152  H7    S    
C206  O35   A    
C123  C230  S    
Cu3   O25   S    
C82   C88   A    
C29   H38   S    
C204  O41   A    
C55   C182  A    
C77   H99   S    
C62   C71   A    
C153  H11   S    
C127  C202  S    
C154  H12   S    
C223  C236  A    
C2    C125  S    
C237  H47   S    
C9    C18   A    
C211  C214  S    
C163  C197  S    
C43   C67   A    
C22   C213  A    
C169  C173  A    
C121  C146  S    
C74   H66   S    
C140  C149  S    
C151  H4    S    
C61   C70   A    
C141  I1    S    
C180  H56   S    
Cu4   O35   S    
C148  C166  S    
C149  C167  S    
C118  H86   S    
C121  H90   S    
C157  C167  S    
C149  I8    S    
C136  H104  S    
C15   C19   A    
C135  H27   S    
C168  N1    S    
C160  C164  S    
C137  C145  S    
Cu5   O45   S    
C28   H37   S    
C86   C91   A    
C79   C159  S    
C182  N6    S    
C110  C165  S    
Cu3   O33   S    
C150  H118  S    
C209  C212  S    
C58   C184  A    
Cu11  O30   S    
C76   C85   A    
C51   C91   A    
C120  H89   S    
C208  O67   A    
C187  H67   S    
C210  O51   A    
Cu9   O19   S    
C125  C200  S    
C111  H98   S    
Cu10  O20   S    
C9    C239  A    
C58   H62   S    
C47   C66   A    
Cu2   O32   S    
C72   C81   A    
C65   H79   S    
C112  O12   A    
C82   C93   A    
C54   C188  A    
C57   C146  S    
C27   C215  A    
C49   C88   A    
C59   C192  A    
Cu11  O37   S    
C130  C139  S    
C31   O54   S    
C105  C132  S    
C126  C201  S    
C222  C235  A    
C170  C177  A    
Cu1   Cu6   S    
C164  O3    A    
C14   C20   A    
C114  C167  S    
Cu6   O4    S    
C52   C181  A    
C142  C160  S    
C23   C174  A    
C85   C89   A    
C47   C51   A    
C1    O72   A    
C207  O44   A    
C177  H52   S    
Cu6   O72   S    
C93   O10   S    
C40   C222  A    
Cu11  O48   S    
C33   N6    A    
C21   H30   S    
C154  O66   S    
C50   C89   A    
C119  H87   S    
C46   C147  S    
C67   H81   S    
C222  C228  A    
C200  O37   A    
C135  C165  S    
C44   C69   A    
C53   H58   S    
C99   O17   S    
C46   C135  S    
C5    C14   A    
C81   C87   A    
C13   C126  S    
C7    C16   A    
C31   N6    A    
Cu5   Cu7   S    
C191  H71   S    
C12   C34   A    
C68   C157  S    
C73   C82   A    
C56   H61   S    
C109  C119  S    
Cu2   O24   S    
C101  H13   S    
C93   N2    A    
C150  O62   S    
C84   C99   A    
C44   C217  A    
C164  O23   A    
C205  O42   A    
C156  H20   S    
C56   C183  A    
C175  O4    A    
C216  C225  A    
C26   C214  A    
C101  C117  S    
C176  H51   S    
C136  C144  S    
C14   C36   A    
C167  C186  S    
C210  O49   A    
C105  C159  S    
C170  N3    S    
C24   C144  S    
C1    O1    A    
Cu7   O8    S    
C12   C19   A    
C4    O66   S    
C122  C157  S    
C5    O68   S    
C223  C227  A    
C13   C143  S    
C90   C160  S    
C35   C128  S    
C28   C179  A    
C205  O33   A    
C152  H6    S    
C34   O58   S    
C63   C72   A    
C203  O31   A    
C57   C148  S    
C106  C116  S    
C58   C191  A    
C39   C221  A    
C201  O29   A    
C229  C238  A    
C108  H95   S    
C169  N2    S    
C107  C117  S    
C40   C49   A    
C96   N3    A    
C39   C48   A    
Cu9   O28   S    
C171  N4    S    
C172  H48   S    
C10   C240  A    
C112  C159  S    
C173  H49   S    
C70   C78   A    
Cu6   O2    S    
C66   H80   S    
C109  H96   S    
C119  C124  S    
C133  H102  S    
C92   O9    S    
C193  H73   S    
C109  C137  S    
C98   N3    A    
C34   N7    A    
C108  C136  S    
C22   H31   S    
C13   H112  S    
C161  C175  S    
Cu10  O36   S    
C10   C17   A    
C207  C213  S    
C52   H57   S    
C231  C239  A    
C94   N1    A    
C175  O34   A    
C150  H119  S    
C139  H107  S    
C18   C226  A    
C6    C15   A    
Cu2   O50   S    
C110  H97   S    
C129  C138  S    
C112  O2    A    
C111  C121  S    
C29   C180  A    
C66   C75   A    
C147  I6    S    
C99   N4    A    
C30   N5    A    
C224  C237  A    
C218  C225  A    
C38   O61   S    
C195  O21   A    
C113  C162  S    
C24   C113  S    
C92   N1    A    
C95   N2    A    
C116  H84   S    
C70   H1    S    
C71   C80   A    
C155  H17   S    
C158  H22   S    
C183  N7    S    
C28   C214  A    
C206  O43   A    
Cu9   Cu11  S    
C181  N5    S    
C108  C118  S    
C178  H53   S    
C122  H91   S    
C110  C120  S    
C197  O6    A    
C152  O64   S    
C148  I7    S    
Cu7   O6    S    
C108  C162  S    
Cu3   O40   S    
C142  I2    S    
Cu5   O56   S    
C61   H74   S    
C128  C137  S    
C79   C230  S    
C59   H63   S    
C104  C191  A    
C152  H8    S    
C95   O13   S    
C138  C147  S    
C76   H88   S    
C156  H21   S    
C111  C166  S    
C153  H10   S    
C41   C223  A    
C44   C51   A    
C77   C86   A    
C240  O64   S    
C71   H33   S    
C171  C180  A    
C52   C185  A    
C13   C101  S    
C219  O8    A    
C107  H94   S    
C138  H106  S    
C151  H3    S    
C125  C133  S    
C203  O40   A    
Cu3   Cu12  S    
C144  C162  S    
C201  O38   A    
C239  O63   S    
C154  H14   S    
C67   C76   A    
C100  C194  S    
C39   C63   A    
C40   C64   A    
C68   H117  S    
C140  H108  S    
C194  O20   A    
C101  C161  S    
C53   C187  A    
C130  C205  S    
C217  C231  A    
C97   O15   S    
C25   C176  A    
Cu4   O41   S    
C97   N4    A    
C32   N5    A    
C41   C48   A    
C146  C166  S    
C165  C208  S    
Cu12  O42   S    
C9    C31   A    
C42   C49   A    
C113  C118  S    
C114  C122  S    
C30   O53   S    
C10   C32   A    
C6    O69   S    
C5    C235  A    
C232  C240  A    
C103  C192  A    
C131  C206  S    
Cu8   O44   S    
C37   N7    A    
C79   H110  S    
C16   C38   A    
C38   N8    A    
