data_mof_unit_36501.cif
_audit_creation_date              2012-12-11T15:08:39-0500
_audit_creation_method            fapswitch 2.2
_symmetry_space_group_name_H-M    P1
_symmetry_Int_Tables_number       1
_space_group_crystal_system       triclinic
_cell_length_a                    26.802648
_cell_length_b                    7.073159
_cell_length_c                    11.975317
_cell_angle_alpha                 89.999975
_cell_angle_beta                  103.321045
_cell_angle_gamma                 90.0
_cell_volume                      2209.19003061

loop_
_atom_site_label
_atom_site_type_symbol
_atom_type_description
_atom_site_fract_x
_atom_site_fract_y
_atom_site_fract_z
_atom_type_partial_charge
O1    O     O_R   0.437360 0.505910 0.042120 -0.538568
O2    O     O_R   0.562640 0.005910 0.957880 -0.538568
O3    O     O_R   0.542480 0.176660 0.157100 -0.543419
O4    O     O_R   0.457520 0.676660 0.842900 -0.543419
C1    C     C_R   0.557259 0.344286 0.197360 0.710294
C2    C     C_R   0.442741 0.844286 0.802640 0.710294
O5    O     O_R   0.436520 0.176250 0.054800 -0.539812
O6    O     O_R   0.563480 0.676250 0.945200 -0.539812
O7    O     O_R   0.455920 0.005040 0.854840 -0.538916
O8    O     O_R   0.544080 0.505040 0.145160 -0.538916
C3    C     C_R   0.417406 0.344623 0.063202 0.689081
C4    C     C_R   0.582593 0.844623 0.936798 0.689081
O9    O     O_3   0.506490 0.338900 0.934520 -0.373237
O10   O     O_3   0.493510 0.838900 0.065480 -0.373237
V1    V     V_3+5 0.498800 0.064400 0.012150 1.413460
V2    V     V_3+5 0.501200 0.564400 0.987850 1.413460
C5    C     C_R   0.681512 0.843566 0.759838 -0.160788
C6    C     C_R   0.318487 0.343565 0.240162 -0.160788
H1    H     H_    0.599319 0.836598 0.722747 0.105156
H2    H     H_    0.400681 0.336596 0.277253 0.105156
H3    H     H_    0.775231 0.844746 0.722928 0.135501
H4    H     H_    0.224769 0.344744 0.277072 0.135501
H5    H     H_    0.682328 0.837745 0.669809 0.131184
H6    H     H_    0.317672 0.337743 0.330191 0.131184
C7    C     C_R   0.632098 0.851620 0.904802 -0.030609
C8    C     C_R   0.367902 0.351620 0.095198 -0.030609
C9    C     C_R   0.868368 0.863676 0.213941 0.381628
C10   C     C_R   0.131632 0.363677 0.786059 0.381628
C11   C     C_R   0.821823 0.863482 0.248264 -0.197693
C12   C     C_R   0.178177 0.363483 0.751736 -0.197693
C13   C     C_R   0.775256 0.862856 0.167440 -0.223501
C14   C     C_R   0.224744 0.362857 0.832560 -0.223501
C15   C     C_R   0.773324 0.859322 0.048363 0.082013
C16   C     C_R   0.226676 0.359322 0.951637 0.082013
C17   C     C_R   0.820650 0.857764 0.013031 -0.007750
C18   C     C_R   0.179350 0.357764 0.986969 -0.007750
C19   C     C_R   0.726033 0.856687 0.963237 0.087487
C20   C     C_R   0.273967 0.356687 0.036763 0.087487
C21   C     C_R   0.727269 0.850063 0.845162 0.133201
C22   C     C_R   0.272730 0.350062 0.154838 0.133201
C23   C     C_R   0.774073 0.849125 0.812809 -0.200412
C24   C     C_R   0.225926 0.349123 0.187191 -0.200413
C25   C     C_R   0.819980 0.853497 0.895075 -0.191798
C26   C     C_R   0.180020 0.353496 0.104925 -0.191798
C27   C     C_R   0.677387 0.859047 0.990800 -0.222422
C28   C     C_R   0.322613 0.359048 0.009200 -0.222422
C29   C     C_R   0.634248 0.843396 0.789574 -0.188653
C30   C     C_R   0.365752 0.343395 0.210425 -0.188653
C31   C     C_R   0.867879 0.861261 0.096443 -0.116845
C32   C     C_R   0.132121 0.361261 0.903557 -0.116845
H7    H     H_    0.673139 0.864834 0.078002 0.099868
H8    H     H_    0.326861 0.364835 0.921998 0.099868
H9    H     H_    0.741474 0.865359 0.201542 0.129930
H10   H     H_    0.258526 0.365360 0.798458 0.129930
H11   H     H_    0.821492 0.865568 0.338554 0.128852
H12   H     H_    0.178508 0.365569 0.661446 0.128852
H13   H     H_    0.855104 0.852494 0.865025 0.119766
H14   H     H_    0.144896 0.352493 0.134975 0.119766
C33   C     C_R   0.090895 0.858709 0.311594 -0.073065
C34   C     C_R   0.909105 0.358709 0.688406 -0.073065
C35   C     C_R   0.407513 0.848987 0.688662 -0.043582
C36   C     C_R   0.592487 0.348987 0.311338 -0.043582
C37   C     C_R   0.103889 0.830998 0.518378 0.346716
C38   C     C_R   0.896111 0.330998 0.481622 0.346717
C39   C     C_R   0.070948 0.842955 0.408861 -0.264533
C40   C     C_R   0.929051 0.342956 0.591139 -0.264533
C41   C     C_R   0.143798 0.862941 0.321883 -0.237900
C42   C     C_R   0.856201 0.362941 0.678117 -0.237900
C43   C     C_R   0.178302 0.846621 0.430134 0.024188
C44   C     C_R   0.821698 0.346621 0.569866 0.024188
C45   C     C_R   0.157528 0.832649 0.529054 0.093830
C46   C     C_R   0.842472 0.332649 0.470946 0.093830
C47   C     C_R   0.232707 0.842641 0.443097 0.069739
C48   C     C_R   0.767293 0.342641 0.556903 0.069739
C49   C     C_R   0.265536 0.845926 0.555371 0.061244
C50   C     C_R   0.734464 0.345925 0.444629 0.061244
C51   C     C_R   0.243365 0.818146 0.649938 -0.236395
C52   C     C_R   0.756635 0.318145 0.350062 -0.236395
C53   C     C_R   0.190630 0.814947 0.637356 -0.161405
C54   C     C_R   0.809370 0.314947 0.362644 -0.161405
C55   C     C_R   0.255373 0.823888 0.348130 -0.192156
C56   C     C_R   0.744626 0.323888 0.651870 -0.192156
C57   C     C_R   0.307999 0.802563 0.363330 -0.197906
C58   C     C_R   0.692001 0.302563 0.636670 -0.197906
C59   C     C_R   0.340325 0.813912 0.472463 0.101341
C60   C     C_R   0.659675 0.313912 0.527537 0.101342
C61   C     C_R   0.319964 0.855362 0.569079 0.072789
C62   C     C_R   0.680036 0.355362 0.430921 0.072790
C63   C     C_R   0.392878 0.780802 0.485920 -0.170391
C64   C     C_R   0.607121 0.280802 0.514080 -0.170392
C65   C     C_R   0.425586 0.787535 0.594302 -0.217418
C66   C     C_R   0.574414 0.287535 0.405698 -0.217418
C67   C     C_R   0.355350 0.899755 0.674797 0.090378
C68   C     C_R   0.644650 0.399755 0.325203 0.090377
H15   H     H_    0.175905 0.795972 0.713616 0.185158
H16   H     H_    0.824095 0.295972 0.286384 0.185158
H17   H     H_    0.465582 0.750159 0.604195 0.114757
H18   H     H_    0.534418 0.250159 0.395805 0.114757
H19   H     H_    0.323534 0.776389 0.288778 0.141960
H20   H     H_    0.676466 0.276390 0.711222 0.141961
H21   H     H_    0.029741 0.840042 0.399255 0.140692
H22   H     H_    0.970259 0.340042 0.600745 0.140692
H23   H     H_    0.156692 0.881883 0.243719 0.113186
H24   H     H_    0.843308 0.381883 0.756281 0.113186
H25   H     H_    0.266513 0.789876 0.734711 0.155902
H26   H     H_    0.733487 0.289875 0.265289 0.155902
H27   H     H_    0.233286 0.811298 0.261109 0.137529
H28   H     H_    0.766713 0.311298 0.738891 0.137530
H29   H     H_    0.408364 0.742197 0.413046 0.122632
H30   H     H_    0.591636 0.242197 0.586954 0.122633
O11   O     O_R   0.955980 0.206520 0.854760 -0.541764
O12   O     O_R   0.044020 0.706520 0.145240 -0.541764
O13   O     O_R   0.063490 0.536770 0.945200 -0.537220
O14   O     O_R   0.936510 0.036770 0.054800 -0.537220
C69   C     C_R   0.082787 0.368519 0.937632 0.752497
C70   C     C_R   0.917213 0.868519 0.062368 0.752497
O15   O     O_R   0.957530 0.536190 0.842880 -0.543285
O16   O     O_R   0.042470 0.036190 0.157120 -0.543285
O17   O     O_R   0.937350 0.707210 0.042130 -0.541083
O18   O     O_R   0.062650 0.207210 0.957870 -0.541083
C71   C     C_R   0.943433 0.367692 0.802359 0.733663
C72   C     C_R   0.056567 0.867692 0.197641 0.733663
O19   O     O_3   0.993540 0.373870 0.065440 -0.375837
O20   O     O_3   0.006460 0.873870 0.934560 -0.375837
V3    V     V_3+5 0.001200 0.648440 0.987860 1.474301
V4    V     V_3+5 0.998800 0.148440 0.012140 1.474301
C73   C     C_3   0.340682 0.022159 0.766150 -0.804385
H31   H     H_    0.302706 0.089816 0.736007 0.212000
H32   H     H_    0.341674 0.938362 0.845050 0.203545
H33   H     H_    0.367848 0.142173 0.787713 0.217791
C74   C     C_3   0.659318 0.522159 0.233849 -0.804385
H34   H     H_    0.697294 0.589816 0.263992 0.212000
H35   H     H_    0.658326 0.438362 0.154950 0.203545
H36   H     H_    0.632152 0.642173 0.212287 0.217791
O21   O     O_3   0.084556 0.816453 0.615596 -0.641633
H37   H     H_    0.046555 0.816573 0.592875 0.298535
O22   O     O_3   0.915444 0.316453 0.384404 -0.641633
H38   H     H_    0.953444 0.316573 0.407125 0.298535
O23   O     O_3   0.914815 0.866810 0.293456 -0.650252
H39   H     H_    0.908417 0.868789 0.371800 0.292837
O24   O     O_3   0.085185 0.366812 0.706544 -0.650252
H40   H     H_    0.091583 0.368791 0.628199 0.292837

loop_
_geom_bond_atom_site_label_1
_geom_bond_atom_site_label_2
_ccdc_geom_bond_type
C12   C14   A    
C55   H27   S    
C28   H8    S    
C9    C11   A    
C23   C25   A    
C40   H22   S    
O1    C3    A    
C39   H21   S    
C74   H36   S    
O2    C4    A    
C37   C39   A    
C2    O7    A    
C45   C53   A    
C41   H23   S    
O21   H37   S    
C21   C23   A    
O12   C72   A    
C5    H5    S    
C48   C50   A    
C6    H6    S    
C17   C31   A    
C2    C35   S    
C58   C60   A    
C5    C21   A    
O14   V4    S    
H1    C29   S    
O19   V3    S    
O11   C71   A    
C27   H7    S    
C63   H29   S    
C32   C69   S    
O16   C72   A    
C14   H10   S    
C43   C45   A    
O15   C71   A    
C6    C22   A    
C33   C41   A    
C10   C32   A    
C26   H14   S    
C36   C66   A    
C44   C48   A    
C13   C15   A    
C43   C47   A    
C56   H28   S    
C63   C65   A    
C17   C25   A    
C7    C29   A    
C16   C18   A    
C8    C30   A    
C33   C72   S    
C59   C61   A    
C34   C40   A    
O6    V2    S    
C57   H19   S    
C47   C49   A    
C24   C26   A    
C73   H32   S    
C48   C56   A    
C47   C55   A    
C55   C57   A    
C38   O22   S    
C51   C53   A    
C62   C68   A    
C66   H18   S    
C58   H20   S    
C42   H24   S    
O4    C2    A    
C60   C64   A    
C59   C63   A    
O19   V4    S    
O5    V1    S    
C11   H11   S    
C3    C8    S    
O3    C1    A    
C12   H12   S    
C9    O23   S    
C46   C54   A    
C41   C43   A    
C37   O21   S    
O4    V2    S    
O5    C3    A    
C67   C73   S    
C53   H15   S    
C25   H13   S    
C64   C66   A    
O6    C4    A    
O11   V4    S    
C52   C54   A    
O1    V2    S    
C13   H9    S    
O2    V1    S    
C49   C51   A    
C38   C40   A    
O12   V3    S    
H2    C30   S    
O18   V4    S    
H3    C23   S    
O17   V3    S    
C49   C61   A    
C57   C59   A    
C37   C45   A    
C56   C58   A    
C36   C68   A    
C18   C26   A    
C54   H16   S    
C64   H30   S    
C19   C27   A    
C74   H34   S    
C7    C27   A    
C18   C32   A    
C9    C31   A    
O20   V4    S    
C50   C62   A    
C16   C20   A    
C5    C29   A    
C50   C52   A    
C74   H35   S    
C6    C30   A    
O14   C70   A    
O23   H39   S    
O22   H38   S    
C68   C74   S    
C70   O17   A    
C4    C7    S    
C52   H26   S    
C51   H25   S    
C65   H17   S    
C73   H33   S    
C10   C12   A    
C19   C21   A    
O8    V2    S    
O24   H40   S    
C33   C39   A    
C20   C22   A    
H4    C24   S    
C61   C67   A    
C22   C24   A    
C15   C17   A    
C1    C36   S    
C60   C62   A    
C38   C46   A    
O7    V1    S    
C34   C71   S    
C15   C19   A    
C20   C28   A    
C8    C28   A    
C35   C65   A    
C1    O8    A    
C31   C70   S    
O13   V3    S    
C34   C42   A    
C11   C13   A    
C69   O18   A    
O9    V2    S    
C42   C44   A    
O10   V1    S    
O3    V1    S    
C44   C46   A    
C10   O24   S    
O16   V4    S    
C35   C67   A    
O15   V3    S    
C73   H31   S    
C14   C16   A    
O20   V3    S    
O13   C69   A    
