data_mof_unit_16511.cif
_audit_creation_date              2012-12-11T16:09:01-0500
_audit_creation_method            fapswitch 2.2
_symmetry_space_group_name_H-M    P1
_symmetry_Int_Tables_number       1
_space_group_crystal_system       triclinic
_cell_length_a                    12.969611
_cell_length_b                    13.390544
_cell_length_c                    27.719002
_cell_angle_alpha                 94.526633
_cell_angle_beta                  90.052093
_cell_angle_gamma                 119.16208
_cell_volume                      4186.36834076

loop_
_atom_site_label
_atom_site_type_symbol
_atom_type_description
_atom_site_fract_x
_atom_site_fract_y
_atom_site_fract_z
_atom_type_partial_charge
C1    C     C_R   0.626655 0.898525 0.426485 0.537743
C2    C     C_R   0.159157 0.742129 0.302086 0.019353
C3    C     C_3   0.238057 0.633041 0.685105 0.015931
C4    C     C_3   0.225096 0.555856 0.639282 -0.273868
C5    C     C_3   0.333770 0.540911 0.632994 -0.452693
C6    C     C_3   0.173060 0.611156 0.827346 -0.003704
C7    C     C_3   0.308194 0.688989 0.828851 -0.289142
C8    C     C_3   0.363243 0.676983 0.875167 -0.470685
C9    C     C_3   0.896797 0.066001 0.711233 0.036718
C10   C     C_3   0.969055 0.193068 0.703828 -0.262625
C11   C     C_3   0.097771 0.229273 0.694518 -0.467381
C12   C     C_3   0.647026 0.017588 0.835827 0.010791
C13   C     C_R   0.150741 0.731530 0.200654 -0.023865
C14   C     C_3   0.584090 0.050531 0.798339 -0.253198
C15   C     C_3   0.484129 0.064663 0.820743 -0.482538
C16   C     C_3   0.683416 0.595885 0.679360 0.007966
C17   C     C_3   0.792401 0.680344 0.653490 -0.284386
C18   C     C_3   0.874314 0.630629 0.642116 -0.454417
C19   C     C_3   0.005272 0.596473 0.383563 0.036631
C20   C     C_3   0.973978 0.647239 0.429100 -0.288301
C21   C     C_3   0.844083 0.574677 0.440040 -0.475854
C22   C     C_R   0.601561 0.222570 0.440791 0.548179
C23   C     C_R   0.145365 0.640415 0.223749 -0.106354
C24   C     C_R   0.148724 0.644366 0.273962 0.267250
C25   C     C_R   0.135241 0.721297 0.150734 -0.122909
C26   C     C_R   0.122108 0.804194 0.127584 -0.014872
C27   C     C_R   0.209503 0.950407 0.356148 0.210215
C28   C     C_R   0.194436 0.940712 0.305559 -0.024675
C29   C     C_R   0.173597 0.838227 0.278521 -0.079936
C30   C     C_R   0.614655 0.390477 0.236203 -0.114524
C31   C     C_R   0.205140 0.033639 0.281341 -0.080618
C32   C     C_R   0.192308 0.025124 0.230886 0.231493
C33   C     C_R   0.169194 0.922442 0.203867 0.032047
C34   C     C_R   0.268730 0.877053 0.425854 0.560620
C35   C     C_R   0.165816 0.831348 0.227712 0.016203
C36   C     C_R   0.143269 0.906363 0.153800 -0.129082
C37   C     C_R   0.205328 0.857439 0.378953 -0.020973
C38   C     C_R   0.715036 0.966615 0.349899 -0.131751
C39   C     C_R   0.714512 0.953359 0.299996 -0.036616
C40   C     C_R   0.717520 0.927878 0.199318 0.029872
C41   C     C_R   0.606131 0.374113 0.285496 -0.097472
C42   C     C_R   0.782786 0.037435 0.224251 0.268916
C43   C     C_R   0.779667 0.049468 0.274507 -0.106319
C44   C     C_R   0.728050 0.911933 0.149760 -0.114345
C45   C     C_R   0.674083 0.801296 0.126231 -0.014296
C46   C     C_R   0.627577 0.898900 0.564751 0.540495
C47   C     C_R   0.575114 0.763668 0.351978 -0.094251
C48   C     C_R   0.575437 0.747441 0.301322 0.040326
C49   C     C_R   0.645403 0.843828 0.275396 0.007989
C50   C     C_R   0.506296 0.638670 0.275679 0.252634
C51   C     C_R   0.510084 0.626394 0.225302 -0.097010
C52   C     C_R   0.682135 0.344259 0.308340 0.020796
C53   C     C_R   0.581353 0.721327 0.199917 -0.027924
C54   C     C_R   0.647002 0.831167 0.224847 0.007326
C55   C     C_R   0.594392 0.707137 0.150395 -0.133124
C56   C     C_R   0.644310 0.873149 0.376079 -0.016737
C57   C     C_R   0.743854 0.317386 0.650367 -0.138514
C58   C     C_R   0.602045 0.226229 0.578489 0.548481
C59   C     C_R   0.759677 0.346599 0.700475 0.006665
C60   C     C_R   0.779115 0.376862 0.802134 0.005571
C61   C     C_R   0.875008 0.387499 0.775416 -0.081355
C62   C     C_R   0.866621 0.376355 0.724825 -0.095374
C63   C     C_R   0.696851 0.373687 0.208996 0.029954
C64   C     C_R   0.787588 0.391370 0.852689 -0.130887
C65   C     C_R   0.692500 0.386536 0.878613 -0.010670
C66   C     C_R   0.544673 0.290838 0.653720 -0.126280
C67   C     C_R   0.558373 0.317146 0.703289 0.004350
C68   C     C_R   0.664375 0.340405 0.727146 0.040352
C69   C     C_R   0.466036 0.317009 0.729400 -0.081514
C70   C     C_R   0.272059 0.879297 0.563303 0.525265
C71   C     C_R   0.474954 0.330743 0.779637 -0.124732
C72   C     C_R   0.577653 0.347753 0.803913 -0.003295
C73   C     C_R   0.674075 0.355721 0.777752 0.044857
C74   C     C_1   0.702372 0.387200 0.157789 -0.060926
C75   C     C_R   0.586459 0.360152 0.854003 -0.142532
C76   C     C_R   0.634261 0.284373 0.627384 -0.012308
C77   C     C_1   0.224085 0.861510 0.610239 0.011750
C78   C     C_R   0.154939 0.733830 0.721343 0.246509
C79   C     C_R   0.144464 0.723054 0.771495 0.298572
C80   C     C_R   0.179180 0.920051 0.783480 -0.151505
C81   C     C_R   0.191977 0.930228 0.733931 0.195649
C82   C     C_1   0.638174 0.276845 0.396637 -0.009917
C83   C     C_R   0.177888 0.836803 0.702645 0.009063
C84   C     C_R   0.154169 0.817465 0.802659 -0.057503
C85   C     C_1   0.662077 0.312235 0.357225 -0.060403
C86   C     C_1   0.129283 0.809405 0.853190 -0.047459
C87   C     C_1   0.197565 0.849101 0.651785 0.035682
C88   C     C_1   0.102048 0.796347 0.894661 -0.021064
C89   C     C_1   0.646623 0.864925 0.610166 -0.012518
C90   C     C_R   0.720604 0.929914 0.734932 0.233664
C91   C     C_R   0.709302 0.916656 0.784668 0.288065
C92   C     C_R   0.630914 0.710966 0.767035 -0.169362
C93   C     C_R   0.633658 0.723679 0.717087 0.223711
C94   C     C_R   0.768623 0.333392 0.281829 -0.098169
C95   C     C_R   0.673127 0.832784 0.701222 -0.011529
C96   C     C_1   0.707706 0.405602 0.115669 -0.019902
C97   C     C_R   0.668054 0.806993 0.800832 -0.057937
C98   C     C_1   0.676017 0.795091 0.851713 -0.032557
C99   C     C_1   0.660366 0.846315 0.650821 -0.000611
C100  C     C_1   0.689558 0.786932 0.893963 -0.009420
C101  C     C_R   0.063652 0.771027 0.079340 0.543255
C102  C     C_R   0.717660 0.443169 0.067926 0.545463
C103  C     C_R   0.719155 0.781693 0.080490 0.545029
C104  C     C_R   0.056141 0.765768 0.941313 0.540255
C105  C     C_R   0.711084 0.435877 0.928774 0.546883
C106  C     C_R   0.775726 0.347756 0.232175 -0.077404
C107  C     C_R   0.160826 0.749389 0.352971 0.249185
C108  C     C_R   0.717875 0.775252 0.942416 0.543455
C109  C     C_3   0.298809 0.181701 0.188625 -0.002188
C110  C     C_3   0.279778 0.249311 0.150851 -0.271543
C111  C     C_3   0.389445 0.314787 0.121997 -0.461251
C112  C     C_3   0.151476 0.048566 0.411648 0.036808
C113  C     C_3   0.085142 0.101579 0.388181 -0.293271
C114  C     C_3   0.999662 0.113604 0.422758 -0.460705
C115  C     C_3   0.966430 0.165805 0.200136 -0.008809
C116  C     C_3   0.036501 0.268904 0.237782 -0.225180
C117  C     C_3   0.086816 0.238931 0.280779 -0.390414
Cl1   Cl    Cl    0.415393 0.514858 0.304951 -0.639944
Cl2   Cl    Cl    0.224385 0.060887 0.711718 -0.733017
Cl3   Cl    Cl    0.151248 0.528624 0.298738 -0.594647
Cr1   Cr    Cr6+3 0.416430 0.829200 0.492370 1.056061
Cr2   Cr    Cr6+3 0.674630 0.087020 0.504170 1.009971
Cr3   Cr    Cr6+3 0.408920 0.083740 0.503490 1.036884
Cr4   Cr    Cr6+3 0.914010 0.832750 0.013970 1.024442
Cr5   Cr    Cr6+3 0.922310 0.578600 0.003000 1.015335
Cr6   Cr    Cr6+3 0.656280 0.574630 0.003870 1.010322
H1    H     H_    0.828421 0.311421 0.299398 0.112043
H2    H     H_    0.870339 0.413610 0.871512 0.128515
H3    H     H_    0.813689 0.314344 0.629956 0.119381
H4    H     H_    0.955993 0.403523 0.793671 0.138218
H5    H     H_    0.942808 0.388585 0.704744 0.133530
H6    H     H_    0.512473 0.356082 0.873699 0.134623
H7    H     H_    0.401516 0.327437 0.799457 0.116857
H8    H     H_    0.386001 0.303687 0.710993 0.158319
H9    H     H_    0.460448 0.268798 0.636292 0.161747
H10   H     H_    0.556166 0.414940 0.219381 0.113034
H11   H     H_    0.187122 0.992233 0.807082 0.159913
H12   H     H_    0.222327 0.113142 0.301470 0.162332
H13   H     H_    0.600531 0.626577 0.779316 0.138229
H14   H     H_    0.538574 0.382076 0.305572 0.177149
H15   H     H_    0.121085 0.642425 0.130678 0.136997
H16   H     H_    0.136452 0.564649 0.202643 0.126300
H17   H     H_    0.133951 0.970318 0.135545 0.155394
H18   H     H_    0.336485 0.129928 0.170576 0.136202
H19   H     H_    0.362582 0.242574 0.217649 0.158389
H20   H     H_    0.205642 0.188738 0.125184 0.164033
H21   H     H_    0.255191 0.311044 0.169197 0.165197
H22   H     H_    0.462447 0.382874 0.145776 0.144163
H23   H     H_    0.786770 0.984155 0.130200 0.165355
H24   H     H_    0.368758 0.356334 0.093223 0.151184
H25   H     H_    0.418374 0.255491 0.104608 0.158968
H26   H     H_    0.193494 0.099202 0.446685 0.166551
H27   H     H_    0.087458 0.959741 0.420473 0.092821
H28   H     H_    0.149722 0.187983 0.377620 0.190180
H29   H     H_    0.034718 0.046169 0.355179 0.150477
H30   H     H_    0.930029 0.027576 0.431588 0.166781
H31   H     H_    0.957508 0.157434 0.405427 0.151355
H32   H     H_    0.047471 0.166042 0.456716 0.147323
H33   H     H_    0.998928 0.193265 0.163825 0.137009
H34   H     H_    0.764771 0.052382 0.368025 0.133947
H35   H     H_    0.983809 0.093242 0.204933 0.181740
H36   H     H_    0.110567 0.339250 0.220299 0.166151
H37   H     H_    0.978887 0.303323 0.251611 0.194857
H38   H     H_    0.027945 0.149513 0.289423 0.123290
H39   H     H_    0.097204 0.297312 0.313363 0.203742
H40   H     H_    0.175375 0.250394 0.272748 0.213324
H41   H     H_    0.251869 0.594658 0.716936 0.161269
H42   H     H_    0.317173 0.718949 0.682039 0.121033
H43   H     H_    0.145726 0.470303 0.641174 0.161997
H44   H     H_    0.212570 0.594448 0.607241 0.186147
H45   H     H_    0.828873 0.133899 0.293714 0.111805
H46   H     H_    0.413246 0.625291 0.629263 0.194150
H47   H     H_    0.320800 0.483268 0.599785 0.147691
H48   H     H_    0.347929 0.502130 0.664581 0.172971
H49   H     H_    0.156575 0.521572 0.827128 0.136566
H50   H     H_    0.133632 0.624214 0.860929 0.158248
H51   H     H_    0.346016 0.665080 0.796966 0.150644
H52   H     H_    0.332171 0.780331 0.828415 0.149503
H53   H     H_    0.320213 0.691977 0.907456 0.153267
H54   H     H_    0.457911 0.741953 0.878569 0.146392
H55   H     H_    0.354274 0.590026 0.874397 0.150618
H56   H     H_    0.550880 0.621371 0.131843 0.128467
H57   H     H_    0.899797 0.014811 0.678115 0.137685
H58   H     H_    0.938172 0.049036 0.742677 0.164110
H59   H     H_    0.929452 0.211789 0.672593 0.168356
H60   H     H_    0.966790 0.243107 0.737237 0.175772
H61   H     H_    0.140860 0.219254 0.726979 0.201929
H62   H     H_    0.145395 0.321114 0.687460 0.129451
H63   H     H_    0.104042 0.177328 0.662552 0.194461
H64   H     H_    0.679506 0.084307 0.867031 0.155280
H65   H     H_    0.582912 0.935706 0.850368 0.115348
H66   H     H_    0.648858 0.131954 0.783935 0.211578
H67   H     H_    0.458781 0.542038 0.206057 0.124916
H68   H     H_    0.545675 0.982683 0.767637 0.163333
H69   H     H_    0.415592 0.982150 0.832989 0.138575
H70   H     H_    0.442897 0.092210 0.793401 0.197253
H71   H     H_    0.518358 0.129930 0.852358 0.154353
H72   H     H_    0.643057 0.513405 0.656603 0.167748
H73   H     H_    0.709614 0.580365 0.715120 0.139787
H74   H     H_    0.763702 0.698726 0.619072 0.172460
H75   H     H_    0.842529 0.762198 0.676808 0.159322
H76   H     H_    0.903976 0.611243 0.676018 0.196855
H77   H     H_    0.952852 0.693695 0.624067 0.161089
H78   H     H_    0.841653 0.337939 0.211677 0.149950
H79   H     H_    0.828162 0.550764 0.617335 0.145906
H80   H     H_    0.977197 0.504986 0.387771 0.178406
H81   H     H_    0.954294 0.596401 0.351043 0.123999
H82   H     H_    0.029708 0.651886 0.460616 0.185274
H83   H     H_    0.991693 0.735500 0.423874 0.130882
H84   H     H_    0.786516 0.567376 0.408730 0.162618
H85   H     H_    0.823511 0.615705 0.472186 0.149848
H86   H     H_    0.825312 0.487594 0.448064 0.149184
H87   H     H_    0.519095 0.693122 0.372810 0.191691
O1    O     O_R   0.296680 0.802170 0.437540 -0.450523
O2    O     O_R   0.637200 0.461990 0.052510 -0.519635
O3    O     O_R   0.664790 0.681920 0.057970 -0.504979
O4    O     O_R   0.525380 0.838530 0.443500 -0.486976
O5    O     O_R   0.815840 0.852920 0.961840 -0.500666
O6    O     O_R   0.012100 0.822630 0.963670 -0.490870
O7    O     O_R   0.037010 0.668460 0.953040 -0.523815
O8    O     O_R   0.813390 0.478970 0.949660 -0.502543
O9    O     O_R   0.632250 0.456930 0.945520 -0.521881
O10   O     O_R   0.660200 0.677230 0.958780 -0.500897
O11   O     O_3   0.830870 0.661990 0.006950 -0.244249
O12   O     O_R   0.662610 0.183990 0.557860 -0.498396
O13   O     O_R   0.702130 0.995190 0.446810 -0.533303
O14   O     O_R   0.661770 0.181390 0.458760 -0.508838
O15   O     O_R   0.499820 0.198480 0.455280 -0.478483
O16   O     O_R   0.311660 0.976250 0.449080 -0.481713
O17   O     O_R   0.297580 0.804960 0.544440 -0.524238
O18   O     O_R   0.526220 0.841130 0.542590 -0.497348
O19   O     O_R   0.703030 0.997990 0.553710 -0.507768
O20   O     O_3   0.189172 0.112751 0.208903 -0.619853
O21   O     O_3   0.243177 0.055604 0.381858 -0.544366
O22   O     O_3   0.844878 0.133462 0.199232 -0.600212
O23   O     O_R   0.500730 0.201280 0.562180 -0.522236
O24   O     O_3   0.133125 0.639694 0.689739 -0.565124
O25   O     O_3   0.110851 0.614384 0.785883 -0.567143
O26   O     O_3   0.778717 0.039055 0.719666 -0.550640
O27   O     O_3   0.746586 0.013466 0.816911 -0.541162
O28   O     O_3   0.595913 0.629847 0.683337 -0.587900
O29   O     O_3   0.129023 0.653747 0.378004 -0.481591
O30   O     O_R   0.312500 0.978850 0.548170 -0.494702
O31   O     O_3   0.499990 0.999990 0.500010 -0.253301
O32   O     O_R   0.820790 0.857990 0.068830 -0.520532
O33   O     O_R   0.016700 0.827330 0.062850 -0.502830
O34   O     O_R   0.041970 0.673520 0.060040 -0.521774
O35   O     O_R   0.817980 0.483660 0.048840 -0.491265

loop_
_geom_bond_atom_site_label_1
_geom_bond_atom_site_label_2
_ccdc_geom_bond_type
C1    O13   A    
C8    H55   S    
Cr1   O31   S    
C83   C87   S    
C69   H8    S    
Cr1   O18   S    
C96   C102  S    
C34   C37   S    
C5    H48   S    
C2    C107  A    
C116  H37   S    
C19   C20   S    
C113  H28   S    
C80   C84   A    
C10   H59   S    
C115  O22   S    
C97   C98   S    
C90   C91   A    
C58   C76   S    
C7    C8    S    
C114  H31   S    
C46   C89   S    
C94   H1    S    
C21   H84   S    
C6    O25   S    
C7    H51   S    
C103  O32   A    
C4    H44   S    
C90   O26   S    
C89   C99   T    
C18   H79   S    
C11   H61   S    
C22   C82   S    
C57   C76   A    
C116  H36   S    
C28   C29   A    
C1    C56   S    
C84   C86   S    
C37   C107  A    
C58   O23   A    
C26   C101  S    
C79   C84   A    
C15   H71   S    
C95   C99   S    
C57   C59   A    
C30   C41   A    
C22   O15   A    
C6    H49   S    
Cr2   O14   S    
C105  O9    A    
Cr2   O13   S    
C60   C73   A    
C33   C36   A    
C46   O19   A    
C116  C117  S    
C13   C23   A    
C17   H74   S    
C46   O18   A    
C114  H30   S    
Cr4   O32   S    
C69   C71   A    
C110  C111  S    
C114  H32   S    
C41   H14   S    
C45   C103  S    
C19   O29   S    
C81   C83   A    
C78   C83   A    
C55   H56   S    
C33   C35   A    
C104  O7    A    
Cr4   O11   S    
C117  H39   S    
C16   C17   S    
C64   H2    S    
C91   O27   S    
C3    H42   S    
C19   H80   S    
C23   C24   A    
C112  H26   S    
C107  O29   S    
C52   C94   A    
C18   H77   S    
C11   H63   S    
C9    C10   S    
C41   C52   A    
C108  O5    A    
C27   O21   S    
C14   H66   S    
C16   O28   S    
C40   C42   A    
C66   C67   A    
C14   H68   S    
Cr4   O6    S    
C93   C95   A    
C49   C54   A    
C30   C63   A    
C70   C77   S    
C19   H81   S    
C13   C25   A    
Cr1   O4    S    
C113  H29   S    
C72   C75   A    
C101  O33   A    
C65   C105  S    
Cr3   O31   S    
C88   C104  S    
C92   C97   A    
C50   C51   A    
C32   O20   S    
C53   C55   A    
C117  H38   S    
Cr4   O5    S    
C24   Cl3   S    
C100  C108  S    
C4    H43   S    
C86   C88   T    
C3    H41   S    
C11   H62   S    
C47   C48   A    
C74   C96   T    
C90   C95   A    
C102  O35   A    
C18   H76   S    
C51   H67   S    
C108  O10   A    
C43   H45   S    
C78   C79   A    
C4    C5    S    
C39   C43   A    
C22   O14   A    
C103  O3    A    
C25   C26   A    
C53   C54   A    
Cr2   O12   S    
C67   C68   A    
C7    H52   S    
C115  H33   S    
C60   C61   A    
C51   C53   A    
C63   C74   S    
C115  H35   S    
C70   O17   A    
C104  O6    A    
C9    O26   S    
C9    H57   S    
C70   O30   A    
C42   O22   S    
C8    H54   S    
C31   C32   A    
Cr3   O16   S    
C40   C44   A    
C117  H40   S    
C66   C76   A    
C17   C18   S    
C23   H16   S    
C20   H83   S    
C91   C97   A    
C63   C106  A    
C17   H75   S    
C16   H73   S    
C77   C87   T    
C58   O12   A    
Cr6   O3    S    
C61   H4    S    
C3    O24   S    
C15   H70   S    
C26   C36   A    
C48   C49   A    
C39   C49   A    
C12   C14   S    
C78   O24   S    
C30   H10   S    
C112  H27   S    
C2    C29   A    
C34   O1    A    
C80   C81   A    
Cr5   O34   S    
C34   O16   A    
C42   C43   A    
C20   H82   S    
C3    C4    S    
C101  O34   A    
C111  H24   S    
C16   H72   S    
C75   H6    S    
C110  H21   S    
C113  C114  S    
Cr5   O11   S    
C57   H3    S    
C12   H65   S    
C29   C35   A    
C52   C85   S    
C59   C62   A    
Cr1   O17   S    
C50   Cl1   S    
C5    H47   S    
C62   H5    S    
C36   H17   S    
C28   C31   A    
C25   H15   S    
C44   C45   A    
C72   C73   A    
Cr5   O35   S    
C111  H25   S    
C71   H7    S    
Cr2   O31   S    
Cr6   O9    S    
C13   C35   A    
C6    C7    S    
Cr3   O15   S    
C109  H19   S    
Cr5   O8    S    
C82   C85   T    
C12   H64   S    
C81   Cl2   S    
C98   C100  T    
C44   H23   S    
C65   C75   A    
C21   H86   S    
C60   C64   A    
C31   H12   S    
C32   C33   A    
C68   C73   A    
C15   H69   S    
C71   C72   A    
C9    H58   S    
C93   O28   S    
C111  H22   S    
Cr1   O1    S    
C2    C24   A    
C8    H53   S    
C115  C116  S    
C38   C39   A    
C6    H50   S    
C27   C37   A    
Cr6   O11   S    
C112  O21   S    
Cr3   O30   S    
C47   H87   S    
C64   C65   A    
C48   C50   A    
C92   C93   A    
C10   H60   S    
C5    H46   S    
C109  H18   S    
C112  C113  S    
C40   C54   A    
Cr4   O33   S    
C61   C62   A    
Cr6   O10   S    
C94   C106  A    
C10   C11   S    
Cr6   O2    S    
C106  H78   S    
C66   H9    S    
C105  O8    A    
Cr5   O7    S    
C21   H85   S    
C102  O2    A    
C12   O27   S    
C38   C56   A    
C20   C21   S    
C45   C55   A    
C109  C110  S    
C27   C28   A    
C14   C15   S    
C59   C68   A    
C1    O4    A    
Cr3   O23   S    
C79   O25   S    
C67   C69   A    
C110  H20   S    
C92   H13   S    
Cr2   O19   S    
C80   H11   S    
C47   C56   A    
C38   H34   S    
C109  O20   S    
