data_mof_unit_25416.cif
_audit_creation_date              2012-12-11T15:09:37-0500
_audit_creation_method            fapswitch 2.2
_symmetry_space_group_name_H-M    P1
_symmetry_Int_Tables_number       1
_space_group_crystal_system       triclinic
_cell_length_a                    20.875545
_cell_length_b                    7.127183
_cell_length_c                    14.050912
_cell_angle_alpha                 90.000355
_cell_angle_beta                  97.89475
_cell_angle_gamma                 89.999278
_cell_volume                      2070.73438666

loop_
_atom_site_label
_atom_site_type_symbol
_atom_type_description
_atom_site_fract_x
_atom_site_fract_y
_atom_site_fract_z
_atom_type_partial_charge
O1    O     O_R   0.447130 0.507140 0.597350 -0.536581
O2    O     O_R   0.552870 0.007140 0.402650 -0.536581
O3    O     O_R   0.578910 0.181280 0.586990 -0.538353
O4    O     O_R   0.421090 0.681280 0.413010 -0.538350
C1    C     C_R   0.604491 0.344536 0.607441 0.724410
C2    C     C_R   0.395509 0.844537 0.392560 0.724410
O5    O     O_R   0.449230 0.177860 0.608640 -0.541061
O6    O     O_R   0.550770 0.677860 0.391360 -0.541060
O7    O     O_R   0.422260 0.000770 0.424450 -0.535176
O8    O     O_R   0.577740 0.500770 0.575550 -0.535176
C3    C     C_R   0.433304 0.346543 0.635305 0.689491
C4    C     C_R   0.566696 0.846541 0.364696 0.689494
O9    O     O_3   0.491310 0.336980 0.439550 -0.374424
O10   O     O_3   0.508690 0.836980 0.560450 -0.374427
V1    V     V_3+5 0.501610 0.064760 0.511210 1.427478
V2    V     V_3+5 0.498390 0.564760 0.488790 1.427484
C5    C     C_R   0.621641 0.917323 0.123962 -0.161253
C6    C     C_R   0.378359 0.417503 0.876027 -0.161257
H1    H     H_    0.529643 0.916902 0.175926 0.105257
H2    H     H_    0.470354 0.417145 0.824053 0.105263
H3    H     H_    0.707697 0.958975 0.003295 0.126092
H4    H     H_    0.292300 0.459208 0.996690 0.126096
H5    H     H_    0.600311 0.951307 0.051295 0.114649
H6    H     H_    0.399686 0.451595 0.948681 0.114651
C7    C     C_R   0.607783 0.856561 0.288800 -0.028206
C8    C     C_R   0.392220 0.356570 0.711207 -0.028221
C9    C     C_R   0.922364 0.809748 0.307670 0.020630
C10   C     C_R   0.077648 0.309697 0.692334 0.020641
C11   C     C_R   0.883042 0.763573 0.379038 0.169617
C12   C     C_R   0.116974 0.263360 0.620993 0.169632
C13   C     C_R   0.815449 0.772687 0.355439 -0.191691
C14   C     C_R   0.184567 0.272451 0.644604 -0.191689
C15   C     C_R   0.785248 0.830865 0.264244 0.028855
C16   C     C_R   0.214762 0.330760 0.735781 0.028850
C17   C     C_R   0.824663 0.866017 0.191614 0.038886
C18   C     C_R   0.175342 0.365999 0.808397 0.038894
C19   C     C_R   0.716615 0.851351 0.242528 0.090596
C20   C     C_R   0.283392 0.351299 0.757490 0.090594
C21   C     C_R   0.688882 0.896641 0.147210 0.142149
C22   C     C_R   0.311121 0.396726 0.852792 0.142146
C23   C     C_R   0.728433 0.924024 0.076134 -0.204161
C24   C     C_R   0.271567 0.424160 0.923862 -0.204159
C25   C     C_R   0.795151 0.910944 0.097952 -0.173400
C26   C     C_R   0.204849 0.411028 0.902048 -0.173404
C27   C     C_R   0.674444 0.833784 0.312739 -0.215460
C28   C     C_R   0.325563 0.333681 0.687283 -0.215464
C29   C     C_R   0.581329 0.897760 0.194518 -0.175573
C30   C     C_R   0.418670 0.397913 0.805472 -0.175565
C31   C     C_R   0.892819 0.853705 0.213307 -0.120344
C32   C     C_R   0.107186 0.353692 0.786697 -0.120351
H7    H     H_    0.691533 0.809398 0.387568 0.094267
H8    H     H_    0.308474 0.309186 0.612465 0.094279
H9    H     H_    0.786584 0.730966 0.408965 0.137350
H10   H     H_    0.213436 0.230627 0.591103 0.137352
H11   H     H_    0.823353 0.937080 0.040193 0.124853
H12   H     H_    0.176645 0.437225 0.959797 0.124869
C33   C     C_1   0.167027 0.857564 0.167184 -0.194152
C34   C     C_1   0.832972 0.357563 0.832819 -0.194090
C35   C     C_1   0.219446 0.855467 0.218216 -0.004749
C36   C     C_1   0.780552 0.355464 0.781788 -0.004754
C37   C     C_1   0.281026 0.853867 0.278672 0.002921
C38   C     C_1   0.718972 0.353864 0.721331 0.002904
C39   C     C_1   0.333229 0.851332 0.330267 -0.199024
C40   C     C_1   0.666770 0.351329 0.669736 -0.199024
O11   O     O_R   0.922300 0.202240 0.924350 -0.535792
O12   O     O_R   0.077700 0.702240 0.075650 -0.535766
O13   O     O_R   0.050780 0.535130 0.891350 -0.543526
O14   O     O_R   0.949220 0.035130 0.108650 -0.543526
C41   C     C_R   0.067071 0.367455 0.864793 0.703865
C42   C     C_R   0.932929 0.867456 0.135205 0.703872
O15   O     O_R   0.921100 0.531560 0.912990 -0.537129
O16   O     O_R   0.078900 0.031560 0.087010 -0.537127
O17   O     O_R   0.947120 0.708470 0.097370 -0.540590
O18   O     O_R   0.052880 0.208470 0.902630 -0.540584
C43   C     C_R   0.895710 0.363641 0.893858 0.722441
C44   C     C_R   0.104289 0.863641 0.106143 0.722455
O19   O     O_3   0.008710 0.375800 0.060400 -0.378447
O20   O     O_3   0.991290 0.875800 0.939600 -0.378438
V3    V     V_3+5 0.998380 0.648080 0.988790 1.400199
V4    V     V_3+5 0.001620 0.148080 0.011210 1.400195
C45   C     C_3   0.995754 0.816368 0.332105 -0.393572
C46   C     C_3   0.027495 0.626715 0.316412 -0.297191
C47   C     C_3   0.098230 0.625991 0.361702 -0.781358
H13   H     H_    0.123949 0.749053 0.337209 0.236267
H14   H     H_    0.101825 0.630959 0.441267 0.231475
H15   H     H_    0.122111 0.496792 0.340176 0.228192
H16   H     H_    0.001772 0.510476 0.347573 0.184634
H17   H     H_    0.025343 0.598964 0.238498 0.223754
H18   H     H_    0.016150 0.924825 0.288086 0.158850
H19   H     H_    0.009743 0.863315 0.407189 0.180352
C48   C     C_3   0.004267 0.316542 0.667861 -0.393618
C49   C     C_3   0.972440 0.127047 0.683600 -0.297178
C50   C     C_3   0.901713 0.126544 0.638279 -0.781277
H20   H     H_    0.876052 0.249814 0.662677 0.236235
H21   H     H_    0.898134 0.131299 0.558707 0.231469
H22   H     H_    0.877757 0.997541 0.659879 0.228177
H23   H     H_    0.998122 0.010652 0.652492 0.184657
H24   H     H_    0.974565 0.099418 0.761523 0.223701
H25   H     H_    0.983908 0.425152 0.711835 0.158896
H26   H     H_    0.990311 0.363421 0.592757 0.180346
C51   C     C_3   0.914022 0.705931 0.479915 -0.353315
C52   C     C_3   0.868326 0.633050 0.548047 -0.791777
H27   H     H_    0.833028 0.742531 0.562130 0.226127
H28   H     H_    0.842513 0.505524 0.517806 0.234125
H29   H     H_    0.896700 0.595921 0.618089 0.220879
H30   H     H_    0.949668 0.593040 0.473695 0.178451
H31   H     H_    0.940497 0.827727 0.515044 0.179117
C53   C     C_3   0.086001 0.205553 0.520136 -0.353330
C54   C     C_3   0.131702 0.132510 0.452047 -0.791781
H32   H     H_    0.167009 0.241938 0.437928 0.226115
H33   H     H_    0.157503 0.005004 0.482346 0.234145
H34   H     H_    0.103336 0.095296 0.382010 0.220876
H35   H     H_    0.050350 0.092698 0.526406 0.178418
H36   H     H_    0.059533 0.327301 0.484940 0.179158

loop_
_geom_bond_atom_site_label_1
_geom_bond_atom_site_label_2
_ccdc_geom_bond_type
C51   H31   S    
C20   C22   A    
O14   V4    S    
C51   C52   S    
C9    C11   A    
O1    C3    A    
O16   C44   A    
O2    C4    A    
C2    O7    A    
O15   V3    S    
C45   C46   S    
C49   H24   S    
C21   C23   A    
O5    C3    A    
O12   V3    S    
C50   H20   S    
C6    H6    S    
C33   C44   S    
C32   C41   S    
C54   H33   S    
O20   V4    S    
C33   C35   T    
C27   H7    S    
C34   C36   T    
C46   H16   S    
C28   H8    S    
C53   C54   S    
C52   H29   S    
C36   C38   S    
C5    C21   A    
C53   H36   S    
C37   C39   T    
C6    C22   A    
C38   C40   T    
C10   C32   A    
C17   C31   A    
C13   C15   A    
C48   H26   S    
C17   C25   A    
C7    C29   A    
C8    C30   A    
C45   H18   S    
C22   C24   A    
C50   H21   S    
O11   V4    S    
O18   V4    S    
C11   C13   A    
C23   C25   A    
C24   C26   A    
C14   H10   S    
C34   C43   S    
O19   V3    S    
C35   C37   S    
C9    C45   S    
O13   V3    S    
O4    C2    A    
C54   H34   S    
C48   C49   S    
O20   V3    S    
C3    C8    S    
C15   C19   A    
O16   V4    S    
C1    C40   S    
O13   C41   A    
C14   C16   A    
C2    C39   S    
O4    V2    S    
C26   H12   S    
C47   H13   S    
O6    C4    A    
O12   C44   A    
C42   O17   A    
O17   V3    S    
C11   C51   S    
C41   O18   A    
O1    V2    S    
C5    H5    S    
C13   H9    S    
C52   H28   S    
O2    V1    S    
H2    C30   S    
H3    C23   S    
C45   H19   S    
C25   H11   S    
C47   H14   S    
O15   C43   A    
C50   H22   S    
C31   C42   S    
C18   C26   A    
C19   C27   A    
C7    C27   A    
C18   C32   A    
O19   V4    S    
C51   H30   S    
C12   C53   S    
C16   C20   A    
C5    C29   A    
O3    C1    A    
C6    C30   A    
O9    V2    S    
C53   H35   S    
O11   C43   A    
C4    C7    S    
C10   C12   A    
O7    V1    S    
C1    O8    A    
C19   C21   A    
O8    V2    S    
C54   H32   S    
C12   C14   A    
H4    C24   S    
C46   H17   S    
O5    V1    S    
C49   C50   S    
C15   C17   A    
C10   C48   S    
C16   C18   A    
C52   H27   S    
C20   C28   A    
C8    C28   A    
C47   H15   S    
C49   H23   S    
O6    V2    S    
C46   C47   S    
H1    C29   S    
O14   C42   A    
O10   V1    S    
O3    V1    S    
C48   H25   S    
C9    C31   A    
