data_mof_unit_52398.cif
_audit_creation_date              2012-12-10T16:54:57-0500
_audit_creation_method            fapswitch 2.2
_symmetry_space_group_name_H-M    P1
_symmetry_Int_Tables_number       1
_space_group_crystal_system       triclinic
_cell_length_a                    7.771666
_cell_length_b                    8.576087
_cell_length_c                    15.722413
_cell_angle_alpha                 90.855381
_cell_angle_beta                  85.774209
_cell_angle_gamma                 93.63817
_cell_volume                      1042.89613262

loop_
_atom_site_label
_atom_site_type_symbol
_atom_type_description
_atom_site_fract_x
_atom_site_fract_y
_atom_site_fract_z
_atom_type_partial_charge
C1    C     C_R   0.545778 0.794734 0.497841 0.960674
C2    C     C_3   0.377186 0.620192 0.053568 -0.403985
C3    C     C_3   0.494985 0.495822 0.082863 0.336062
C4    C     C_3   0.426420 0.333182 0.051444 -0.418957
C5    C     C_3   0.443744 0.326740 0.952629 0.045693
C6    C     C_1   0.493226 0.497767 0.174343 -0.114511
C7    C     C_1   0.504634 0.495915 0.825619 -0.119419
C8    C     C_1   0.505282 0.497904 0.750296 -0.189868
C9    C     C_2   0.569877 0.958215 0.496639 -0.382899
C10   C     C_2   0.430127 0.041792 0.503527 -0.383192
C11   C     C_R   0.501880 0.499956 0.661584 0.905679
C12   C     C_R   0.454224 0.205268 0.502223 0.960543
C13   C     C_R   0.498092 0.499936 0.338406 0.905525
C14   C     C_3   0.382050 0.620730 0.955446 -0.383658
C15   C     C_3   0.684585 0.537275 0.945491 -0.479218
C16   C     C_3   0.682265 0.532299 0.043787 -0.408056
C17   C     C_1   0.494005 0.499098 0.249663 -0.184019
C18   C     C_3   0.500385 0.493872 0.917180 0.357634
H1    H     H_    0.249219 0.605782 0.934553 0.177253
H2    H     H_    0.241798 0.594991 0.080379 0.166691
H3    H     H_    0.501627 0.240231 0.076950 0.140931
H4    H     H_    0.298135 0.990746 0.510104 0.180614
H5    H     H_    0.013464 0.381905 0.436560 0.191663
H6    H     H_    0.986536 0.618084 0.563447 0.191407
H7    H     H_    0.433191 0.738022 0.932331 0.156142
H8    H     H_    0.778025 0.454758 0.916877 0.175848
H9    H     H_    0.734993 0.646703 0.068266 0.175056
H10   H     H_    0.767619 0.441236 0.062670 0.169963
H11   H     H_    0.554241 0.252687 0.935222 0.102180
H12   H     H_    0.289943 0.309642 0.076696 0.180328
N1    N     N_2   0.950340 0.457950 0.477370 -0.173348
N2    N     N_2   0.049660 0.542050 0.522630 -0.173422
O1    O     O_R   0.389240 0.738570 0.505550 -0.613109
O2    O     O_R   0.678400 0.711630 0.491050 -0.631100
O3    O     O_R   0.355360 0.513470 0.630110 -0.613119
O4    O     O_R   0.644510 0.486530 0.615610 -0.622298
O5    O     O_R   0.321600 0.288370 0.508950 -0.630951
O6    O     O_R   0.610760 0.261430 0.494450 -0.613010
O7    O     O_R   0.355490 0.513470 0.384390 -0.621920
O8    O     O_R   0.644640 0.486530 0.369890 -0.613424
Zn1   Zn    Zn3+2 0.306930 0.517990 0.509680 0.941950
Zn2   Zn    Zn3+2 0.693070 0.482010 0.490320 0.941890
H13   H     H_    0.421112 0.738032 0.077247 0.167070
H14   H     H_    0.701870 0.009262 0.490074 0.180614
H15   H     H_    0.730676 0.656270 0.923015 0.182583
C19   C     C_3   0.288703 0.234941 0.913770 -0.394888
C20   C     C_3   0.117932 0.314905 0.918970 -0.873966
H16   H     H_    0.089158 0.368160 0.982718 0.252945
H17   H     H_    0.120235 0.404355 0.868590 0.256985
H18   H     H_    0.011095 0.226937 0.906991 0.238084
H19   H     H_    0.324267 0.206910 0.845721 0.204409
H20   H     H_    0.266346 0.120894 0.946844 0.195922

loop_
_geom_bond_atom_site_label_1
_geom_bond_atom_site_label_2
_ccdc_geom_bond_type
C16   H10   S    
C15   C18   S    
N2    Zn1   S    
H6    N2    S    
N1    Zn2   S    
C9    C10   D    
C14   C18   S    
O4    Zn2   S    
N1    N2    D    
O2    Zn2   S    
C13   C17   S    
C2    H13   S    
C3    C6    S    
O1    Zn1   S    
C7    C18   S    
C16   H9    S    
O8    Zn2   S    
C2    C3    S    
C1    O1    A    
C7    C8    T    
O7    Zn1   S    
C10   H4    S    
C12   O6    A    
C4    H3    S    
C10   C12   S    
C8    C11   S    
O3    Zn1   S    
C19   H19   S    
C11   O3    A    
C11   O4    A    
C1    O2    A    
O6    Zn2   S    
C20   H18   S    
C5    H11   S    
C14   H7    S    
O5    Zn1   S    
C2    C14   S    
C13   O7    A    
C15   C16   S    
C15   H15   S    
C2    H2    S    
C3    C4    S    
C19   H20   S    
C1    C9    S    
C20   H17   S    
C5    C19   S    
C12   O5    A    
C6    C17   T    
C19   C20   S    
C15   H8    S    
C13   O8    A    
C5    C18   S    
C14   H1    S    
C4    H12   S    
C3    C16   S    
C20   H16   S    
C4    C5    S    
C9    H14   S    
H5    N1    S    
