data_mof_unit_25338.cif
_audit_creation_date              2012-12-11T14:21:18-0500
_audit_creation_method            fapswitch 2.2
_symmetry_space_group_name_H-M    P1
_symmetry_Int_Tables_number       1
_space_group_crystal_system       triclinic
_cell_length_a                    21.949101
_cell_length_b                    7.213019
_cell_length_c                    14.89683
_cell_angle_alpha                 89.999747
_cell_angle_beta                  107.365373
_cell_angle_gamma                 89.999965
_cell_volume                      2250.95911693

loop_
_atom_site_label
_atom_site_type_symbol
_atom_type_description
_atom_site_fract_x
_atom_site_fract_y
_atom_site_fract_z
_atom_type_partial_charge
O1    O     O_R   0.584770 0.505770 0.002090 -0.542307
O2    O     O_R   0.415230 0.005770 0.997910 -0.542305
O3    O     O_R   0.467060 0.173340 0.861950 -0.529508
O4    O     O_R   0.532940 0.673340 0.138050 -0.529510
C1    C     C_R   0.455588 0.344665 0.825659 0.670040
C2    C     C_R   0.544412 0.844664 0.174341 0.670038
O5    O     O_R   0.587510 0.175890 0.993210 -0.539085
O6    O     O_R   0.412490 0.675890 0.006790 -0.539085
O7    O     O_R   0.536540 0.008150 0.130100 -0.537116
O8    O     O_R   0.463460 0.508150 0.869900 -0.537122
C3    C     C_R   0.612938 0.344940 0.997375 0.721390
C4    C     C_R   0.387061 0.844940 0.002624 0.721386
O9    O     O_3   0.483140 0.340040 0.044760 -0.373916
O10   O     O_3   0.516860 0.840040 0.955240 -0.373922
V1    V     V_3+5 0.503130 0.064190 0.991700 1.483458
V2    V     V_3+5 0.496870 0.564190 0.008300 1.483454
C5    C     C_2   0.214056 0.727684 0.003671 -0.089699
C6    C     C_2   0.785937 0.227694 0.996295 -0.089725
C7    C     C_2   0.180298 0.886650 0.996181 -0.248530
C8    C     C_2   0.819703 0.386651 0.003823 -0.248528
H1    H     H_    0.191009 0.597014 0.009677 0.144708
H2    H     H_    0.808977 0.097038 0.990249 0.144693
H3    H     H_    0.201793 0.018714 0.988951 0.136797
H4    H     H_    0.798214 0.518702 0.011089 0.136818
C9    C     C_2   0.281950 0.714706 0.003450 -0.097823
C10   C     C_2   0.718044 0.214714 0.996519 -0.097819
C11   C     C_2   0.320025 0.861437 0.003878 -0.274838
C12   C     C_2   0.679975 0.361440 0.996123 -0.274850
H5    H     H_    0.301091 0.575835 0.003591 0.146257
H6    H     H_    0.698897 0.075845 0.996350 0.146265
H7    H     H_    0.302182 0.001138 0.004805 0.138434
H8    H     H_    0.697823 0.501139 0.995220 0.138437
C13   C     C_R   0.927769 0.881041 0.722734 -0.087309
C14   C     C_R   0.072231 0.381038 0.277266 -0.087309
C15   C     C_R   0.569800 0.856201 0.277339 -0.150485
C16   C     C_R   0.430201 0.356206 0.722661 -0.150490
C17   C     C_R   0.933631 0.776518 0.570413 -0.047439
C18   C     C_R   0.066371 0.276516 0.429588 -0.047437
C19   C     C_R   0.963500 0.810784 0.666715 0.203072
C20   C     C_R   0.036501 0.310781 0.333286 0.203072
C21   C     C_R   0.862482 0.911154 0.684343 -0.248666
C22   C     C_R   0.137518 0.411150 0.315656 -0.248666
C23   C     C_R   0.830656 0.877632 0.588208 0.097796
C24   C     C_R   0.169346 0.377631 0.411791 0.097795
C25   C     C_R   0.868363 0.828797 0.528705 -0.006500
C26   C     C_R   0.131638 0.328799 0.471296 -0.006500
C27   C     C_R   0.762530 0.889979 0.549894 0.031852
C28   C     C_R   0.237471 0.389979 0.450105 0.031852
C29   C     C_R   0.733366 0.868799 0.451851 0.047350
C30   C     C_R   0.266635 0.368803 0.548149 0.047349
C31   C     C_R   0.773450 0.856730 0.393639 -0.153026
C32   C     C_R   0.226552 0.356738 0.606361 -0.153025
C33   C     C_R   0.839673 0.838166 0.429874 -0.023996
C34   C     C_R   0.160328 0.338173 0.570126 -0.023993
C35   C     C_R   0.722697 0.922990 0.606729 -0.207718
C36   C     C_R   0.277304 0.422991 0.393271 -0.207718
C37   C     C_R   0.656727 0.939305 0.570238 0.349009
C38   C     C_R   0.343274 0.439307 0.429762 0.349006
C39   C     C_R   0.625790 0.905741 0.473285 -0.035231
C40   C     C_R   0.374212 0.405744 0.526715 -0.035239
C41   C     C_R   0.665093 0.870240 0.413870 0.011103
C42   C     C_R   0.334908 0.370243 0.586130 0.011102
C43   C     C_R   0.557738 0.906015 0.432649 0.409401
C44   C     C_R   0.442263 0.406018 0.567350 0.409412
C45   C     C_R   0.530622 0.898848 0.333684 -0.117672
C46   C     C_R   0.469380 0.398856 0.666316 -0.117697
C47   C     C_R   0.635051 0.833595 0.317709 -0.166558
C48   C     C_R   0.364950 0.333596 0.682291 -0.166558
H9    H     H_    0.661275 0.789172 0.270840 0.117030
H10   H     H_    0.338726 0.289171 0.729158 0.117030
H11   H     H_    0.838103 0.960219 0.732600 0.111331
H12   H     H_    0.161898 0.460212 0.267398 0.111333
H13   H     H_    0.754530 0.872012 0.318548 0.155082
H14   H     H_    0.245471 0.372024 0.681452 0.155083
H15   H     H_    0.741479 0.940974 0.681521 0.151967
H16   H     H_    0.258521 0.440975 0.318478 0.151970
O11   O     O_R   0.036450 0.233070 0.130130 -0.532391
O12   O     O_R   0.963550 0.733070 0.869870 -0.532391
O13   O     O_R   0.912470 0.560570 0.006790 -0.541813
O14   O     O_R   0.087530 0.060570 0.993210 -0.541813
C49   C     C_R   0.887000 0.391898 0.002584 0.758977
C50   C     C_R   0.112999 0.891897 0.997416 0.758976
O15   O     O_R   0.032920 0.562940 0.138050 -0.537521
O16   O     O_R   0.967080 0.062940 0.861950 -0.537522
O17   O     O_R   0.084790 0.730500 0.002090 -0.538283
O18   O     O_R   0.915210 0.230500 0.997910 -0.538281
C51   C     C_R   0.044702 0.393997 0.174784 0.750714
C52   C     C_R   0.955298 0.893997 0.825216 0.750711
O19   O     O_3   0.016820 0.396170 0.955260 -0.374745
O20   O     O_3   0.983180 0.896170 0.044740 -0.374742
V3    V     V_3+5 0.996880 0.672090 0.008300 1.515739
V4    V     V_3+5 0.003120 0.172090 0.991700 1.515739
Br1   Br    Br    0.052858 0.754994 0.724489 -0.519669
Br2   Br    Br    0.947143 0.254992 0.275514 -0.519669
Br3   Br    Br    0.499153 0.871954 0.506263 -0.332775
Br4   Br    Br    0.500846 0.371948 0.493733 -0.332739
C53   C     C_2   0.877809 0.852756 0.362556 0.547568
H17   H     H_    0.926960 0.898941 0.386267 0.049063
O21   O     O_2   0.854510 0.815181 0.279365 -0.505888
C54   C     C_2   0.122192 0.352771 0.637443 0.547562
H18   H     H_    0.073039 0.398945 0.613729 0.049066
O22   O     O_2   0.145491 0.315215 0.720637 -0.505891
C55   C     C_2   0.461212 0.930700 0.287756 0.587511
H19   H     H_    0.437213 0.865024 0.221035 -0.001062
O23   O     O_2   0.430630 0.036588 0.321598 -0.464491
C56   C     C_2   0.538790 0.430717 0.712246 0.587566
H20   H     H_    0.562784 0.365112 0.778988 -0.001122
O24   O     O_2   0.569379 0.536537 0.678379 -0.464487
Br5   Br    Br    0.617757 0.034275 0.660916 -0.456491
Br6   Br    Br    0.382243 0.534281 0.339083 -0.456497
C57   C     C_2   0.968528 0.660982 0.519422 0.345786
H21   H     H_    0.019250 0.680011 0.530805 0.125035
O25   O     O_2   0.941035 0.538013 0.466404 -0.523901
C58   C     C_2   0.031476 0.160977 0.480580 0.345789
H22   H     H_    0.980753 0.180000 0.469197 0.125032
O26   O     O_2   0.058970 0.038012 0.533601 -0.523902

loop_
_geom_bond_atom_site_label_1
_geom_bond_atom_site_label_2
_ccdc_geom_bond_type
O15   C51   A    
C43   C45   A    
O11   V4    S    
O4    V2    S    
C36   H16   S    
C57   H21   S    
C14   C22   A    
O2    C4    A    
C2    O7    A    
C53   H17   S    
O17   V3    S    
C27   C29   A    
O5    C3    A    
C13   C19   A    
C14   C20   A    
C13   C52   S    
C32   H14   S    
C18   C58   S    
C16   C46   A    
C37   C39   A    
C56   H20   S    
C15   C45   A    
C38   C40   A    
C1    C16   S    
C43   Br3   S    
C2    C15   S    
C40   C42   A    
C19   Br1   S    
C37   Br5   S    
C57   O25   D    
C8    H4    S    
C24   C26   A    
C29   C31   A    
C6    C10   S    
C30   C32   A    
C7    C50   S    
O13   V3    S    
C49   O18   A    
C21   H11   S    
C35   H15   S    
C28   C30   A    
C25   C33   A    
O6    V2    S    
C6    H2    S    
C8    C49   S    
C21   C23   A    
C34   C54   S    
C22   C24   A    
C46   C56   S    
C54   O22   D    
C53   O21   D    
C32   C34   A    
C58   H22   S    
C9    H5    S    
C39   C41   A    
C29   C41   A    
C4    C11   S    
C11   H7    S    
O16   C52   A    
C12   H8    S    
C44   Br4   S    
O14   C50   A    
O13   C49   A    
C33   C53   S    
C5    H1    S    
C47   H9    S    
C44   C46   A    
O14   V4    S    
C7    H3    S    
C41   C47   A    
C15   C47   A    
O6    C4    A    
C26   C34   A    
C22   H12   S    
C55   O23   D    
O1    V2    S    
O19   V4    S    
O2    V1    S    
C23   C25   A    
O4    C2    A    
C10   H6    S    
C35   C37   A    
C30   C42   A    
C45   C55   S    
C17   C25   A    
O3    V1    S    
C27   C35   A    
O12   C52   A    
C28   C36   A    
C38   Br6   S    
C10   C12   D    
C31   H13   S    
C20   Br2   S    
O3    C1    A    
C58   O26   D    
C16   C48   A    
O12   V3    S    
C9    C11   D    
C50   O17   A    
O15   V3    S    
C39   C43   A    
C42   C48   A    
C40   C44   A    
C13   C21   A    
O7    V1    S    
C5    C9    S    
C1    O8    A    
C17   C19   A    
O8    V2    S    
C18   C20   A    
O20   V3    S    
C56   O24   D    
C3    C12   S    
O5    V1    S    
C54   H18   S    
C5    C7    D    
C36   C38   A    
C6    C8    D    
C14   C51   S    
C18   C26   A    
C17   C57   S    
O11   C51   A    
C48   H10   S    
O9    V2    S    
C55   H19   S    
O10   V1    S    
O18   V4    S    
O1    C3    A    
O16   V4    S    
C31   C33   A    
C23   C27   A    
C24   C28   A    
