data_mof_unit_48418.cif
_audit_creation_date              2012-12-10T17:33:50-0500
_audit_creation_method            fapswitch 2.2
_symmetry_space_group_name_H-M    P1
_symmetry_Int_Tables_number       1
_space_group_crystal_system       triclinic
_cell_length_a                    10.651735
_cell_length_b                    11.997311
_cell_length_c                    12.807559
_cell_angle_alpha                 94.126616
_cell_angle_beta                  90.35072
_cell_angle_gamma                 86.219941
_cell_volume                      1628.9096061

loop_
_atom_site_label
_atom_site_type_symbol
_atom_type_description
_atom_site_fract_x
_atom_site_fract_y
_atom_site_fract_z
_atom_type_partial_charge
C1    C     C_R   0.499927 0.522968 0.700340 0.905205
C2    C     C_3   0.121839 0.498965 0.497979 0.090624
C3    C     C_3   0.067431 0.554943 0.398878 -0.051408
C4    C     C_3   0.070278 0.567945 0.597488 -0.488379
C5    C     C_R   0.509887 0.461903 0.188504 -0.040247
C6    C     C_R   0.499354 0.539405 0.812150 -0.092870
C7    C     C_R   0.389280 0.614079 0.967950 -0.277076
C8    C     C_R   0.405743 0.613283 0.860806 0.064822
C9    C     C_R   0.581433 0.470512 0.870442 -0.006721
C10   C     C_R   0.555664 0.464093 0.976371 0.163424
C11   C     C_R   0.460680 0.538138 0.024837 0.129877
C12   C     C_R   0.742255 0.500222 0.501013 0.836927
C13   C     C_R   0.439138 0.536652 0.130586 -0.250218
C14   C     C_R   0.598389 0.383519 0.141270 -0.228314
C15   C     C_R   0.622063 0.384968 0.035203 -0.189359
C16   C     C_R   0.379998 0.954692 0.404792 -0.386779
C17   C     C_R   0.391333 0.838160 0.413219 0.294866
C18   C     C_R   0.552381 0.858536 0.540921 -0.093329
C19   C     C_R   0.544093 0.975929 0.534724 0.087094
C20   C     C_R   0.456462 0.024279 0.465704 0.076948
C21   C     C_R   0.447694 0.141469 0.459381 -0.043625
C22   C     C_R   0.608888 0.162224 0.586418 0.030260
C23   C     C_R   0.501777 0.477137 0.299667 0.852334
C24   C     C_R   0.620806 0.046041 0.595457 -0.325254
C25   C     C_R   0.257920 0.499545 0.499540 0.855385
C26   C     C_3   0.937701 0.378559 0.507068 -0.451984
C27   C     C_3   0.080086 0.377298 0.501225 -0.406846
C28   C     C_3   0.922663 0.548050 0.395378 -0.042890
C29   C     C_3   0.925012 0.572239 0.597093 -0.089527
C30   C     C_3   0.878727 0.500178 0.499072 0.098079
H1    H     H_    0.902624 0.318860 0.444959 0.185750
H2    H     H_    0.104490 0.653893 0.601909 0.184484
H3    H     H_    0.880115 0.634957 0.391720 0.145805
H4    H     H_    0.085159 0.645641 0.408468 0.132331
H5    H     H_    0.369583 0.595840 0.168719 0.141741
H6    H     H_    0.653501 0.325628 0.187240 0.150795
H7    H     H_    0.692730 0.324919 0.000282 0.156742
H8    H     H_    0.380811 0.180025 0.406677 0.120849
H9    H     H_    0.311918 0.990084 0.351070 0.142468
H10   H     H_    0.120481 0.338234 0.571397 0.191716
H11   H     H_    0.114374 0.323159 0.431883 0.169509
H12   H     H_    0.894025 0.534022 0.668692 0.136964
N1    N     N_R   0.523380 0.207800 0.519350 -0.101993
N2    N     N_R   0.476620 0.792180 0.480650 -0.096406
O1    O     O_R   0.506240 0.421700 0.658830 -0.614176
O2    O     O_R   0.491240 0.609310 0.646410 -0.598584
O3    O     O_R   0.692710 0.406190 0.506230 -0.644466
O4    O     O_R   0.677700 0.593810 0.493810 -0.606657
O5    O     O_R   0.508760 0.390690 0.353590 -0.625309
O6    O     O_R   0.493760 0.578300 0.341170 -0.601770
O7    O     O_R   0.322300 0.406190 0.506190 -0.631475
O8    O     O_R   0.307290 0.593810 0.493770 -0.612260
Zn1   Zn    Zn3+2 0.510020 0.374730 0.508290 0.930380
Zn2   Zn    Zn3+2 0.489980 0.625270 0.491710 0.961669
H13   H     H_    0.316983 0.670687 0.005761 0.144600
N3    N     N_3   0.323375 0.683457 0.800757 -0.441451
H14   H     H_    0.331385 0.766593 0.829182 0.187852
H15   H     H_    0.230890 0.663269 0.813224 0.169190
N4    N     N_3   0.689819 0.407261 0.823771 -0.463669
H16   H     H_    0.708664 0.431816 0.749261 0.172744
H17   H     H_    0.768813 0.429883 0.867208 0.167691
H18   H     H_    0.910891 0.346774 0.582950 0.177053
H19   H     H_    0.668239 0.216239 0.633089 0.137402
H20   H     H_    0.689308 0.011500 0.649229 0.142997
N5    N     N_3   0.313109 0.767387 0.350930 -0.409894
H21   H     H_    0.219438 0.793857 0.367479 0.148077
H22   H     H_    0.329253 0.779734 0.272296 0.155854
H23   H     H_    0.618987 0.819918 0.593773 0.147482
N6    N     N_3   0.880984 0.484947 0.299930 -0.434780
H24   H     H_    0.913642 0.400936 0.298233 0.193098
H25   H     H_    0.782773 0.488627 0.297159 0.174105
N7    N     N_3   0.127923 0.510139 0.300192 -0.439153
H26   H     H_    0.137516 0.422846 0.296076 0.183460
H27   H     H_    0.218254 0.538733 0.296982 0.178304
N8    N     N_3   0.870782 0.688391 0.601956 -0.456367
H28   H     H_    0.913606 0.733642 0.546848 0.182101
H29   H     H_    0.890457 0.726585 0.675715 0.178840
H30   H     H_    0.106426 0.528439 0.668800 0.165337

loop_
_geom_bond_atom_site_label_1
_geom_bond_atom_site_label_2
_ccdc_geom_bond_type
C29   H12   S    
C2    C4    S    
C19   C20   A    
C7    H13   S    
C12   O4    A    
C8    N3    S    
C6    C9    A    
C7    C8    A    
C7    C11   A    
C26   C27   S    
O6    Zn2   S    
C3    C28   S    
C13   H5    S    
C10   C15   A    
C14   H6    S    
C1    O2    A    
C23   O5    A    
C18   H23   S    
N3    H14   S    
C18   C19   A    
N6    H25   S    
C15   H7    S    
C22   H19   S    
C21   N1    A    
N1    Zn1   S    
C21   H8    S    
C28   N6    S    
C16   C17   A    
N5    H22   S    
C2    C27   S    
C9    C10   A    
C5    C13   A    
C4    C29   S    
O3    Zn1   S    
O1    Zn1   S    
N4    H16   S    
C24   H20   S    
C12   O3    A    
O8    Zn2   S    
N4    H17   S    
C1    C6    S    
N7    H27   S    
C23   O6    A    
C6    C8    A    
C3    H4    S    
C9    N4    S    
O4    Zn2   S    
N8    H28   S    
C25   O7    A    
C4    H30   S    
C29   C30   S    
C18   N2    A    
C27   H11   S    
C22   N1    A    
C5    C23   S    
C27   H10   S    
C16   C20   A    
O2    Zn2   S    
N8    H29   S    
C5    C14   A    
C4    H2    S    
C28   H3    S    
C26   C30   S    
C22   C24   A    
C12   C30   S    
N7    H26   S    
C29   N8    S    
C17   N5    S    
C28   C30   S    
C19   C24   A    
C26   H18   S    
C17   N2    A    
C11   C13   A    
C1    O1    A    
O5    Zn1   S    
N3    H15   S    
C2    C3    S    
C2    C25   S    
N6    H24   S    
C25   O8    A    
C10   C11   A    
C16   H9    S    
N2    Zn2   S    
C26   H1    S    
C3    N7    S    
C20   C21   A    
N5    H21   S    
C14   C15   A    
O7    Zn1   S    
