data_mof_unit_57295.cif
_audit_creation_date              2012-12-10T19:46:00-0500
_audit_creation_method            fapswitch 2.2
_symmetry_space_group_name_H-M    P1
_symmetry_Int_Tables_number       1
_space_group_crystal_system       triclinic
_cell_length_a                    10.773244
_cell_length_b                    14.918784
_cell_length_c                    14.253677
_cell_angle_alpha                 91.926958
_cell_angle_beta                  105.241007
_cell_angle_gamma                 90.988808
_cell_volume                      2208.27035278

loop_
_atom_site_label
_atom_site_type_symbol
_atom_type_description
_atom_site_fract_x
_atom_site_fract_y
_atom_site_fract_z
_atom_type_partial_charge
C1    C     C_R   0.498755 0.327175 0.498211 0.922390
C2    C     C_R   0.447952 0.427323 0.780838 -0.041750
C3    C     C_R   0.615819 0.529394 0.131345 -0.203193
C4    C     C_R   0.454969 0.420028 0.880829 -0.217106
C5    C     C_R   0.516811 0.488355 0.056035 0.069377
C6    C     C_R   0.515944 0.488185 0.949554 0.082736
C7    C     C_R   0.258129 0.497165 0.458866 0.846172
C8    C     C_R   0.741539 0.496924 0.541036 0.798713
C9    C     C_2   0.119588 0.485895 0.435429 0.489952
C10   C     C_2   0.878914 0.484761 0.564388 0.497825
C11   C     C_2   0.067105 0.461677 0.506319 -0.225789
C12   C     C_R   0.499402 0.671832 0.501276 0.975685
C13   C     C_2   0.930264 0.462045 0.491430 -0.242140
C14   C     C_R   0.479898 0.092766 0.574936 -0.112334
C15   C     C_R   0.568640 0.909740 0.470929 -0.093638
C16   C     C_R   0.494208 0.184778 0.578428 -0.251964
C17   C     C_R   0.581903 0.818333 0.475823 -0.242379
C18   C     C_R   0.487598 0.229969 0.492861 -0.232741
C19   C     C_R   0.488363 0.766833 0.501784 -0.204533
C20   C     C_R   0.464378 0.181990 0.402842 0.555068
C21   C     C_R   0.379915 0.805205 0.521587 0.576254
C22   C     C_R   0.443243 0.089431 0.398215 0.268322
C23   C     C_R   0.454788 0.045287 0.485742 -0.023926
C24   C     C_R   0.362778 0.897235 0.513009 0.292994
C25   C     C_R   0.459441 0.949015 0.488296 -0.048110
C26   C     C_R   0.410813 0.453676 0.082156 -0.271167
C27   C     C_R   0.567621 0.561546 0.914054 -0.272993
C28   C     C_R   0.402369 0.458617 0.179029 0.558941
C29   C     C_R   0.561426 0.567340 0.814595 0.563066
C30   C     C_R   0.605542 0.534406 0.228367 -0.025972
F1    F     F_    0.952401 0.498864 0.657453 -0.603299
F2    F     F_    0.045583 0.503831 0.345277 -0.603911
F3    F     F_    0.464101 0.224482 0.320017 -0.582989
F4    F     F_    0.290389 0.752217 0.546145 -0.597713
H1    H     H_    0.871118 0.450790 0.417202 0.203638
H2    H     H_    0.609733 0.616483 0.964360 0.201730
H3    H     H_    0.683325 0.565715 0.284468 0.179533
H4    H     H_    0.401416 0.373829 0.730025 0.160800
H5    H     H_    0.594945 0.051129 0.263177 0.368850
H6    H     H_    0.285166 0.935598 0.688148 0.376141
H7    H     H_    0.187102 0.331956 0.292765 0.379756
H8    H     H_    0.748079 0.709531 0.691193 0.375482
H9    H     H_    0.125598 0.448345 0.578942 0.204309
H10   H     H_    0.701296 0.557345 0.115813 0.193066
H11   H     H_    0.413172 0.360969 0.903906 0.178967
H12   H     H_    0.491192 0.058099 0.642175 0.196490
H13   H     H_    0.643383 0.950241 0.453391 0.194152
H14   H     H_    0.512755 0.220224 0.648520 0.202620
H15   H     H_    0.665298 0.787771 0.460362 0.192683
H16   H     H_    0.331104 0.425599 0.025322 0.201728
N1    N     N_R   0.500000 0.499980 0.252470 -0.152036
N2    N     N_R   0.500000 0.500020 0.747530 -0.146130
O1    O     O_R   0.500010 0.369070 0.579480 -0.659383
O2    O     O_2   0.336484 0.090124 0.204049 -0.156870
O3    O     O_3   0.541241 0.995847 0.259168 -0.505822
O4    O     O_2   0.179764 0.020856 0.464190 -0.226960
O5    O     O_2   0.113185 0.877036 0.514887 -0.180665
O6    O     O_3   0.252693 0.987012 0.647346 -0.516330
O7    O     O_2   0.174468 0.494764 0.208153 -0.213283
O8    O     O_2   0.182270 0.362083 0.106202 -0.267035
O9    O     O_3   0.275217 0.349437 0.290147 -0.484678
O10   O     O_2   0.524247 0.729204 0.738443 -0.279762
O11   O     O_2   0.712186 0.715266 0.875149 -0.265800
O12   O     O_R   0.499990 0.630930 0.420520 -0.617892
O13   O     O_3   0.725885 0.649237 0.710088 -0.500669
O14   O     O_R   0.500010 0.369060 0.420520 -0.517385
O15   O     O_R   0.499990 0.630940 0.579480 -0.515529
O16   O     O_R   0.317810 0.500010 0.549800 -0.649540
O17   O     O_R   0.682190 0.499990 0.450200 -0.683902
O18   O     O_R   0.317810 0.500000 0.390840 -0.519300
O19   O     O_R   0.682190 0.500000 0.609160 -0.525252
O20   O     O_2   0.319325 0.950043 0.284141 -0.209600
S1    S     S_3+6 0.404810 0.030523 0.283252 0.132597
S2    S     S_3+6 0.221413 0.945675 0.532120 0.119639
S3    S     S_3+6 0.254658 0.416297 0.195266 0.118668
S4    S     S_3+6 0.630645 0.667991 0.784397 0.083768
Zn1   Zn    Zn3+2 0.500000 0.500010 0.606140 1.061610
Zn2   Zn    Zn3+2 0.500000 0.499990 0.393860 1.067749

loop_
_geom_bond_atom_site_label_1
_geom_bond_atom_site_label_2
_ccdc_geom_bond_type
O5    S2    D    
C30   N1    A    
O18   Zn2   S    
O1    Zn1   S    
O15   Zn1   S    
C15   H13   S    
C16   H14   S    
C7    O18   A    
C14   H12   S    
C29   S4    S    
O9    S3    S    
C1    C18   S    
O13   S4    S    
C19   C21   A    
C13   H1    S    
C26   H16   S    
C5    C6    S    
C12   O12   A    
C28   N1    A    
C15   C25   A    
C27   C29   A    
O11   S4    D    
C15   C17   A    
C1    O1    A    
C9    F2    S    
C7    O16   A    
C10   F1    S    
H5    O3    S    
H8    O13   S    
C11   H9    S    
H7    O9    S    
O10   S4    D    
O17   Zn2   S    
C4    H11   S    
O14   Zn2   S    
C12   O15   A    
C3    H10   S    
O4    S2    D    
H6    O6    S    
C24   C25   A    
C4    C6    A    
C17   H15   S    
C21   F4    S    
C30   H3    S    
C14   C23   A    
C3    C30   A    
C2    C4    A    
O2    S1    D    
C2    H4    S    
C6    C27   A    
C1    O14   A    
C8    O17   A    
C9    C11   D    
C2    N2    A    
C20   F3    S    
C8    C10   S    
C20   C22   A    
C14   C16   A    
N2    Zn1   S    
O7    S3    D    
O19   Zn1   S    
O6    S2    S    
O16   Zn1   S    
C7    C9    S    
C8    O19   A    
O12   Zn2   S    
O20   S1    D    
C3    C5    A    
C10   C13   D    
C27   H2    S    
O8    S3    D    
C26   C28   A    
N1    Zn2   S    
C11   C13   S    
C24   S2    S    
C12   C19   S    
C17   C19   A    
C18   C20   A    
C23   C25   S    
C5    C26   A    
O3    S1    S    
C16   C18   A    
C21   C24   A    
C22   C23   A    
C22   S1    S    
C28   S3    S    
C29   N2    A    
