data_mof_unit_31077.cif
_audit_creation_date              2012-12-10T17:43:40-0500
_audit_creation_method            fapswitch 2.2
_symmetry_space_group_name_H-M    P1
_symmetry_Int_Tables_number       1
_space_group_crystal_system       triclinic
_cell_length_a                    14.962933
_cell_length_b                    10.706567
_cell_length_c                    9.94659
_cell_angle_alpha                 92.721983
_cell_angle_beta                  89.519493
_cell_angle_gamma                 92.854292
_cell_volume                      1589.65864716

loop_
_atom_site_label
_atom_site_type_symbol
_atom_type_description
_atom_site_fract_x
_atom_site_fract_y
_atom_site_fract_z
_atom_type_partial_charge
C1    C     C_R   0.509030 0.261883 0.497469 0.882666
C2    C     C_R   0.183784 0.413635 0.406208 0.482348
C3    C     C_R   0.231090 0.491623 0.501454 -0.151853
C4    C     C_R   0.326986 0.498258 0.500351 0.958343
C5    C     C_R   0.186974 0.563150 0.599505 -0.305200
C6    C     C_R   0.605490 0.144814 0.709821 -0.317311
C7    C     C_R   0.616825 0.097770 0.836166 0.402722
C8    C     C_R   0.578884 0.979881 0.863079 0.361299
C9    C     C_R   0.537252 0.905902 0.759601 -0.331751
C10   C     C_R   0.530988 0.949449 0.627413 0.061216
C11   C     C_R   0.554962 0.075590 0.609484 0.042896
C12   C     C_R   0.908552 0.562702 0.599658 0.119736
C13   C     C_R   0.523661 0.130817 0.493971 -0.097175
C14   C     C_R   0.490482 0.058702 0.384378 -0.189761
C15   C     C_R   0.480722 0.931915 0.392148 -0.168045
C16   C     C_R   0.498626 0.740727 0.504003 0.858496
C17   C     C_R   0.500005 0.875668 0.512076 -0.092036
C18   C     C_R   0.410851 0.306882 0.136192 -0.091640
C19   C     C_R   0.388645 0.193363 0.069794 -0.214694
C20   C     C_R   0.394260 0.183665 0.931690 -0.167148
C21   C     C_R   0.411581 0.291417 0.860347 0.422184
C22   C     C_R   0.455119 0.401280 0.924927 0.099056
C23   C     C_R   0.949488 0.348721 0.300299 -0.188755
C24   C     C_R   0.455597 0.403916 0.069423 0.130901
C25   C     C_R   0.544661 0.590588 0.075321 -0.021872
C26   C     C_R   0.544905 0.590324 0.932579 -0.084518
C27   C     C_R   0.672876 0.499235 0.499454 0.907388
C28   C     C_R   0.816281 0.563842 0.598147 -0.310524
C29   C     C_R   0.768288 0.494155 0.498549 -0.182148
C30   C     C_R   0.810952 0.418700 0.400710 0.456358
C31   C     C_R   0.904193 0.418908 0.399380 0.004991
C32   C     C_R   0.952915 0.490464 0.499838 0.024646
C33   C     C_3   0.740024 0.229160 0.355417 -0.186344
C34   C     C_R   0.042029 0.346923 0.302180 -0.189080
C35   C     C_3   0.237474 0.219723 0.377730 -0.337315
C36   C     C_R   0.090846 0.416511 0.402196 0.006617
C37   C     C_R   0.046113 0.489839 0.500713 0.017327
C38   C     C_R   0.094490 0.562134 0.600649 0.118246
C39   C     C_R   0.049817 0.633494 0.699042 -0.178533
C40   C     C_R   0.957024 0.633565 0.698722 -0.175948
Cl1   Cl    Cl    0.672732 0.192580 0.961483 -0.559433
Cl2   Cl    Cl    0.581009 0.924067 0.026467 -0.662957
Cl3   Cl    Cl    0.332369 0.289370 0.732187 -0.650798
H1    H     H_    0.781556 0.620544 0.673269 0.182203
H2    H     H_    0.913696 0.294563 0.221321 0.207928
H3    H     H_    0.075122 0.291187 0.224783 0.202167
H4    H     H_    0.224942 0.620985 0.673623 0.176618
H5    H     H_    0.086622 0.689220 0.775905 0.151402
H6    H     H_    0.923185 0.689304 0.775418 0.156362
H7    H     H_    0.469170 0.100468 0.294131 0.184038
H8    H     H_    0.704651 0.236573 0.454011 0.102490
H9    H     H_    0.800978 0.175023 0.365142 0.146442
H10   H     H_    0.694473 0.175919 0.283594 0.247196
H11   H     H_    0.255628 0.148630 0.299100 0.178245
H12   H     H_    0.634754 0.237054 0.691754 0.196050
H13   H     H_    0.174275 0.183668 0.425549 0.179239
H14   H     H_    0.292393 0.228309 0.452417 0.209697
H15   H     H_    0.504791 0.819837 0.789143 0.211964
H16   H     H_    0.455687 0.878085 0.304117 0.194263
H17   H     H_    0.581804 0.664327 0.131969 0.187771
H18   H     H_    0.391241 0.317717 0.238815 0.234098
H19   H     H_    0.360302 0.115463 0.123926 0.154362
H20   H     H_    0.367190 0.098168 0.881244 0.182710
H21   H     H_    0.583252 0.662762 0.882533 0.163878
N1    N     N_R   0.499150 0.498800 0.142780 -0.125371
N2    N     N_R   0.499120 0.498720 0.857170 -0.121338
O1    O     O_R   0.500000 0.316780 0.614690 -0.590194
O2    O     O_3   0.228113 0.334882 0.316913 -0.624261
O3    O     O_R   0.499990 0.316750 0.385360 -0.646709
O4    O     O_R   0.367850 0.499980 0.614680 -0.563470
O5    O     O_R   0.367840 0.499960 0.385350 -0.618221
O6    O     O_R   0.500010 0.683250 0.614640 -0.644265
O7    O     O_R   0.500000 0.683220 0.385310 -0.623938
O8    O     O_R   0.632160 0.500040 0.614650 -0.635084
O9    O     O_R   0.632150 0.500020 0.385320 -0.560162
O10   O     O_3   0.761452 0.347924 0.304742 -0.574615
Zn1   Zn    Zn3+2 0.500010 0.500020 0.653130 0.982051
Zn2   Zn    Zn3+2 0.499990 0.499980 0.346870 0.993858

loop_
_geom_bond_atom_site_label_1
_geom_bond_atom_site_label_2
_ccdc_geom_bond_type
C23   H2    S    
C27   C29   S    
C19   C20   A    
O1    Zn1   S    
C6    H12   S    
C4    O4    A    
C7    C8    A    
C33   H9    S    
C5    H4    S    
O6    Zn1   S    
C12   C28   A    
C18   C24   A    
C21   C22   A    
C28   C29   A    
C8    Cl2   S    
C18   C19   A    
C2    O2    S    
C30   C31   A    
C19   H19   S    
C40   H6    S    
C9    H15   S    
C26   H21   S    
C22   N2    A    
C21   Cl3   S    
C8    C9    A    
O8    Zn1   S    
C16   O6    A    
O7    Zn2   S    
C34   H3    S    
C25   H17   S    
C27   O8    A    
C9    C10   A    
O5    Zn2   S    
C13   C14   A    
C12   C32   A    
C35   H11   S    
O3    Zn2   S    
C27   O9    A    
C33   H10   S    
C38   C39   A    
C16   O7    A    
C26   N2    A    
C25   N1    A    
C39   C40   A    
C16   C17   S    
C25   C26   A    
C28   H1    S    
C1    O3    A    
C23   C31   A    
C12   C40   A    
C37   C38   A    
C30   O10   S    
C33   O10   S    
C31   C32   A    
C23   C34   A    
C32   C37   A    
C24   N1    A    
C22   C24   A    
C1    C13   S    
C3    C4    S    
C6    C11   A    
C2    C36   A    
C15   C17   A    
N2    Zn1   S    
C36   C37   A    
N1    Zn2   S    
C35   H13   S    
C15   H16   S    
C3    C5    A    
C18   H18   S    
C6    C7    A    
C33   H8    S    
C35   H14   S    
C20   H20   S    
C2    C3    A    
C11   C13   A    
C14   H7    S    
C35   O2    S    
C1    O1    A    
C34   C36   A    
C7    Cl1   S    
O9    Zn2   S    
C10   C11   A    
C29   C30   A    
C20   C21   A    
C14   C15   A    
C10   C17   A    
C5    C38   A    
C4    O5    A    
C39   H5    S    
O4    Zn1   S    
