data_mof_unit_11623.cif
_audit_creation_date              2012-12-10T20:07:07-0500
_audit_creation_method            fapswitch 2.2
_symmetry_space_group_name_H-M    P1
_symmetry_Int_Tables_number       1
_space_group_crystal_system       triclinic
_cell_length_a                    19.138436
_cell_length_b                    18.6748
_cell_length_c                    10.682936
_cell_angle_alpha                 84.885634
_cell_angle_beta                  93.522491
_cell_angle_gamma                 89.103307
_cell_volume                      3794.9074548

loop_
_atom_site_label
_atom_site_type_symbol
_atom_type_description
_atom_site_fract_x
_atom_site_fract_y
_atom_site_fract_z
_atom_type_partial_charge
C1    C     C_R   0.365706 0.500551 0.501175 0.858799
C2    C     C_R   0.928186 0.502870 0.561332 -0.259552
C3    C     C_R   0.535216 0.724030 0.593813 0.073125
C4    C     C_R   0.443472 0.276442 0.446808 0.086687
C5    C     C_R   0.457771 0.730511 0.411419 0.037417
C6    C     C_R   0.558707 0.268687 0.542080 0.032771
C7    C     C_R   0.523362 0.798929 0.599913 0.343046
C8    C     C_R   0.438107 0.200813 0.467642 0.333990
C9    C     C_R   0.470496 0.805296 0.389869 0.363035
C10   C     C_R   0.562134 0.195338 0.515234 0.362192
C11   C     C_R   0.498621 0.842020 0.490514 -0.156694
C12   C     C_R   0.633737 0.499428 0.500940 0.852518
C13   C     C_R   0.499777 0.158373 0.491213 -0.155423
C14   C     C_R   0.450086 0.967811 0.411587 -0.203298
C15   C     C_R   0.548792 0.032839 0.564121 -0.192873
C16   C     C_R   0.551526 0.958297 0.557108 -0.185845
C17   C     C_R   0.452230 0.043025 0.408053 -0.194910
C18   C     C_R   0.500009 0.077274 0.487764 0.180708
C19   C     C_R   0.500507 0.923555 0.484673 0.176252
C20   C     C_R   0.502955 0.503495 0.259407 0.887506
C21   C     C_R   0.497381 0.496270 0.740650 0.882467
C22   C     C_R   0.447882 0.628259 0.079908 -0.182062
C23   C     C_R   0.708335 0.497605 0.515000 -0.005360
C24   C     C_R   0.555427 0.371265 0.917383 -0.172504
C25   C     C_R   0.398086 0.584286 0.850455 -0.137807
C26   C     C_R   0.600425 0.412378 0.151792 -0.127459
C27   C     C_R   0.399941 0.671602 0.002067 -0.186004
C28   C     C_R   0.601340 0.326893 0.997477 -0.174239
C29   C     C_R   0.372405 0.647915 0.890205 -0.172049
C30   C     C_R   0.626568 0.349164 0.111753 -0.157180
C31   C     C_R   0.451136 0.543199 0.923681 0.084374
C32   C     C_R   0.548206 0.454129 0.077342 0.087501
C33   C     C_R   0.469902 0.560510 0.045498 0.081016
C34   C     C_R   0.290906 0.501586 0.515494 -0.021872
C35   C     C_R   0.530833 0.437780 0.954102 0.071291
C36   C     C_R   0.488182 0.487731 0.874535 -0.230887
C37   C     C_R   0.512230 0.510804 0.125516 -0.246868
C38   C     C_R   0.740865 0.483529 0.635482 -0.253035
C39   C     C_R   0.260162 0.558882 0.570161 -0.258400
C40   C     C_R   0.250386 0.443962 0.481016 -0.237818
C41   C     C_R   0.746953 0.512479 0.409809 -0.249435
C42   C     C_R   0.813168 0.484949 0.651282 -0.138019
C43   C     C_R   0.189637 0.557984 0.591816 -0.134407
C44   C     C_R   0.179411 0.443994 0.499656 -0.141211
C45   C     C_R   0.961763 0.565261 0.515425 0.316180
C46   C     C_R   0.819239 0.513567 0.425353 -0.124109
C47   C     C_R   0.852346 0.500359 0.546209 0.240868
C48   C     C_R   0.148932 0.501053 0.554986 0.243477
C49   C     C_3   0.925940 0.678831 0.552608 0.137694
C50   C     C_3   0.867968 0.668582 0.645114 -0.375288
C51   C     C_3   0.863000 0.731957 0.725100 -0.972113
C52   C     C_3   0.081035 0.386527 0.814359 0.136288
C53   C     C_3   0.146243 0.424865 0.862507 -0.360894
C54   C     C_3   0.156553 0.414215 0.005815 -0.990815
C55   C     C_3   0.057025 0.625094 0.318219 0.134325
C56   C     C_R   0.040125 0.444538 0.624844 0.313808
C57   C     C_3   0.113914 0.581499 0.261834 -0.375298
C58   C     C_3   0.113692 0.598351 0.119385 -0.982520
C59   C     C_3   0.937147 0.325245 0.585015 0.131800
C60   C     C_3   0.876262 0.330298 0.484073 -0.376244
C61   C     C_3   0.870238 0.261499 0.417489 -0.986987
C62   C     C_3   0.592152 0.686538 0.683106 -0.309109
C63   C     C_3   0.576965 0.681167 0.823208 -0.327939
C64   C     C_3   0.625148 0.625486 0.900411 -0.905943
C65   C     C_3   0.392172 0.314340 0.347999 -0.332991
C66   C     C_3   0.403375 0.289206 0.217288 -0.361538
C67   C     C_R   0.034375 0.563443 0.507590 0.322689
C68   C     C_3   0.358574 0.333534 0.114154 -0.880773
C69   C     C_3   0.389185 0.699471 0.364243 -0.347808
C70   C     C_3   0.335794 0.751600 0.288947 -0.356985
C71   C     C_3   0.267120 0.714088 0.259978 -0.916384
C72   C     C_3   0.621755 0.301589 0.606484 -0.312933
C73   C     C_3   0.662178 0.252966 0.711559 -0.392960
C74   C     C_3   0.718508 0.295110 0.779405 -0.907594
C75   C     C_3   0.473115 0.822002 0.781185 0.064260
C76   C     C_3   0.425759 0.889413 0.757369 -0.336276
C77   C     C_3   0.364697 0.885648 0.842941 -0.985364
C78   C     C_R   0.966894 0.441913 0.614598 0.325136
C79   C     C_3   0.334820 0.174694 0.556469 0.084467
C80   C     C_3   0.354655 0.113353 0.658479 -0.349747
C81   C     C_3   0.308799 0.115393 0.770014 -0.965589
C82   C     C_3   0.501102 0.826888 0.186661 0.067501
C83   C     C_3   0.561785 0.879407 0.190197 -0.339212
C84   C     C_3   0.610359 0.869819 0.084605 -0.958490
C85   C     C_3   0.655707 0.177850 0.396415 0.079287
C86   C     C_3   0.636150 0.122280 0.303613 -0.330548
C87   C     C_3   0.678298 0.131648 0.186846 -0.984354
C88   C     C_R   0.073452 0.503607 0.565037 -0.255431
H1    H     H_    0.664905 0.316566 0.171000 0.125525
H2    H     H_    0.290636 0.603833 0.597925 0.145012
H3    H     H_    0.646288 0.067194 0.350398 0.239990
H4    H     H_    0.579520 0.128112 0.274069 0.213030
H5    H     H_    0.668653 0.186019 0.137580 0.259135
H6    H     H_    0.662274 0.091049 0.121399 0.269266
H7    H     H_    0.735134 0.124048 0.213392 0.267645
H8    H     H_    0.273239 0.399647 0.438141 0.141703
H9    H     H_    0.721193 0.523395 0.316693 0.129986
H10   H     H_    0.838496 0.475199 0.744891 0.157516
H11   H     H_    0.166522 0.602086 0.635449 0.157543
H12   H     H_    0.147967 0.400417 0.468555 0.151999
H13   H     H_    0.849491 0.524592 0.343610 0.146130
H14   H     H_    0.407770 0.945150 0.357555 0.195236
H15   H     H_    0.585484 0.055227 0.630273 0.188124
H16   H     H_    0.593400 0.927999 0.611315 0.190683
H17   H     H_    0.333978 0.680604 0.831140 0.131366
H18   H     H_    0.415663 0.073756 0.342444 0.193778
H19   H     H_    0.917483 0.731807 0.497203 0.161881
H20   H     H_    0.978065 0.680965 0.604941 0.141365
H21   H     H_    0.816822 0.662927 0.592047 0.246131
H22   H     H_    0.879127 0.618860 0.708729 0.211631
H23   H     H_    0.913354 0.738049 0.780222 0.264339
H24   H     H_    0.821008 0.722428 0.791548 0.269279
H25   H     H_    0.850125 0.782390 0.664276 0.266561
H26   H     H_    0.083941 0.329566 0.854760 0.162617
H27   H     H_    0.033001 0.410671 0.849326 0.138034
H28   H     H_    0.618111 0.275343 0.970540 0.149450
H29   H     H_    0.193286 0.403466 0.820999 0.244667
H30   H     H_    0.140815 0.483349 0.832975 0.213567
H31   H     H_    0.110495 0.435983 0.049569 0.270561
H32   H     H_    0.203926 0.442885 0.037533 0.272293
H33   H     H_    0.163860 0.356180 0.037713 0.264717
H34   H     H_    0.060454 0.682434 0.281662 0.165315
H35   H     H_    0.004210 0.607247 0.285405 0.146950
H36   H     H_    0.166124 0.593950 0.304742 0.252647
H37   H     H_    0.104878 0.523178 0.282899 0.210710
H38   H     H_    0.062854 0.583660 0.073699 0.263514
H39   H     H_    0.384884 0.724121 0.026813 0.140001
H40   H     H_    0.156320 0.567085 0.082127 0.277863
H41   H     H_    0.122748 0.656445 0.095529 0.268062
H42   H     H_    0.933411 0.274029 0.645429 0.164785
H43   H     H_    0.987997 0.322461 0.539807 0.146951
H44   H     H_    0.826288 0.340250 0.527944 0.242747
H45   H     H_    0.884784 0.375849 0.412887 0.210720
H46   H     H_    0.919471 0.250531 0.372006 0.267500
H47   H     H_    0.826447 0.267621 0.343884 0.262994
H48   H     H_    0.859370 0.215217 0.485759 0.265499
H49   H     H_    0.617317 0.571246 0.867721 0.262628
H50   H     H_    0.471508 0.651061 0.160669 0.158965
H51   H     H_    0.680767 0.640220 0.891741 0.259597
H52   H     H_    0.613437 0.623557 0.001159 0.256353
H53   H     H_    0.586467 0.733370 0.862369 0.246198
H54   H     H_    0.521785 0.666579 0.834796 0.249191
H55   H     H_    0.603047 0.632489 0.657475 0.254542
H56   H     H_    0.641661 0.716022 0.670985 0.169131
H57   H     H_    0.302223 0.329197 0.132478 0.262377
H58   H     H_    0.373461 0.390950 0.109877 0.265063
H59   H     H_    0.366964 0.313213 0.021545 0.255941
H60   H     H_    0.459387 0.294872 0.196433 0.236378
H61   H     H_    0.536745 0.349952 0.831615 0.168786
H62   H     H_    0.389707 0.231692 0.215209 0.244806
H63   H     H_    0.337686 0.303631 0.373323 0.182005
H64   H     H_    0.398576 0.372344 0.338192 0.258681
H65   H     H_    0.276399 0.667427 0.205012 0.275099
H66   H     H_    0.243177 0.695235 0.348839 0.272381
H67   H     H_    0.229907 0.752313 0.203744 0.257649
H68   H     H_    0.324637 0.797743 0.344188 0.238861
H69   H     H_    0.356253 0.772380 0.198595 0.253184
H70   H     H_    0.398761 0.652708 0.311091 0.230482
H71   H     H_    0.362727 0.680745 0.450216 0.216637
H72   H     H_    0.378097 0.568231 0.760615 0.139758
H73   H     H_    0.759490 0.311778 0.714279 0.276655
H74   H     H_    0.695877 0.343985 0.814455 0.269022
H75   H     H_    0.743393 0.260674 0.860596 0.257742
H76   H     H_    0.625147 0.229915 0.779475 0.212555
H77   H     H_    0.690122 0.208164 0.673766 0.280180
H78   H     H_    0.658662 0.319819 0.534428 0.207294
H79   H     H_    0.602193 0.347297 0.654138 0.240479
H80   H     H_    0.490033 0.815005 0.882638 0.149874
H81   H     H_    0.442381 0.773359 0.762058 0.130689
H82   H     H_    0.456696 0.937915 0.774080 0.237494
H83   H     H_    0.620260 0.427856 0.242368 0.136301
H84   H     H_    0.403864 0.894442 0.658335 0.218869
H85   H     H_    0.333861 0.836680 0.829648 0.261218
H86   H     H_    0.329805 0.933619 0.819327 0.272645
H87   H     H_    0.384100 0.884834 0.943083 0.265800
H88   H     H_    0.278622 0.170151 0.526124 0.166137
H89   H     H_    0.340035 0.227920 0.595782 0.125754
H90   H     H_    0.348544 0.060812 0.618035 0.236076
H91   H     H_    0.410212 0.118000 0.692932 0.213845
H92   H     H_    0.314543 0.167347 0.812431 0.266442
H93   H     H_    0.325051 0.071089 0.842751 0.267803
H94   H     H_    0.710206 0.472741 0.716800 0.136172
H95   H     H_    0.252985 0.108522 0.739311 0.264905
H96   H     H_    0.473508 0.833953 0.092105 0.151260
H97   H     H_    0.521420 0.770198 0.199116 0.124769
H98   H     H_    0.540651 0.935557 0.180313 0.236482
H99   H     H_    0.592454 0.870170 0.282128 0.213688
H100  H     H_    0.631144 0.813638 0.091058 0.265161
H101  H     H_    0.655027 0.906716 0.092644 0.267132
H102  H     H_    0.581893 0.882833 0.991420 0.274818
H103  H     H_    0.713495 0.176645 0.414930 0.168637
H104  H     H_    0.641258 0.233178 0.353484 0.117710
N1    N     N_R   0.500000 0.689440 0.500000 -0.162078
N2    N     N_R   0.500000 0.310560 0.500000 -0.160506
O1    O     O_R   0.398180 0.560840 0.499970 -0.643292
O2    O     O_3   0.079367 0.386234 0.681742 -0.647294
O3    O     O_3   0.067905 0.621977 0.451006 -0.645025
O4    O     O_3   0.932738 0.381900 0.664192 -0.643714
O5    O     O_3   0.534399 0.829216 0.712819 -0.660494
O6    O     O_3   0.373852 0.169103 0.449283 -0.664458
O7    O     O_3   0.452028 0.842510 0.274697 -0.674306
O8    O     O_3   0.625949 0.159869 0.512888 -0.672340
O9    O     O_R   0.601820 0.439160 0.500030 -0.647611
O10   O     O_R   0.601820 0.560840 0.500030 -0.627814
O11   O     O_R   0.398180 0.439160 0.499970 -0.635526
O12   O     O_R   0.499990 0.560810 0.316770 -0.632929
O13   O     O_R   0.500010 0.439190 0.683230 -0.635504
O14   O     O_R   0.500010 0.560810 0.683230 -0.610599
O15   O     O_R   0.499990 0.439190 0.316770 -0.615184
O16   O     O_3   0.922682 0.625514 0.466302 -0.642264
Zn1   Zn    Zn3+2 0.500000 0.581210 0.500000 0.906300
Zn2   Zn    Zn3+2 0.500000 0.418790 0.500000 0.904290

loop_
_geom_bond_atom_site_label_1
_geom_bond_atom_site_label_2
_ccdc_geom_bond_type
C48   C88   S    
C25   C31   A    
C15   C18   A    
C66   C68   S    
C59   H42   S    
C58   H40   S    
C51   H24   S    
C54   H32   S    
C27   C29   A    
C73   C74   S    
C35   C36   A    
C52   O2    S    
C20   O12   A    
C62   H55   S    
C4    C8    A    
C29   H17   S    
C60   H44   S    
C49   H19   S    
C21   C36   S    
C55   O3    S    
C53   C54   S    
C85   H104  S    
C7    C11   A    
C12   C23   S    
C59   H43   S    
C67   C88   A    
C8    C13   A    
C13   C18   S    
C70   H68   S    
C21   O14   A    
C1    O1    A    
C43   H11   S    
C66   H62   S    
C73   H76   S    
C3    C7    A    
C86   H3    S    
C42   H10   S    
C57   H37   S    
C4    C65   S    
C53   H29   S    
C56   C88   A    
C58   H41   S    
C15   C16   A    
C71   H65   S    
C87   H6    S    
C82   H96   S    
C50   H22   S    
O15   Zn2   S    
C56   C78   A    
C17   C18   A    
C12   O9    A    
C76   H84   S    
C5    C69   S    
C28   H28   S    
C64   H52   S    
C56   O2    S    
C27   H39   S    
O12   Zn1   S    
C16   H16   S    
C87   H7    S    
C49   O16   S    
C45   C67   A    
C77   H85   S    
C41   C46   A    
C79   H89   S    
C83   H98   S    
C84   H102  S    
C70   C71   S    
C79   O6    S    
C81   H93   S    
C1    O11   A    
C75   H81   S    
C39   H2    S    
C66   H60   S    
C55   H34   S    
C71   H67   S    
C59   C60   S    
C77   H87   S    
C54   H31   S    
C14   C17   A    
C83   H99   S    
C40   H8    S    
C30   H1    S    
C14   C19   A    
C1    C34   S    
C69   H70   S    
C49   H20   S    
C64   H49   S    
C2    C45   A    
C25   C29   A    
C46   H13   S    
C55   H35   S    
C24   C35   A    
C82   H97   S    
C34   C39   A    
C32   C35   A    
C76   C77   S    
C3    C62   S    
C73   H77   S    
C62   H56   S    
C74   H74   S    
C53   H30   S    
C72   C73   S    
C39   C43   A    
O11   Zn2   S    
C85   C86   S    
C71   H66   S    
C82   C83   S    
C50   H21   S    
C33   C37   A    
C63   C64   S    
C60   C61   S    
C80   H90   S    
C65   H63   S    
C6    C72   S    
C75   C76   S    
C80   H91   S    
O1    Zn1   S    
C62   C63   S    
C2    C78   A    
C82   O7    S    
C9    C11   A    
C83   C84   S    
C11   C19   S    
C25   H72   S    
C31   C33   A    
C50   C51   S    
C63   H53   S    
C84   H101  S    
C51   H25   S    
C32   C37   A    
C76   H82   S    
C10   O8    S    
C75   H80   S    
C68   H59   S    
C9    O7    S    
C85   O8    S    
C26   C30   A    
C54   H33   S    
C26   H83   S    
C58   H38   S    
C75   O5    S    
C22   C27   A    
C55   C57   S    
O13   Zn2   S    
C72   H79   S    
C41   H9    S    
O9    Zn2   S    
C8    O6    S    
C4    N2    A    
C3    N1    A    
C6    N2    A    
C68   H58   S    
C52   C53   S    
C61   H47   S    
C5    N1    A    
C43   C48   A    
C52   H27   S    
C22   C33   A    
C46   C47   A    
C51   H23   S    
C61   H46   S    
C86   C87   S    
C72   H78   S    
C79   H88   S    
C24   C28   A    
C81   H92   S    
C5    C9    A    
C80   C81   S    
C67   O3    S    
C10   C13   A    
C38   H94   S    
C6    C10   A    
C74   H73   S    
C38   C42   A    
C26   C32   A    
C52   H26   S    
C2    C47   S    
C85   H103  S    
C23   C38   A    
C78   O4    S    
C22   H50   S    
C45   O16   S    
C23   C41   A    
C70   H69   S    
C21   O13   A    
C65   H64   S    
C28   C30   A    
C65   C66   S    
C86   H4    S    
C17   H18   S    
C57   H36   S    
C20   C37   S    
C44   H12   S    
C57   C58   S    
C74   H75   S    
O14   Zn1   S    
C87   H5    S    
O10   Zn1   S    
C69   H71   S    
C63   H54   S    
C42   C47   A    
C12   O10   A    
C77   H86   S    
C7    O5    S    
C69   C70   S    
C84   H100  S    
N1    Zn1   S    
C14   H14   S    
C24   H61   S    
N2    Zn2   S    
C79   C80   S    
C40   C44   A    
C20   O15   A    
C49   C50   S    
C81   H95   S    
C31   C36   A    
C34   C40   A    
C59   O4    S    
C15   H15   S    
C60   H45   S    
C68   H57   S    
C44   C48   A    
C61   H48   S    
C64   H51   S    
C16   C19   A    
