data_mof_unit_16816.cif
_audit_creation_date              2012-12-11T15:22:35-0500
_audit_creation_method            fapswitch 2.2
_symmetry_space_group_name_H-M    P1
_symmetry_Int_Tables_number       1
_space_group_crystal_system       triclinic
_cell_length_a                    22.494529
_cell_length_b                    12.903466
_cell_length_c                    26.985223
_cell_angle_alpha                 89.746252
_cell_angle_beta                  90.334853
_cell_angle_gamma                 90.700989
_cell_volume                      7831.86607837

loop_
_atom_site_label
_atom_site_type_symbol
_atom_type_description
_atom_site_fract_x
_atom_site_fract_y
_atom_site_fract_z
_atom_type_partial_charge
C1    C     C_R   0.721097 0.346261 0.178285 0.570535
C2    C     C_R   0.492623 0.257787 0.892900 -0.097442
C3    C     C_R   0.039430 0.595252 0.568177 0.266870
C4    C     C_R   0.526528 0.082170 0.400889 -0.075662
C5    C     C_R   0.517979 0.095332 0.616579 -0.082201
C6    C     C_R   0.026521 0.582194 0.400886 -0.075663
C7    C     C_R   0.017966 0.595314 0.616575 -0.082196
C8    C     C_R   0.736643 0.967343 0.372332 0.009203
C9    C     C_R   0.266987 0.980772 0.624486 0.000598
C10   C     C_R   0.236641 0.467349 0.372333 0.009206
C11   C     C_R   0.766984 0.480775 0.624487 0.000602
C12   C     C_R   0.752280 0.866644 0.385214 -0.112532
C13   C     C_R   0.062060 0.754686 0.093492 -0.117380
C14   C     C_R   0.235433 0.896325 0.605357 -0.106076
C15   C     C_R   0.252301 0.366662 0.385218 -0.112537
C16   C     C_R   0.735406 0.396340 0.605358 -0.106085
C17   C     C_R   0.756619 0.840512 0.435054 -0.085789
C18   C     C_R   0.235269 0.880114 0.554386 -0.069385
C19   C     C_R   0.256638 0.340538 0.435059 -0.085797
C20   C     C_R   0.735231 0.380134 0.554387 -0.069394
C21   C     C_R   0.745030 0.915133 0.471286 0.071670
C22   C     C_R   0.265283 0.949563 0.522757 0.069873
C23   C     C_R   0.245028 0.415154 0.471288 0.071662
C24   C     C_R   0.992623 0.757787 0.892900 -0.097441
C25   C     C_R   0.765256 0.449576 0.522758 0.069875
C26   C     C_R   0.726410 0.014862 0.457832 0.298521
C27   C     C_R   0.297795 0.033319 0.542323 0.278711
C28   C     C_R   0.226389 0.514869 0.457830 0.298517
C29   C     C_R   0.797781 0.533326 0.542323 0.278705
C30   C     C_R   0.722561 0.040494 0.408255 -0.074629
C31   C     C_R   0.298824 0.047998 0.593173 -0.075876
C32   C     C_R   0.222540 0.540494 0.408252 -0.074612
C33   C     C_R   0.798822 0.547999 0.593174 -0.075882
C34   C     C_R   0.804667 0.939109 0.547600 0.314331
C35   C     C_R   0.548347 0.256887 0.042676 0.011685
C36   C     C_R   0.219634 0.993835 0.441376 0.292668
C37   C     C_R   0.304649 0.439159 0.547608 0.314328
C38   C     C_R   0.719633 0.493864 0.441366 0.292654
C39   C     C_R   0.720952 0.346902 0.321963 0.526468
C40   C     C_R   0.293023 0.312045 0.672252 0.529639
C41   C     C_R   0.220952 0.846903 0.321963 0.526467
C42   C     C_R   0.793026 0.812038 0.672252 0.529652
C43   C     C_R   0.815852 0.913563 0.596576 -0.068955
C44   C     C_R   0.210183 0.970022 0.391683 -0.080016
C45   C     C_R   0.315836 0.413605 0.596583 -0.068969
C46   C     C_R   0.514557 0.258541 0.941778 0.020276
C47   C     C_R   0.710190 0.470050 0.391672 -0.080014
C48   C     C_R   0.732671 0.791535 0.595757 -0.109388
C49   C     C_R   0.284166 0.834955 0.397286 -0.117669
C50   C     C_R   0.232667 0.291548 0.595757 -0.109384
C51   C     C_R   0.784144 0.334918 0.397299 -0.117666
C52   C     C_R   0.721300 0.816873 0.546681 -0.066530
C53   C     C_R   0.293492 0.858166 0.446944 -0.080832
C54   C     C_R   0.221297 0.316889 0.546680 -0.066545
C55   C     C_R   0.793464 0.358136 0.446956 -0.080823
C56   C     C_R   0.757061 0.890489 0.522678 0.083543
C57   C     C_R   0.048348 0.756887 0.042676 0.011685
C58   C     C_R   0.260234 0.935473 0.469382 0.082420
C59   C     C_R   0.257052 0.390520 0.522682 0.083541
C60   C     C_R   0.760216 0.435479 0.469383 0.082430
C61   C     C_R   0.779793 0.840316 0.621085 -0.031649
C62   C     C_R   0.240808 0.888133 0.369816 -0.033580
C63   C     C_R   0.279785 0.340338 0.621087 -0.031649
C64   C     C_R   0.740805 0.388130 0.369816 -0.033559
C65   C     C_R   0.579276 0.155162 0.327204 0.549900
C66   C     C_R   0.446449 0.159416 0.678843 0.539766
C67   C     C_R   0.079278 0.655162 0.327204 0.549893
C68   C     C_R   0.014557 0.758540 0.941778 0.020276
C69   C     C_R   0.946450 0.659416 0.678843 0.539763
C70   C     C_R   0.731966 0.999904 0.321859 0.538767
C71   C     C_R   0.268708 0.003376 0.676761 0.534407
C72   C     C_R   0.231966 0.499904 0.321859 0.538768
C73   C     C_R   0.768708 0.503376 0.676762 0.534412
C74   C     C_R   0.557400 0.066446 0.092811 -0.121942
C75   C     C_R   0.495738 0.069525 0.892667 -0.122573
C76   C     C_R   0.057399 0.566446 0.092811 -0.121942
C77   C     C_R   0.995738 0.569525 0.892667 -0.122573
C78   C     C_R   0.545498 0.067257 0.042213 0.013138
C79   C     C_R   0.539961 0.162680 0.017054 0.064671
C80   C     C_R   0.515544 0.068897 0.941509 0.010086
C81   C     C_R   0.045498 0.567257 0.042213 0.013138
C82   C     C_R   0.015544 0.568897 0.941509 0.010086
C83   C     C_R   0.523657 0.974595 0.966415 -0.122357
C84   C     C_R   0.537876 0.973791 0.016637 -0.129672
C85   C     C_R   0.023657 0.474595 0.966415 -0.122357
C86   C     C_R   0.037876 0.473791 0.016637 -0.129672
C87   C     C_R   0.524118 0.163526 0.966581 0.061813
C88   C     C_R   0.039961 0.662680 0.017054 0.064671
C89   C     C_R   0.278890 0.345708 0.821907 0.595563
C90   C     C_R   0.024118 0.663526 0.966581 0.061813
C91   C     C_R   0.541715 0.351175 0.017151 -0.129225
C92   C     C_R   0.524411 0.351999 0.967182 -0.115126
C93   C     C_R   0.041715 0.851175 0.017151 -0.129225
C94   C     C_R   0.024411 0.851999 0.967182 -0.115126
C95   C     C_R   0.741492 0.950215 0.131630 0.035508
C96   C     C_R   0.260662 0.954632 0.869605 0.047255
C97   C     C_R   0.241492 0.450215 0.131630 0.035508
C98   C     C_R   0.760662 0.454632 0.869605 0.047256
C99   C     C_R   0.797149 0.953226 0.107581 0.259867
C100  C     C_R   0.221097 0.846261 0.178285 0.570535
C101  C     C_R   0.204418 0.940929 0.891705 0.263738
C102  C     C_R   0.297149 0.453226 0.107581 0.259868
C103  C     C_R   0.704418 0.440929 0.891705 0.263738
C104  C     C_R   0.799834 0.935475 0.056634 -0.072256
C105  C     C_R   0.200968 0.921400 0.942546 -0.069725
C106  C     C_R   0.299834 0.435475 0.056634 -0.072256
C107  C     C_R   0.700968 0.421400 0.942546 -0.069724
C108  C     C_R   0.747854 0.913912 0.029328 -0.006137
C109  C     C_R   0.252953 0.915349 0.971430 -0.004934
C110  C     C_R   0.247854 0.413912 0.029328 -0.006137
C111  C     C_R   0.778890 0.845708 0.821907 0.595564
C112  C     C_R   0.752952 0.415349 0.971430 -0.004934
C113  C     C_R   0.694019 0.899936 0.054426 -0.116403
C114  C     C_R   0.308511 0.921357 0.948641 -0.119098
C115  C     C_R   0.194019 0.399936 0.054426 -0.116403
C116  C     C_R   0.808511 0.421357 0.948641 -0.119098
C117  C     C_R   0.580253 0.154315 0.172163 0.550712
C118  C     C_R   0.447094 0.157467 0.822130 0.548120
C119  C     C_R   0.080253 0.654316 0.172163 0.550711
C120  C     C_R   0.947094 0.657467 0.822130 0.548121
C121  C     C_R   0.691185 0.915936 0.105107 -0.147143
C122  C     C_R   0.481150 0.163000 0.868871 -0.004025
C123  C     C_R   0.312314 0.939794 0.898265 -0.144481
C124  C     C_R   0.191185 0.415936 0.105107 -0.147143
C125  C     C_R   0.812314 0.439794 0.898265 -0.144481
C126  C     C_R   0.713652 0.834572 0.950015 -0.092887
C127  C     C_R   0.288685 0.842726 0.051354 -0.093371
C128  C     C_R   0.213652 0.334572 0.950015 -0.092887
C129  C     C_R   0.788685 0.342726 0.051354 -0.093371
C130  C     C_R   0.717003 0.823312 0.898930 0.184708
C131  C     C_R   0.285269 0.832682 0.102524 0.191019
C132  C     C_R   0.217003 0.323312 0.898930 0.184708
C133  C     C_R   0.565398 0.159374 0.118957 -0.007839
C134  C     C_R   0.785269 0.332682 0.102524 0.191019
C135  C     C_R   0.791413 0.962154 0.896069 0.203228
C136  C     C_R   0.205089 0.958384 0.102970 0.195069
C137  C     C_R   0.291413 0.462154 0.896069 0.203229
C138  C     C_R   0.705089 0.458384 0.102970 0.195069
C139  C     C_R   0.786225 0.973684 0.947234 -0.095757
C140  C     C_R   0.209829 0.967971 0.051762 -0.101653
C141  C     C_R   0.286225 0.473684 0.947234 -0.095756
C142  C     C_R   0.709829 0.467971 0.051762 -0.101653
C143  C     C_R   0.749643 0.906735 0.974812 -0.049296
C144  C     C_R   0.981150 0.663000 0.868871 -0.004025
C145  C     C_R   0.249660 0.907043 0.025562 -0.051405
C146  C     C_R   0.249643 0.406735 0.974812 -0.049296
C147  C     C_R   0.749660 0.407043 0.025562 -0.051405
C148  C     C_R   0.759789 0.881548 0.871493 0.030677
C149  C     C_R   0.239827 0.884241 0.128804 0.031416
C150  C     C_R   0.259789 0.381548 0.871493 0.030677
C151  C     C_R   0.739827 0.384241 0.128804 0.031416
C152  C     C_R   0.561569 0.161055 0.379415 -0.066302
C153  C     C_R   0.477190 0.169959 0.631424 -0.060140
C154  C     C_R   0.061572 0.661056 0.379415 -0.066320
C155  C     C_R   0.065398 0.659374 0.118957 -0.007839
C156  C     C_R   0.977197 0.669956 0.631426 -0.060163
C157  C     C_R   0.583618 0.241633 0.409065 -0.098614
C158  C     C_R   0.458941 0.246388 0.597845 -0.089611
C159  C     C_R   0.083633 0.741610 0.409068 -0.098618
C160  C     C_R   0.958970 0.746399 0.597853 -0.089631
C161  C     C_R   0.571117 0.243615 0.459632 0.274101
C162  C     C_R   0.478621 0.245385 0.549059 0.278277
C163  C     C_R   0.071133 0.743588 0.459636 0.274179
C164  C     C_R   0.978651 0.745399 0.549067 0.278243
C165  C     C_R   0.731881 0.999604 0.180025 0.563566
C166  C     C_R   0.562060 0.254686 0.093492 -0.117380
C167  C     C_R   0.268399 0.000686 0.820240 0.578659
C168  C     C_R   0.231881 0.499604 0.180025 0.563566
C169  C     C_R   0.768399 0.500686 0.820240 0.578659
C170  C     C_R   0.535877 0.164381 0.481117 0.109276
C171  C     C_R   0.518992 0.169569 0.533735 0.099895
C172  C     C_R   0.035879 0.664380 0.481117 0.109318
C173  C     C_R   0.018995 0.669565 0.533735 0.099946
C174  C     C_R   0.513099 0.083981 0.451134 0.266219
C175  C     C_R   0.539445 0.095272 0.568181 0.266844
C176  C     C_R   0.013091 0.584003 0.451131 0.266208
Cl1   Cl    Cl    0.838079 0.051553 0.864896 -0.550332
Cl2   Cl    Cl    0.447593 0.334428 0.506899 -0.427251
Cl3   Cl    Cl    0.099695 0.847225 0.494932 -0.507947
Cl4   Cl    Cl    0.947655 0.834468 0.506914 -0.427231
Cl5   Cl    Cl    0.851558 0.031530 0.518656 -0.448299
Cl6   Cl    Cl    0.176449 0.091184 0.468361 -0.543170
Cl7   Cl    Cl    0.351527 0.531614 0.518672 -0.448359
Cl8   Cl    Cl    0.676450 0.591239 0.468339 -0.543230
Cl9   Cl    Cl    0.709314 0.110353 0.501684 -0.561337
Cl10  Cl    Cl    0.337283 0.121020 0.504385 -0.554761
Cl11  Cl    Cl    0.209272 0.610351 0.501679 -0.561316
Cl12  Cl    Cl    0.155071 0.042488 0.132262 -0.562491
Cl13  Cl    Cl    0.837268 0.621025 0.504385 -0.554766
Cl14  Cl    Cl    0.864486 0.978497 0.139240 -0.479448
Cl15  Cl    Cl    0.137589 0.948013 0.857567 -0.528023
Cl16  Cl    Cl    0.364486 0.478497 0.139240 -0.479450
Cl17  Cl    Cl    0.637589 0.448013 0.857567 -0.528024
Cl18  Cl    Cl    0.666815 0.732225 0.872879 -0.520800
Cl19  Cl    Cl    0.339350 0.753212 0.130503 -0.496214
Cl20  Cl    Cl    0.166815 0.232225 0.872879 -0.520799
Cl21  Cl    Cl    0.839350 0.253212 0.130503 -0.496212
Cl22  Cl    Cl    0.338079 0.551552 0.864896 -0.550334
Cl23  Cl    Cl    0.655071 0.542488 0.132262 -0.562494
Cl24  Cl    Cl    0.589191 0.997230 0.551531 -0.490983
Cl25  Cl    Cl    0.465921 0.985624 0.474708 -0.468561
Cl26  Cl    Cl    0.089149 0.497188 0.551521 -0.490966
Cl27  Cl    Cl    0.965904 0.485663 0.474701 -0.468533
Cl28  Cl    Cl    0.599655 0.347302 0.494922 -0.507952
Cr1   Cr    Cr6+3 0.756570 0.170940 0.251190 1.127507
Cr2   Cr    Cr6+3 0.374010 0.036240 0.749520 1.064186
Cr3   Cr    Cr6+3 0.125990 0.536240 0.250480 1.059428
Cr4   Cr    Cr6+3 0.874010 0.536240 0.749520 1.064186
Cr5   Cr    Cr6+3 0.243430 0.170940 0.748810 1.135836
Cr6   Cr    Cr6+3 0.256570 0.670940 0.251190 1.127501
Cr7   Cr    Cr6+3 0.743430 0.670940 0.748810 1.135830
Cr8   Cr    Cr6+3 0.623740 0.299110 0.249580 1.106503
Cr9   Cr    Cr6+3 0.376260 0.299110 0.750420 1.092596
Cr10  Cr    Cr6+3 0.123740 0.799110 0.249580 1.106509
Cr11  Cr    Cr6+3 0.876260 0.799110 0.750420 1.092597
Cr12  Cr    Cr6+3 0.625990 0.036240 0.250480 1.059423
H1    H     H_    0.487822 0.995920 0.874391 0.150800
H2    H     H_    0.426211 0.302691 0.608575 0.151507
H3    H     H_    0.111410 0.802036 0.393087 0.159415
H4    H     H_    0.926259 0.802715 0.608587 0.151524
H5    H     H_    0.517089 0.901447 0.947446 0.142262
H6    H     H_    0.542136 0.900061 0.035635 0.129397
H7    H     H_    0.017089 0.401447 0.947446 0.142262
H8    H     H_    0.042136 0.400061 0.035635 0.129397
H9    H     H_    0.481997 0.330205 0.874566 0.169205
H10   H     H_    0.569252 0.326802 0.113215 0.176024
H11   H     H_    0.981997 0.830205 0.874566 0.169206
H12   H     H_    0.559898 0.992689 0.111929 0.139294
H13   H     H_    0.069251 0.826802 0.113215 0.176024
H14   H     H_    0.517847 0.425659 0.948641 0.162910
H15   H     H_    0.548488 0.424229 0.036137 0.155069
H16   H     H_    0.017847 0.925659 0.948641 0.162910
H17   H     H_    0.048488 0.924229 0.036137 0.155069
H18   H     H_    0.683904 0.783783 0.970478 0.156716
H19   H     H_    0.321273 0.797984 0.031547 0.160019
H20   H     H_    0.183904 0.283784 0.970478 0.156716
H21   H     H_    0.821273 0.297984 0.031547 0.160018
H22   H     H_    0.811449 0.034599 0.965572 0.157698
H23   H     H_    0.987822 0.495920 0.874391 0.150800
H24   H     H_    0.182186 0.023246 0.032305 0.156643
H25   H     H_    0.311449 0.534599 0.965572 0.157698
H26   H     H_    0.682186 0.523246 0.032305 0.156643
H27   H     H_    0.653292 0.881755 0.034689 0.124424
H28   H     H_    0.349265 0.917606 0.970122 0.131988
H29   H     H_    0.153292 0.381755 0.034689 0.124424
H30   H     H_    0.849265 0.417606 0.970122 0.131988
H31   H     H_    0.531831 0.035350 0.642238 0.177336
H32   H     H_    0.508970 0.019094 0.378624 0.190285
H33   H     H_    0.031804 0.535323 0.642230 0.177347
H34   H     H_    0.059898 0.492690 0.111929 0.139294
H35   H     H_    0.008956 0.519135 0.378617 0.190292
H36   H     H_    0.762028 0.809832 0.357061 0.143738
H37   H     H_    0.211306 0.843741 0.629572 0.152666
H38   H     H_    0.262065 0.309856 0.357068 0.143743
H39   H     H_    0.711270 0.343762 0.629573 0.152663
H40   H     H_    0.852995 0.951019 0.615255 0.175427
H41   H     H_    0.176629 0.011781 0.371006 0.178526
H42   H     H_    0.352974 0.451072 0.615266 0.175439
H43   H     H_    0.676649 0.511832 0.370986 0.178515
H44   H     H_    0.770602 0.763475 0.445384 0.212976
H45   H     H_    0.648395 0.908417 0.122840 0.144893
H46   H     H_    0.210933 0.814620 0.539486 0.227994
H47   H     H_    0.270636 0.263510 0.445393 0.212966
H48   H     H_    0.710877 0.314651 0.539487 0.227975
H49   H     H_    0.684475 0.779809 0.527458 0.211461
H50   H     H_    0.324912 0.813182 0.468419 0.197041
H51   H     H_    0.184479 0.279811 0.527453 0.211453
H52   H     H_    0.824867 0.313127 0.468441 0.197038
H53   H     H_    0.704968 0.733483 0.613718 0.170817
H54   H     H_    0.308174 0.770982 0.381419 0.171952
H55   H     H_    0.204969 0.233484 0.613714 0.170818
H56   H     H_    0.356255 0.950028 0.882609 0.150020
H57   H     H_    0.808140 0.270912 0.381443 0.171938
H58   H     H_    0.709007 0.117904 0.397561 0.116617
H59   H     H_    0.323853 0.112923 0.608402 0.116470
H60   H     H_    0.208971 0.617893 0.397555 0.116614
H61   H     H_    0.823859 0.612922 0.608403 0.116479
H62   H     H_    0.842464 0.940288 0.038239 0.147816
H63   H     H_    0.157748 0.913063 0.959706 0.140310
H64   H     H_    0.342464 0.440288 0.038239 0.147816
H65   H     H_    0.657748 0.413063 0.959706 0.140310
H66   H     H_    0.148395 0.408417 0.122840 0.144893
H67   H     H_    0.856255 0.450028 0.882609 0.150020
H68   H     H_    0.611385 0.302081 0.393080 0.159448
O1    O     O_R   0.769900 0.064540 0.196060 -0.409778
O2    O     O_R   0.433710 0.069580 0.694600 -0.493709
O3    O     O_R   0.066290 0.569580 0.305400 -0.490352
O4    O     O_R   0.933710 0.569580 0.694600 -0.493715
O5    O     O_R   0.680760 0.993330 0.302620 -0.510398
O6    O     O_R   0.319240 0.993330 0.697380 -0.489641
O7    O     O_R   0.180760 0.493330 0.302620 -0.510398
O8    O     O_R   0.819240 0.493330 0.697380 -0.489638
O9    O     O_3   0.668770 0.168760 0.250420 -0.324747
O10   O     O_3   0.331230 0.168760 0.749580 -0.304400
O11   O     O_3   0.168770 0.668760 0.250420 -0.324749
O12   O     O_R   0.230100 0.064540 0.803940 -0.407588
O13   O     O_3   0.831230 0.668760 0.749580 -0.304405
O14   O     O_R   0.750800 0.274080 0.199250 -0.448275
O15   O     O_R   0.249200 0.274080 0.800750 -0.445271
O16   O     O_R   0.250800 0.774080 0.199250 -0.448276
O17   O     O_R   0.749200 0.774080 0.800750 -0.445271
O18   O     O_R   0.669990 0.371670 0.194150 -0.464330
O19   O     O_R   0.330010 0.371670 0.805850 -0.450374
O20   O     O_R   0.169990 0.871670 0.194150 -0.464329
O21   O     O_R   0.830010 0.871670 0.805850 -0.450374
O22   O     O_R   0.574600 0.238480 0.197800 -0.467925
O23   O     O_R   0.269900 0.564540 0.196060 -0.409779
O24   O     O_R   0.425400 0.238480 0.802200 -0.490378
O25   O     O_R   0.074600 0.738480 0.197800 -0.467926
O26   O     O_R   0.925400 0.738480 0.802200 -0.490378
O27   O     O_R   0.566130 0.068680 0.194240 -0.489701
O28   O     O_R   0.433870 0.068680 0.805760 -0.518046
O29   O     O_R   0.066130 0.568680 0.194240 -0.489701
O30   O     O_R   0.933870 0.568680 0.805760 -0.518045
O31   O     O_R   0.680610 0.992490 0.199570 -0.537001
O32   O     O_R   0.319390 0.992490 0.800430 -0.516642
O33   O     O_R   0.180610 0.492490 0.199570 -0.537000
O34   O     O_R   0.730100 0.564540 0.803940 -0.407589
O35   O     O_R   0.819390 0.492490 0.800430 -0.516641
O36   O     O_R   0.770060 0.065440 0.307230 -0.488900
O37   O     O_R   0.229940 0.065440 0.692770 -0.503259
O38   O     O_R   0.270060 0.565440 0.307230 -0.488894
O39   O     O_R   0.729940 0.565440 0.692770 -0.503272
O40   O     O_R   0.750960 0.274920 0.302300 -0.500532
O41   O     O_R   0.249040 0.274920 0.697700 -0.484145
O42   O     O_R   0.250960 0.774920 0.302300 -0.500538
O43   O     O_R   0.749040 0.774920 0.697700 -0.484147
O44   O     O_R   0.670160 0.372580 0.305320 -0.516151
O45   O     O_R   0.574760 0.239320 0.300850 -0.462511
O46   O     O_R   0.329840 0.372580 0.694680 -0.498758
O47   O     O_R   0.170160 0.872580 0.305320 -0.516145
O48   O     O_R   0.829840 0.872580 0.694680 -0.498746
O49   O     O_R   0.425240 0.239320 0.699150 -0.512203
O50   O     O_R   0.074760 0.739320 0.300850 -0.462502
O51   O     O_R   0.925240 0.739320 0.699150 -0.512210
O52   O     O_R   0.566290 0.069580 0.305400 -0.490353

loop_
_geom_bond_atom_site_label_1
_geom_bond_atom_site_label_2
_ccdc_geom_bond_type
C123  H56   S    
C128  H20   S    
C21   C26   A    
C34   C56   A    
C132  C150  A    
C107  C112  A    
C120  C144  S    
C136  C140  A    
C76   H34   S    
Cr11  O26   S    
C79   C87   A    
Cr8   O44   S    
C135  C139  A    
C89   O15   A    
C72   O7    A    
C18   H46   S    
C97   C124  A    
C26   Cl9   S    
C95   C99   A    
C75   C122  A    
C29   C33   A    
C126  C143  A    
C140  H24   S    
C98   C169  S    
C162  C171  A    
C113  H27   S    
C68   C90   A    
C25   C60   S    
C81   C86   A    
C117  C133  S    
C72   O38   A    
C176  Cl27  S    
Cr12  O52   S    
C80   C83   A    
Cr7   O13   S    
C42   O43   A    
C73   O39   A    
Cr7   O39   S    
C131  Cl19  S    
C27   C31   A    
C1    O14   A    
C28   C32   A    
C135  Cl1   S    
C28   Cl11  S    
C47   C64   A    
C111  O17   A    
Cr10  O47   S    
C174  Cl25  S    
C17   C21   A    
C120  O30   A    
C108  C113  A    
C100  O20   A    
C19   C23   A    
C32   H60   S    
Cr11  O21   S    
C39   O40   A    
Cr7   O34   S    
C156  C160  A    
C158  H2    S    
C164  C173  A    
C17   H44   S    
Cr8   O22   S    
C163  C172  A    
C127  C145  A    
C89   C150  S    
C22   C27   A    
C29   Cl13  S    
C36   C44   A    
C37   C45   A    
Cr11  O48   S    
C43   C61   A    
C170  C174  A    
C152  C157  A    
C49   C62   A    
C129  H21   S    
C109  C145  S    
C51   C64   A    
Cr1   O14   S    
C101  Cl15  S    
C12   H36   S    
C140  C145  A    
C22   C58   S    
C66   C153  S    
C53   C58   A    
C124  H66   S    
C138  C151  A    
C82   C85   A    
C76   C155  A    
C127  H19   S    
C54   H51   S    
C70   O36   A    
C133  C166  A    
C20   H48   S    
Cr3   O3    S    
C165  O31   A    
C67   O50   A    
C77   C82   A    
C49   C53   A    
C134  C151  A    
C73   O8    A    
C51   C55   A    
Cr5   O15   S    
C127  C131  A    
Cr2   O10   S    
C81   C88   A    
C169  O35   A    
Cr5   O37   S    
C83   H5    S    
C48   C52   A    
C69   O4    A    
Cr2   O32   S    
C117  O22   A    
Cr3   O33   S    
C3    Cl26  S    
Cr4   O30   S    
C103  C107  A    
Cr3   O11   S    
C111  C148  S    
C114  H28   S    
C41   O47   A    
C94   H16   S    
C45   H42   S    
C85   C86   A    
C23   C59   S    
C67   C154  S    
C167  O32   A    
C16   H39   S    
C13   C57   A    
C170  C171  S    
C75   H1    S    
Cr11  O13   S    
C38   Cl8   S    
C118  C122  S    
C165  O1    A    
C153  C158  A    
C74   H12   S    
C139  C143  A    
C98   C125  A    
C7    C156  A    
C138  Cl23  S    
C52   H49   S    
C136  Cl12  S    
C50   C63   A    
C54   C59   A    
C4    C152  A    
C71   O37   A    
C69   C156  S    
C129  C147  A    
C66   O2    A    
C91   C92   A    
C142  H26   S    
C19   H47   S    
C68   C94   A    
C91   H15   S    
C41   O42   A    
C83   C84   A    
C8    C12   A    
Cr10  O50   S    
C23   C28   A    
C37   C59   A    
C126  H18   S    
C109  C114  A    
C38   C60   A    
Cr9   O10   S    
Cr1   O40   S    
C116  H30   S    
C26   C30   A    
C116  C125  A    
C74   C78   A    
C1    O18   A    
C114  C123  A    
C112  C116  A    
C65   O45   A    
C46   C87   A    
C167  O12   A    
C111  O21   A    
C105  C109  A    
C96   C123  A    
C18   C22   A    
C120  O26   A    
C142  C147  A    
C55   H52   S    
Cr6   O23   S    
C99   Cl14  S    
C41   C62   S    
C39   O44   A    
C11   C33   A    
C97   C168  S    
C8    C70   S    
C112  C147  S    
C154  C159  A    
C65   O52   A    
C84   H6    S    
C163  Cl3   S    
C128  C146  A    
C160  H4    S    
C35   C79   A    
C137  C150  A    
Cr6   O16   S    
C162  Cl2   S    
C40   O41   A    
C89   O19   A    
C113  C121  A    
C50   H55   S    
Cr12  O9    S    
C96   C101  A    
C172  C176  A    
C10   C72   S    
C43   H40   S    
C134  Cl21  S    
C117  O27   A    
C118  O28   A    
C168  O23   A    
C161  Cl28  S    
C31   H59   S    
C136  C149  A    
C15   C19   A    
C39   C64   S    
C50   C54   A    
C40   C63   S    
C6    H35   S    
C7    H33   S    
C160  C164  A    
Cr2   O6    S    
C3    C7    A    
Cr9   O24   S    
Cr5   O41   S    
Cr4   O4    S    
C46   C92   A    
C20   C25   A    
C126  C130  A    
C98   C103  A    
C35   C166  A    
C34   Cl5   S    
Cr4   O8    S    
Cr12  O31   S    
Cr10  O11   S    
C125  H67   S    
C47   H43   S    
C12   C17   A    
C102  Cl16  S    
Cr5   O10   S    
C71   O6    A    
C24   H11   S    
C97   C102  A    
C164  Cl4   S    
C49   H54   S    
C95   C121  A    
C99   C104  A    
C4    C174  A    
C55   C60   A    
C139  H22   S    
C25   C29   A    
C5    C175  A    
Cr4   O13   S    
C95   C165  S    
Cr9   O19   S    
C40   O46   A    
Cr10  O20   S    
C2    C122  A    
Cr6   O38   S    
C51   H57   S    
C11   C73   S    
C93   H17   S    
C141  H25   S    
Cr1   O1    S    
C9    C14   A    
C11   C16   A    
C96   C167  S    
C85   H7    S    
C6    C154  A    
C141  C146  A    
C157  H68   S    
C88   C90   A    
C30   H58   S    
C159  H3    S    
C138  C142  A    
Cr4   O35   S    
C36   Cl6   S    
C157  C161  A    
C104  C108  A    
C137  C141  A    
C115  C124  A    
C9    C71   S    
C130  Cl18  S    
C21   C56   S    
C100  C149  S    
C82   C90   A    
C8    C30   A    
C24   C144  A    
Cr5   O12   S    
C1    C151  S    
C24   C68   A    
C13   H13   S    
C129  C134  A    
C137  Cl22  S    
C119  O25   A    
C77   H23   S    
C103  Cl17  S    
C110  C115  A    
C108  C143  S    
Cr12  O5    S    
C2    H9    S    
C115  H29   S    
C37   Cl7   S    
Cr8   O45   S    
C93   C94   A    
C14   C18   A    
C33   H61   S    
C2    C46   A    
Cr9   O46   S    
C80   C87   A    
C36   C58   A    
C10   C15   A    
Cr7   O17   S    
C69   O51   A    
Cr7   O43   S    
C53   H50   S    
C74   C133  A    
C66   O49   A    
C4    H32   S    
C67   O3    A    
Cr8   O9    S    
C121  H45   S    
C44   H41   S    
Cr1   O36   S    
C3    C173  A    
C13   C155  A    
C118  O24   A    
C119  O29   A    
C100  O16   A    
C75   C80   A    
C42   O48   A    
C16   C20   A    
C57   C93   A    
C107  H65   S    
C86   H8    S    
C5    H31   S    
Cr8   O18   S    
C128  C132  A    
Cr2   O28   S    
C101  C105  A    
C130  C148  A    
C70   O5    A    
C104  H62   S    
C9    C31   A    
C78   C79   A    
Cr12  O27   S    
C44   C62   A    
C171  C175  A    
C45   C63   A    
C27   Cl10  S    
C10   C32   A    
C92   H14   S    
C166  H10   S    
Cr9   O49   S    
C42   C61   S    
Cr11  O51   S    
C38   C47   A    
C161  C170  A    
C169  O34   A    
C48   H53   S    
Cr6   O42   S    
C105  H63   S    
C159  C163  A    
C106  H64   S    
Cr1   O9    S    
C172  C173  S    
C106  C110  A    
C119  C155  S    
Cr3   O29   S    
C168  O33   A    
Cr2   O2    S    
Cr3   O7    S    
C76   C81   A    
Cr10  O25   S    
C57   C88   A    
C65   C152  S    
C77   C144  A    
C110  C146  S    
C48   C61   A    
C14   H37   S    
C6    C176  A    
C5    C153  A    
C102  C106  A    
Cr6   O11   S    
C175  Cl24  S    
C131  C149  A    
C158  C162  A    
C78   C84   A    
C135  C148  A    
C132  Cl20  S    
C34   C43   A    
C52   C56   A    
C15   H38   S    
C35   C91   A    
