data_mof_unit_21389.cif
_audit_creation_date              2012-12-10T20:55:04-0500
_audit_creation_method            fapswitch 2.2
_symmetry_space_group_name_H-M    P1
_symmetry_Int_Tables_number       1
_space_group_crystal_system       triclinic
_cell_length_a                    15.844602
_cell_length_b                    15.022476
_cell_length_c                    10.558414
_cell_angle_alpha                 90.300817
_cell_angle_beta                  89.500709
_cell_angle_gamma                 90.032428
_cell_volume                      2513.03771158

loop_
_atom_site_label
_atom_site_type_symbol
_atom_type_description
_atom_site_fract_x
_atom_site_fract_y
_atom_site_fract_z
_atom_type_partial_charge
C1    C     C_R   0.338828 0.499941 0.500668 0.915473
C2    C     C_R   0.661142 0.499938 0.500522 0.889636
C3    C     C_R   0.956943 0.470784 0.407442 0.368031
C4    C     C_R   0.044367 0.466583 0.409647 0.377746
C5    C     C_1   0.823778 0.496305 0.512784 0.024523
C6    C     C_1   0.175936 0.496821 0.513772 0.024361
C7    C     C_1   0.250619 0.499409 0.507273 -0.206202
C8    C     C_1   0.749218 0.499199 0.506519 -0.196869
C9    C     C_R   0.436410 0.952104 0.436078 0.394914
C10   C     C_R   0.569007 0.952764 0.551334 0.394641
C11   C     C_R   0.502104 0.904955 0.495295 -0.218972
C12   C     C_R   0.570881 0.047438 0.547329 -0.019429
C13   C     C_R   0.434923 0.046722 0.438557 -0.010635
C14   C     C_R   0.502191 0.094828 0.494704 -0.102426
C15   C     C_1   0.500997 0.807117 0.498095 0.160169
C16   C     C_1   0.500814 0.192906 0.498128 0.068317
C17   C     C_R   0.519205 0.499865 0.262791 0.891230
C18   C     C_R   0.491379 0.500199 0.742297 0.878643
C19   C     C_R   0.564671 0.662050 0.117956 -0.113991
C20   C     C_R   0.470920 0.665861 0.897329 -0.118268
C21   C     C_R   0.544061 0.743460 0.063889 -0.177228
C22   C     C_R   0.493810 0.745345 0.956752 -0.170953
C23   C     C_R   0.498206 0.582627 0.944994 0.073528
C24   C     C_R   0.535782 0.581329 0.063806 0.084439
C25   C     C_R   0.539806 0.499822 0.128160 -0.236711
C26   C     C_R   0.487048 0.500640 0.880076 -0.223232
C27   C     C_R   0.534573 0.418403 0.062181 0.068791
C28   C     C_R   0.493918 0.418177 0.944898 0.090585
C29   C     C_R   0.954254 0.508172 0.634765 0.023170
C30   C     C_R   0.043290 0.513993 0.633307 0.028249
C31   C     C_R   0.912663 0.491221 0.519260 -0.107401
C32   C     C_R   0.086888 0.491590 0.520165 -0.111566
H1    H     H_    0.602357 0.662336 0.203049 0.146954
H2    H     H_    0.429350 0.670452 0.816984 0.148556
H3    H     H_    0.564426 0.805025 0.107754 0.122222
H4    H     H_    0.472996 0.808430 0.919177 0.117641
N1    N     N_1   0.500000 0.270550 0.500000 -0.105981
N2    N     N_1   0.500000 0.729450 0.500000 -0.102373
O1    O     O_R   0.378020 0.573650 0.500040 -0.601035
O2    O     O_R   0.621980 0.573650 0.499960 -0.609234
O3    O     O_R   0.378020 0.426320 0.500100 -0.611880
O4    O     O_R   0.621980 0.426320 0.499900 -0.623516
O5    O     O_R   0.500000 0.573680 0.316780 -0.609422
O6    O     O_R   0.500000 0.573680 0.683220 -0.619195
O7    O     O_R   0.500000 0.426350 0.316830 -0.615156
O8    O     O_R   0.500000 0.426350 0.683170 -0.610160
Zn1   Zn    Zn3+2 0.500000 0.598370 0.500000 0.969305
Zn2   Zn    Zn3+2 0.500000 0.401630 0.500000 0.939000
C33   C     C_3   0.573488 0.334133 0.117569 -0.377113
C34   C     C_3   0.637717 0.289946 0.027305 -0.370810
C35   C     C_3   0.674714 0.206173 0.086409 -0.922155
H5    H     H_    0.705718 0.222398 0.177642 0.262242
H6    H     H_    0.624108 0.156349 0.103686 0.258553
H7    H     H_    0.722381 0.176604 0.020986 0.253679
H8    H     H_    0.608270 0.270742 0.936437 0.220413
H9    H     H_    0.689487 0.337580 0.005927 0.226471
H10   H     H_    0.609246 0.350582 0.204718 0.217343
H11   H     H_    0.523294 0.286465 0.145365 0.199459
C36   C     C_3   0.452902 0.332345 0.895294 -0.387129
C37   C     C_3   0.359002 0.345549 0.865154 -0.328549
C38   C     C_3   0.321767 0.263114 0.801597 -0.890611
H12   H     H_    0.353834 0.250434 0.709252 0.269142
H13   H     H_    0.329044 0.203911 0.863084 0.255759
H14   H     H_    0.253506 0.273876 0.784329 0.244609
H15   H     H_    0.323995 0.358857 0.954841 0.212545
H16   H     H_    0.349603 0.403088 0.801294 0.223575
H17   H     H_    0.487807 0.304903 0.812564 0.221999
H18   H     H_    0.455179 0.278617 0.966442 0.187445
C39   C     C_3   0.091692 0.551235 0.745979 -0.370451
C40   C     C_3   0.133269 0.477777 0.824012 -0.367500
C41   C     C_3   0.185332 0.518248 0.930881 -0.839891
H19   H     H_    0.236149 0.561265 0.891547 0.247122
H20   H     H_    0.144373 0.558273 0.995323 0.283875
H21   H     H_    0.215062 0.464732 0.986542 0.245052
H22   H     H_    0.084012 0.433656 0.865298 0.222872
H23   H     H_    0.175442 0.436585 0.762961 0.224720
H24   H     H_    0.140653 0.598498 0.711398 0.205322
H25   H     H_    0.050599 0.592067 0.808690 0.202133
C42   C     C_3   0.903376 0.516590 0.757508 -0.385912
C43   C     C_3   0.867022 0.610515 0.776189 -0.331627
C44   C     C_3   0.814631 0.616273 0.898038 -0.870441
H26   H     H_    0.759943 0.570060 0.893278 0.260720
H27   H     H_    0.853889 0.599056 0.981068 0.278757
H28   H     H_    0.790525 0.685100 0.910965 0.254249
H29   H     H_    0.918968 0.660042 0.780868 0.218052
H30   H     H_    0.826155 0.628347 0.695276 0.235638
H31   H     H_    0.851080 0.467186 0.757020 0.197854
H32   H     H_    0.942052 0.498228 0.840495 0.202036
O9    O     O_3   0.916083 0.466025 0.292144 -0.566437
C45   C     C_3   0.886719 0.378503 0.271290 0.125750
H33   H     H_    0.831910 0.363613 0.334161 0.135326
H34   H     H_    0.936698 0.327989 0.287247 0.126576
C46   C     C_3   0.858443 0.370320 0.134490 -0.838656
H35   H     H_    0.911313 0.387617 0.069348 0.257058
H36   H     H_    0.838328 0.300963 0.114495 0.210873
H37   H     H_    0.804870 0.416225 0.117320 0.253098
O10   O     O_3   0.087825 0.445399 0.299070 -0.567582
C47   C     C_3   0.115951 0.356031 0.305159 0.118629
H38   H     H_    0.073428 0.312185 0.362204 0.090135
H39   H     H_    0.179841 0.353671 0.347512 0.151454
C48   C     C_3   0.121172 0.317389 0.171852 -0.833882
H40   H     H_    0.173874 0.348718 0.118685 0.249901
H41   H     H_    0.132526 0.244621 0.176408 0.205325
H42   H     H_    0.061178 0.329022 0.121010 0.263217
C49   C     C_3   0.361537 0.096187 0.379665 -0.341466
C50   C     C_3   0.386298 0.134495 0.250041 -0.353270
C51   C     C_3   0.314945 0.189898 0.195354 -0.906891
H43   H     H_    0.258082 0.147825 0.181618 0.260283
H44   H     H_    0.299359 0.246349 0.259754 0.270403
H45   H     H_    0.334741 0.217171 0.102335 0.255301
H46   H     H_    0.443064 0.177252 0.258471 0.221939
H47   H     H_    0.401456 0.079480 0.183030 0.215309
H48   H     H_    0.305987 0.051892 0.367706 0.236714
H49   H     H_    0.340473 0.150436 0.444638 0.188180
C52   C     C_3   0.646578 0.097905 0.598708 -0.361805
C53   C     C_3   0.702645 0.132776 0.490395 -0.310557
C54   C     C_3   0.774198 0.190720 0.540679 -0.910151
H50   H     H_    0.748226 0.250190 0.590399 0.268349
H51   H     H_    0.813892 0.152234 0.607085 0.263421
H52   H     H_    0.814420 0.213457 0.460489 0.236382
H53   H     H_    0.730026 0.075469 0.437183 0.231024
H54   H     H_    0.665026 0.172964 0.423306 0.220897
H55   H     H_    0.624444 0.153922 0.659698 0.184677
H56   H     H_    0.685737 0.055172 0.660271 0.225593
O11   O     O_3   0.370529 0.905997 0.380507 -0.609118
C55   C     C_3   0.395794 0.876473 0.258516 0.111296
H57   H     H_    0.432059 0.813503 0.265858 0.163474
H58   H     H_    0.435157 0.926376 0.207015 0.108142
C56   C     C_3   0.317734 0.858209 0.179789 -0.809602
H59   H     H_    0.280501 0.920338 0.169431 0.246490
H60   H     H_    0.336724 0.833775 0.084283 0.206831
H61   H     H_    0.277932 0.806848 0.226437 0.267434
O12   O     O_3   0.636460 0.906553 0.601225 -0.601270
C57   C     C_3   0.617406 0.884797 0.728283 0.091430
H62   H     H_    0.559518 0.843128 0.734894 0.142284
H63   H     H_    0.608375 0.946019 0.786828 0.120024
C58   C     C_3   0.690162 0.831789 0.782816 -0.804760
H64   H     H_    0.749296 0.871395 0.777906 0.249021
H65   H     H_    0.676481 0.815384 0.883314 0.209463
H66   H     H_    0.698857 0.768892 0.728451 0.266008

loop_
_geom_bond_atom_site_label_1
_geom_bond_atom_site_label_2
_ccdc_geom_bond_type
O2    Zn1   S    
C6    C32   S    
C48   H40   S    
C39   H24   S    
C18   C26   S    
C10   O12   S    
C30   C39   S    
C57   C58   S    
C42   H31   S    
C44   H26   S    
C50   H47   S    
C58   H65   S    
C43   H29   S    
C53   H54   S    
C49   H48   S    
C19   C21   A    
C17   O7    A    
C54   H51   S    
O7    Zn2   S    
C50   C51   S    
C52   C53   S    
C33   H10   S    
C53   C54   S    
C23   C26   A    
C38   H13   S    
C9    C13   A    
C43   H30   S    
C36   H17   S    
C11   C15   S    
C51   H43   S    
C40   C41   S    
O6    Zn1   S    
C16   N1    T    
C12   C52   S    
C20   H2    S    
C37   H16   S    
C36   C37   S    
C48   H41   S    
C13   C14   A    
C51   H44   S    
C39   H25   S    
C38   H12   S    
C18   O8    A    
C42   H32   S    
C44   H27   S    
O10   C47   S    
C6    C7    T    
C50   H46   S    
C58   H66   S    
O8    Zn2   S    
C52   H55   S    
C53   H53   S    
C35   H5    S    
C49   H49   S    
C24   C25   A    
C13   C49   S    
C19   H1    S    
C54   H52   S    
C41   H20   S    
C57   H63   S    
C55   C56   S    
C34   H9    S    
C33   H11   S    
C37   C38   S    
C35   H6    S    
C38   H14   S    
C17   O5    A    
C15   N2    T    
C29   C30   A    
C18   O6    A    
C36   H18   S    
C41   H21   S    
C45   H34   S    
C29   C42   S    
C20   C23   A    
C23   C24   A    
C34   C35   S    
C46   H35   S    
O4    Zn2   S    
N1    Zn2   S    
C3    C31   A    
C9    C11   A    
N2    Zn1   S    
C4    C32   A    
C10   C12   A    
C1    O3    A    
C12   C14   A    
C37   H15   S    
C33   C34   S    
C46   H37   S    
C47   H39   S    
C40   H23   S    
O12   C57   S    
C51   H45   S    
C14   C16   S    
C4    O10   S    
C3    C4    A    
C40   H22   S    
C44   H28   S    
C45   C46   S    
O1    Zn1   S    
C56   H59   S    
C49   C50   S    
C28   C36   S    
C55   H58   S    
C52   H56   S    
C1    C7    S    
C2    C8    S    
C20   C22   A    
C43   C44   S    
C5    C8    T    
C57   H62   S    
C21   H3    S    
C25   C27   A    
C47   C48   S    
C22   H4    S    
C58   H64   S    
C26   C28   A    
C34   H8    S    
C3    O9    S    
C35   H7    S    
C17   C25   S    
C56   H61   S    
C19   C24   A    
C41   H19   S    
C29   C31   A    
C54   H50   S    
C30   C32   A    
C45   H33   S    
O11   C55   S    
C2    O4    A    
C55   H57   S    
O3    Zn2   S    
C39   C40   S    
C9    O11   S    
C10   C11   A    
C1    O1    A    
C42   C43   S    
C2    O2    A    
C46   H36   S    
C47   H38   S    
C27   C28   A    
C48   H42   S    
C5    C31   S    
O9    C45   S    
C21   C22   A    
O5    Zn1   S    
C27   C33   S    
C56   H60   S    
