data_mof_unit_59591.cif
_audit_creation_date              2012-12-10T18:38:09-0500
_audit_creation_method            fapswitch 2.2
_symmetry_space_group_name_H-M    P1
_symmetry_Int_Tables_number       1
_space_group_crystal_system       triclinic
_cell_length_a                    14.982607
_cell_length_b                    15.447905
_cell_length_c                    27.559855
_cell_angle_alpha                 90.04455
_cell_angle_beta                  105.082682
_cell_angle_gamma                 82.314245
_cell_volume                      6099.79784096

loop_
_atom_site_label
_atom_site_type_symbol
_atom_type_description
_atom_site_fract_x
_atom_site_fract_y
_atom_site_fract_z
_atom_type_partial_charge
C1    C     C_R   0.441828 0.662338 0.494012 0.872034
C2    C     C_R   0.468208 0.590962 0.121630 0.008375
C3    C     C_R   0.502357 0.503174 0.647423 -0.040587
C4    C     C_R   0.492403 0.502303 0.351915 -0.044238
C5    C     C_R   0.444011 0.599646 0.016909 0.087964
C6    C     C_R   0.450384 0.442394 0.967509 0.087519
C7    C     C_R   0.426191 0.444526 0.013720 -0.025801
C8    C     C_R   0.430944 0.602295 0.964135 -0.030056
C9    C     C_R   0.436694 0.520973 0.041104 0.031735
C10   C     C_R   0.447780 0.522145 0.941515 0.033370
C11   C     C_R   0.473715 0.669407 0.046714 -0.222035
C12   C     C_R   0.558240 0.337644 0.508019 0.869749
C13   C     C_R   0.485181 0.363985 0.948974 -0.220279
C14   C     C_R   0.484089 0.665827 0.098262 -0.146707
C15   C     C_R   0.505671 0.363053 0.902711 -0.146539
C16   C     C_R   0.501186 0.500508 0.594171 0.869342
C17   C     C_R   0.498303 0.500156 0.405766 0.871284
C18   C     C_R   0.401487 0.679989 0.933137 0.106264
C19   C     C_R   0.392172 0.374641 0.033629 0.114975
C20   C     C_R   0.407187 0.754631 0.497499 -0.060299
C21   C     C_R   0.592960 0.245311 0.520679 -0.061958
C22   C     C_R   0.282353 0.873130 0.493903 -0.194054
C23   C     C_R   0.464035 0.521313 0.893516 -0.102391
C24   C     C_R   0.714995 0.128521 0.559303 -0.191515
C25   C     C_R   0.311902 0.785034 0.488521 -0.193739
C26   C     C_R   0.687232 0.215615 0.542719 -0.192138
C27   C     C_R   0.472265 0.811914 0.513683 -0.240579
C28   C     C_R   0.527477 0.187730 0.515291 -0.233276
C29   C     C_R   0.444746 0.899519 0.521689 0.079165
C30   C     C_R   0.552274 0.102310 0.535133 0.078815
C31   C     C_R   0.347911 0.932035 0.508928 0.097083
C32   C     C_R   0.648258 0.070713 0.555713 0.089521
C33   C     C_R   0.512204 0.956311 0.538359 0.018060
C34   C     C_R   0.444012 0.517827 0.092996 -0.095333
C35   C     C_R   0.483565 0.046607 0.531752 0.017535
C36   C     C_R   0.387293 0.078576 0.521645 -0.254329
C37   C     C_R   0.607262 0.925474 0.561122 -0.245877
C38   C     C_R   0.318981 0.022255 0.511170 0.194262
C39   C     C_R   0.675504 0.982050 0.571054 0.200990
C40   C     C_R   0.471448 0.595380 0.817614 0.527431
C41   C     C_R   0.448145 0.438463 0.169317 0.510444
C42   C     C_R   0.846787 0.629808 0.579018 -0.327666
C43   C     C_R   0.157073 0.360780 0.426191 -0.330502
C44   C     C_R   0.755952 0.610801 0.564735 0.012618
C45   C     C_R   0.452155 0.600298 0.865245 -0.105917
C46   C     C_R   0.246073 0.384439 0.437974 0.008209
C47   C     C_R   0.793203 0.511108 0.505019 -0.060831
C48   C     C_R   0.206796 0.488683 0.495013 -0.064808
C49   C     C_R   0.886853 0.527290 0.517866 -0.003261
C50   C     C_R   0.115346 0.467086 0.485183 -0.001030
C51   C     C_R   0.912390 0.588882 0.555411 0.185661
C52   C     C_R   0.091218 0.402132 0.449544 0.181884
C53   C     C_R   0.955292 0.484782 0.495122 0.081257
C54   C     C_R   0.047678 0.507622 0.509031 0.080522
C55   C     C_R   0.069576 0.569483 0.546617 -0.238907
C56   C     C_R   0.430672 0.440887 0.116375 -0.119210
C57   C     C_R   0.934729 0.419664 0.459403 -0.237939
C58   C     C_R   0.003151 0.608849 0.569404 -0.206963
C59   C     C_R   0.001736 0.378950 0.437396 -0.209680
C60   C     C_R   0.509208 0.439983 0.826658 0.498852
C61   C     C_R   0.478991 0.586495 0.173416 0.500869
C62   C     C_R   0.424415 0.485597 0.712654 -0.123050
C63   C     C_R   0.563758 0.514386 0.283231 -0.097320
C64   C     C_R   0.425394 0.481320 0.662561 -0.213064
C65   C     C_R   0.571121 0.511419 0.334673 -0.221204
C66   C     C_R   0.578584 0.529025 0.683343 -0.221319
C67   C     C_R   0.415659 0.679376 0.884181 0.185940
C68   C     C_R   0.406501 0.496425 0.317105 -0.214184
C69   C     C_R   0.577275 0.533386 0.733684 -0.097703
C70   C     C_R   0.399282 0.499890 0.265936 -0.112253
C71   C     C_R   0.500047 0.511694 0.748191 0.327755
C72   C     C_R   0.477723 0.508688 0.248850 0.319712
C73   C     C_3   0.296840 0.768186 0.818594 -0.717200
C74   C     C_3   0.435385 0.219603 0.116670 -0.719030
C75   C     C_3   0.338896 0.757221 0.947517 -0.383449
C76   C     C_3   0.246903 0.729917 0.951914 -0.842746
C77   C     C_3   0.332189 0.314992 0.998686 -0.394882
C78   C     C_R   0.399172 0.370691 0.085879 0.191850
C79   C     C_3   0.247782 0.367731 0.962194 -0.846324
C80   C     C_3   0.191161 0.140546 0.515899 -0.778238
C81   C     C_3   0.805512 0.858891 0.598353 -0.809297
C82   C     C_R   0.493137 0.440863 0.874202 0.004880
H1    H     H_    0.638568 0.546448 0.672540 0.157861
H2    H     H_    0.627969 0.857926 0.573524 0.156621
H3    H     H_    0.023059 0.655649 0.598227 0.145093
H4    H     H_    0.983078 0.329070 0.410345 0.146519
H5    H     H_    0.231572 0.538066 0.520598 0.127470
H6    H     H_    0.766603 0.466044 0.476932 0.126667
H7    H     H_    0.297874 0.352840 0.420367 0.135264
H8    H     H_    0.704609 0.641538 0.582913 0.127855
H9    H     H_    0.865914 0.675414 0.608534 0.149195
H10   H     H_    0.139884 0.310647 0.399132 0.148726
H11   H     H_    0.138073 0.588389 0.560040 0.140052
H12   H     H_    0.344527 0.489804 0.329286 0.163894
H13   H     H_    0.867530 0.397487 0.447856 0.138596
H14   H     H_    0.635814 0.553623 0.761317 0.135611
H15   H     H_    0.332631 0.495771 0.239394 0.135820
H16   H     H_    0.638099 0.515946 0.360802 0.159810
H17   H     H_    0.365645 0.461224 0.635760 0.163008
H18   H     H_    0.624694 0.520825 0.270045 0.142411
H19   H     H_    0.364635 0.469002 0.724006 0.132060
H20   H     H_    0.507027 0.721084 0.119903 0.186699
H21   H     H_    0.531736 0.301140 0.889495 0.186987
H22   H     H_    0.496073 0.724280 0.031137 0.139749
H23   H     H_    0.456640 0.210299 0.494356 0.154936
H24   H     H_    0.502449 0.303852 0.971461 0.140190
H25   H     H_    0.439902 0.785336 0.843356 0.266767
H26   H     H_    0.303370 0.759511 0.779637 0.269684
H27   H     H_    0.260791 0.835011 0.820991 0.224010
H28   H     H_    0.253168 0.720307 0.827002 0.232499
H29   H     H_    0.329902 0.312176 0.131721 0.267885
H30   H     H_    0.498300 0.230415 0.146556 0.275609
H31   H     H_    0.456686 0.198786 0.082261 0.218955
H32   H     H_    0.403114 0.166295 0.129483 0.234917
H33   H     H_    0.210951 0.701377 0.916331 0.256331
H34   H     H_    0.545021 0.787844 0.518166 0.159620
H35   H     H_    0.259132 0.681230 0.983363 0.266072
H36   H     H_    0.200679 0.787975 0.959337 0.246052
H37   H     H_    0.372297 0.787585 0.982504 0.194466
H38   H     H_    0.320903 0.812086 0.919323 0.230010
H39   H     H_    0.206904 0.411030 0.983258 0.259142
H40   H     H_    0.269840 0.408038 0.935270 0.266532
H41   H     H_    0.202058 0.322510 0.940313 0.247454
H42   H     H_    0.371947 0.271975 0.977396 0.196159
H43   H     H_    0.303847 0.269299 0.019832 0.233326
H44   H     H_    0.184369 0.041819 0.463499 0.219549
H45   H     H_    0.739233 0.259532 0.547352 0.159481
H46   H     H_    0.114646 0.148157 0.511305 0.243512
H47   H     H_    0.206141 0.193036 0.492885 0.236242
H48   H     H_    0.225951 0.146951 0.556332 0.254245
H49   H     H_    0.799597 0.984869 0.626784 0.223158
H50   H     H_    0.882921 0.849277 0.611136 0.241196
H51   H     H_    0.784709 0.830284 0.560744 0.257402
H52   H     H_    0.778562 0.824887 0.625934 0.230063
H53   H     H_    0.260272 0.741061 0.476976 0.159188
H54   H     H_    0.208059 0.894495 0.485834 0.149206
H55   H     H_    0.788793 0.107112 0.574769 0.149757
H56   H     H_    0.364721 0.147547 0.522714 0.163831
N1    N     N_R   0.496870 0.516179 0.799395 -0.355011
N2    N     N_R   0.469266 0.511069 0.195999 -0.351127
N3    N     N_R   0.731710 0.552720 0.528410 -0.097415
N4    N     N_R   0.268290 0.447280 0.471590 -0.098959
N5    N     N_2   0.388416 0.757968 0.853879 -0.302983
N6    N     N_2   0.368600 0.298509 0.106064 -0.306547
N7    N     N_2   0.221501 0.055457 0.499100 -0.310475
N8    N     N_2   0.771322 0.951367 0.595376 -0.303067
O1    O     O_R   0.383110 0.605620 0.485680 -0.616820
O2    O     O_2   0.446784 0.364202 0.194582 -0.576953
O3    O     O_2   0.498840 0.656930 0.201127 -0.567072
O4    O     O_2   0.535908 0.363519 0.807300 -0.563079
O5    O     O_R   0.616890 0.394380 0.514320 -0.616443
O6    O     O_R   0.531900 0.639510 0.503910 -0.618913
O7    O     O_R   0.468100 0.360490 0.496090 -0.620857
O8    O     O_R   0.425620 0.483050 0.562130 -0.621415
O9    O     O_R   0.574380 0.516950 0.437870 -0.617515
O10   O     O_R   0.574410 0.516930 0.580360 -0.621906
O11   O     O_R   0.425590 0.483070 0.419640 -0.621266
O12   O     O_2   0.464515 0.668111 0.789200 -0.579478
Zn1   Zn    Zn3+2 0.400660 0.477380 0.487830 0.942301
Zn2   Zn    Zn3+2 0.599340 0.522620 0.512170 0.945369

loop_
_geom_bond_atom_site_label_1
_geom_bond_atom_site_label_2
_ccdc_geom_bond_type
C21   C26   A    
C63   C65   A    
C34   C56   A    
C18   C75   S    
C23   C45   A    
C23   C82   A    
C27   C29   A    
C35   C36   A    
C12   O7    A    
C55   H11   S    
C69   H14   S    
C67   N5    S    
O6    Zn2   S    
C77   H43   S    
C81   H52   S    
C47   C49   A    
C46   H7    S    
C3    C64   A    
C79   H39   S    
C50   C54   A    
C30   C35   A    
H49   N8    S    
C40   O12   S    
C24   C26   A    
C65   H16   S    
C5    C11   A    
C74   H30   S    
C4    C65   A    
C11   C14   A    
C43   C52   A    
C14   H20   S    
C66   C69   A    
C73   H28   S    
C20   C25   A    
C74   H32   S    
C40   N1    A    
C29   C33   A    
C76   H33   S    
C56   C78   A    
C1    O6    A    
C69   C71   A    
C42   H9    S    
C32   C39   A    
C19   C77   S    
C41   N2    A    
C62   C64   A    
C66   H1    S    
C60   C82   A    
C64   H17   S    
C44   N3    A    
C49   C51   A    
C22   C25   A    
C16   O10   A    
C50   C52   A    
C37   H2    S    
C11   H22   S    
C17   O11   A    
N4    Zn1   S    
C70   H15   S    
C42   C51   A    
C62   H19   S    
C27   H34   S    
C2    C34   A    
C48   C50   A    
O1    Zn1   S    
O11   Zn1   S    
C12   O5    A    
C42   C44   A    
C2    C14   A    
H44   N7    S    
C15   C82   A    
C77   C79   S    
C40   C45   A    
C79   H40   S    
C80   H48   S    
C22   C31   A    
O10   Zn2   S    
C75   H37   S    
C46   N4    A    
C4    C68   A    
C53   C57   A    
C81   H50   S    
C71   N1    S    
C80   H46   S    
C18   C67   A    
C53   C54   A    
C74   H31   S    
C79   H41   S    
C12   C21   S    
C33   C37   A    
C22   H54   S    
O7    Zn1   S    
C19   C78   A    
C75   C76   S    
C24   C32   A    
C41   C56   A    
C5    C9    A    
C63   H18   S    
C52   C59   A    
C78   N6    S    
N3    Zn2   S    
C28   H23   S    
C29   C31   A    
C8    C18   A    
C48   H5    S    
C48   N4    A    
C51   C58   A    
C60   O4    S    
C73   H27   S    
C6    C7    A    
H29   N6    S    
C4    C17   S    
C68   C70   A    
C80   N7    S    
C21   C28   A    
C7    C19   A    
C13   C15   A    
C16   O8    A    
C9    C34   A    
C10   C23   A    
C1    O1    A    
C3    C66   A    
H25   N5    S    
C17   O9    A    
C58   H3    S    
C44   H8    S    
C73   N5    S    
C7    C9    A    
C74   N6    S    
C54   C55   A    
C1    C20   S    
C80   H47   S    
O9    Zn2   S    
C38   N7    S    
C75   H38   S    
C76   H35   S    
C13   H24   S    
C73   H26   S    
C6    C10   A    
C5    C8    A    
C2    C61   A    
C61   N2    A    
C81   H51   S    
C45   C67   A    
C20   C27   A    
C24   H55   S    
C68   H12   S    
C47   N3    A    
C43   H10   S    
C31   C38   A    
C47   H6    S    
C28   C30   A    
C59   H4    S    
O8    Zn1   S    
C37   C39   A    
C77   H42   S    
O5    Zn2   S    
C6    C13   A    
C30   C32   A    
C41   O2    S    
C36   H56   S    
C49   C53   A    
C39   N8    S    
C36   C38   A    
C33   C35   A    
C62   C71   A    
C26   H45   S    
C25   H53   S    
C43   C46   A    
C76   H36   S    
C57   C59   A    
C60   N1    A    
C72   N2    S    
C63   C72   A    
C8    C10   A    
C81   N8    S    
C57   H13   S    
C55   C58   A    
C70   C72   A    
C15   H21   S    
C61   O3    S    
C3    C16   S    
