data_mof_unit_50613.cif
_audit_creation_date              2013-03-05T16:48:16-0500
_audit_creation_method            fapswitch 2.2
_symmetry_space_group_name_H-M    P1
_symmetry_Int_Tables_number       1
_space_group_crystal_system       triclinic
_cell_length_a                    23.478845
_cell_length_b                    8.966528
_cell_length_c                    8.094384
_cell_angle_alpha                 89.45828
_cell_angle_beta                  89.971179
_cell_angle_gamma                 90.282029
_cell_volume                      1703.96277405

loop_
_atom_site_label
_atom_site_type_symbol
_atom_site_description
_atom_site_fract_x
_atom_site_fract_y
_atom_site_fract_z
_atom_type_partial_charge
O1    O     O_R   0.500000 0.285350 0.636850 -0.622673
O2    O     O_R   0.500000 0.714650 0.363150 -0.616523
O3    O     O_R   0.500000 0.714650 0.636850 -0.615346
O4    O     O_R   0.500000 0.285350 0.363150 -0.615862
H1    H     H_    0.943893 0.166269 0.722052 0.192421
H2    H     H_    0.055081 0.870496 0.435949 0.198263
H3    H     H_    0.951944 0.867735 0.408069 0.192018
H4    H     H_    0.047205 0.154301 0.705989 0.194494
C1    C     C_R   0.500047 0.217879 0.500501 0.936818
C2    C     C_R   0.500005 0.782122 0.499508 0.940280
O5    O     O_R   0.416160 0.500000 0.636910 -0.630602
O6    O     O_R   0.583840 0.500000 0.363090 -0.625108
O7    O     O_R   0.583840 0.500000 0.636910 -0.625492
O8    O     O_R   0.416160 0.500000 0.363090 -0.612863
C3    C     C_R   0.208069 0.496117 0.539740 0.217118
C4    C     C_R   0.790832 0.512680 0.528643 0.219541
C5    C     C_R   0.389029 0.495609 0.500131 0.856287
C6    C     C_R   0.610546 0.500700 0.500077 0.893591
Zn1   Zn    Zn3+2 0.500000 0.500000 0.682780 0.969390
Zn2   Zn    Zn3+2 0.500000 0.500000 0.317220 0.975129
H5    H     H_    0.208210 0.614325 0.307135 0.170479
H6    H     H_    0.787059 0.281835 0.455140 0.175400
H7    H     H_    0.221386 0.371302 0.764435 0.172903
H8    H     H_    0.779940 0.742199 0.599327 0.176081
C7    C     C_R   0.293308 0.565279 0.386137 0.093130
C8    C     C_R   0.703425 0.373679 0.479898 0.086955
C9    C     C_R   0.299428 0.400602 0.630172 0.103158
C10   C     C_R   0.700136 0.641294 0.535604 0.091000
C11   C     C_R   0.326758 0.485134 0.502983 -0.123054
C12   C     C_R   0.672206 0.505679 0.501693 -0.072579
C13   C     C_R   0.882472 0.634224 0.481131 0.515315
C14   C     C_R   0.116953 0.376144 0.597997 0.510293
C15   C     C_R   0.879060 0.399306 0.623151 0.514006
C16   C     C_R   0.120031 0.636466 0.531082 0.506013
N1    N     N_R   0.851913 0.515807 0.545149 -0.339877
N2    N     N_R   0.147243 0.503306 0.558984 -0.342281
C17   C     C_R   0.938441 0.391984 0.623582 -0.010984
C18   C     C_R   0.060663 0.641581 0.524695 -0.013045
C19   C     C_R   0.941469 0.641319 0.501575 -0.010688
C20   C     C_R   0.057789 0.381322 0.614345 -0.013114
C21   C     C_R   0.969720 0.515916 0.565968 -0.021621
C22   C     C_R   0.029458 0.513296 0.569516 -0.021490
C23   C     C_R   0.967107 0.263561 0.678182 -0.162404
C24   C     C_R   0.031949 0.770366 0.471392 -0.162695
C25   C     C_R   0.972882 0.768748 0.455265 -0.163837
C26   C     C_R   0.026284 0.256719 0.669021 -0.164690
C27   C     C_1   0.500067 0.065103 0.500725 -0.203888
C28   C     C_1   0.500050 0.934906 0.499326 -0.206744
C29   C     C_R   0.234159 0.561003 0.401063 -0.134834
C30   C     C_R   0.762746 0.380969 0.482181 -0.122085
C31   C     C_R   0.241314 0.420781 0.656262 -0.122869
C32   C     C_R   0.758860 0.640981 0.559829 -0.126737
N3    N     N_1   0.500000 0.500000 0.073640 -0.037923
N4    N     N_1   0.500000 0.500000 0.926360 -0.039172
O9    O     O_2   0.856255 0.743218 0.394286 -0.569699
O10   O     O_2   0.143618 0.244018 0.616310 -0.561701
O11   O     O_2   0.848841 0.291124 0.700927 -0.568750
O12   O     O_2   0.150302 0.763464 0.508747 -0.556296
C33   C     C_3   0.318060 0.661764 0.248548 -0.375910
C34   C     C_3   0.324173 0.573765 0.089029 -0.811247
H9    H     H_    0.351950 0.475392 0.108230 0.269723
H10   H     H_    0.281722 0.535203 0.045851 0.243416
H11   H     H_    0.343367 0.646053 0.991539 0.249927
H12   H     H_    0.289581 0.758223 0.223884 0.207496
H13   H     H_    0.359383 0.712412 0.284299 0.214799
C35   C     C_3   0.674375 0.223405 0.467970 -0.427805
C36   C     C_3   0.655708 0.168968 0.639596 -0.826869
H14   H     H_    0.693627 0.137631 0.714134 0.269940
H15   H     H_    0.631894 0.255785 0.706919 0.274817
H16   H     H_    0.627071 0.070984 0.628720 0.243155
H17   H     H_    0.637002 0.230041 0.384193 0.208963
H18   H     H_    0.703752 0.139858 0.414550 0.222030
C37   C     C_3   0.329402 0.283610 0.736189 -0.421496
C38   C     C_3   0.303175 0.128635 0.713173 -0.801665
H19   H     H_    0.258590 0.124778 0.758717 0.286075
H20   H     H_    0.303987 0.097747 0.580574 0.267712
H21   H     H_    0.328136 0.045010 0.784319 0.241027
H22   H     H_    0.374993 0.271542 0.705309 0.233282
H23   H     H_    0.326419 0.314796 0.868226 0.210277
C39   C     C_3   0.668509 0.787490 0.541536 -0.432125
C40   C     C_3   0.653376 0.840885 0.366976 -0.828211
H24   H     H_    0.692798 0.869660 0.297509 0.270273
H25   H     H_    0.629708 0.754255 0.298124 0.273444
H26   H     H_    0.625924 0.940855 0.372758 0.244294
H27   H     H_    0.629377 0.776226 0.617811 0.211396
H28   H     H_    0.695389 0.874109 0.600539 0.220728

loop_
_geom_bond_atom_site_label_1
_geom_bond_atom_site_label_2
_geom_bond_distance
_ccdc_geom_bond_type
H8    C32   1.082629 S    
C9    C11   1.423361 A    
C5    C11   1.464753 S    
C21   C22   1.403196 A    
H5    C29   1.083648 S    
C40   H24   1.110782 S    
C19   C21   1.404483 A    
N3    N4    1.192140 T    
C20   C26   1.404810 A    
O5    Zn1   2.003362 S    
C33   H12   1.112455 S    
C38   H20   1.111178 S    
O7    C6    1.272424 A    
C34   H11   1.110417 S    
H3    C25   1.083273 S    
C4    C30   1.404283 A    
C18   C22   1.405381 A    
C8    C30   1.394154 A    
C4    N1    1.440553 S    
C34   H10   1.111014 S    
C37   C38   1.530182 S    
C39   H28   1.110004 S    
C35   H18   1.111221 S    
C35   H17   1.110713 S    
C38   H21   1.110774 S    
C37   H22   1.105141 S    
O3    Zn1   1.956788 S    
C6    C12   1.448246 S    
C3    C31   1.396083 A    
C19   C25   1.404748 A    
C14   C20   1.396373 A    
C35   C36   1.531239 S    
H1    C23   1.083259 S    
C33   C34   1.526628 S    
H2    C24   1.083305 S    
O8    C5    1.279061 A    
C40   H25   1.107702 S    
C9    C31   1.393526 A    
C7    C29   1.394234 A    
C7    C11   1.421697 A    
O1    Zn1   1.963691 S    
C38   H19   1.109918 S    
O7    Zn1   2.002993 S    
O2    Zn2   1.963691 S    
C36   H14   1.111489 S    
C8    C35   1.511148 S    
O8    Zn2   2.002995 S    
O1    C1    1.263607 A    
C39   C40   1.530131 S    
C15   C17   1.396076 A    
C34   H9    1.109371 S    
C36   H15   1.107941 S    
C17   C23   1.404482 A    
C18   C24   1.404506 A    
C39   H27   1.110330 S    
H7    C31   1.082876 S    
C27   C28   1.167575 T    
O6    Zn2   2.003360 S    
C37   H23   1.109553 S    
Zn1   N4    1.971630 S    
C8    C12   1.407695 A    
C2    C28   1.369925 S    
C13   N1    1.375651 A    
O2    C2    1.263669 A    
C14   N2    1.374958 A    
C3    N2    1.438336 S    
C40   H26   1.107955 S    
C24   C25   1.393038 A    
O5    C5    1.278427 A    
C15   O11   1.349774 S    
C16   C18   1.395842 A    
C4    C32   1.401586 A    
Zn2   N3    1.971630 S    
C1    C27   1.369858 S    
H6    C30   1.082786 S    
C36   H16   1.107897 S    
C10   C12   1.408074 A    
O3    C2    1.260621 A    
C33   H13   1.108921 S    
C10   C32   1.392765 A    
C20   C22   1.405106 A    
C15   N1    1.374992 A    
C13   C19   1.396338 A    
C16   N2    1.373814 A    
C3    C29   1.399001 A    
C17   C21   1.404806 A    
C10   C39   1.510905 S    
C23   C26   1.393030 A    
H4    C26   1.083304 S    
O4    Zn2   1.956789 S    
O6    C6    1.274161 A    
C16   O12   1.350012 S    
C7    C33   1.517469 S    
C13   O9    1.349632 S    
O4    C1    1.260688 A    
C9    C37   1.524125 S    
C14   O10   1.349649 S    
