data_mof_unit_17525.cif
_audit_creation_date              2012-12-11T15:10:39-0500
_audit_creation_method            fapswitch 2.2
_symmetry_space_group_name_H-M    P1
_symmetry_Int_Tables_number       1
_space_group_crystal_system       triclinic
_cell_length_a                    21.045796
_cell_length_b                    7.228808
_cell_length_c                    18.387989
_cell_angle_alpha                 89.76145
_cell_angle_beta                  93.313086
_cell_angle_gamma                 89.498682
_cell_volume                      2792.66240673

loop_
_atom_site_label
_atom_site_type_symbol
_atom_type_description
_atom_site_fract_x
_atom_site_fract_y
_atom_site_fract_z
_atom_type_partial_charge
O1    O     O_R   0.448880 0.506250 0.415280 -0.510938
O2    O     O_R   0.551120 0.006250 0.584720 -0.530739
O3    O     O_R   0.434830 0.174000 0.557310 -0.521152
O4    O     O_R   0.565170 0.674000 0.442690 -0.503516
C1    C     C_R   0.417425 0.344559 0.580223 0.734625
C2    C     C_R   0.582566 0.844322 0.419682 0.733790
O5    O     O_R   0.441680 0.176440 0.414130 -0.532408
O6    O     O_R   0.558320 0.676440 0.585870 -0.512717
O7    O     O_R   0.558020 0.007570 0.440520 -0.523986
O8    O     O_R   0.441980 0.507570 0.559480 -0.504413
C3    C     C_R   0.425510 0.346361 0.390288 0.783734
C4    C     C_R   0.575065 0.844016 0.609368 0.787475
O9    O     O_3   0.538160 0.339670 0.508820 -0.358833
O10   O     O_3   0.461840 0.839670 0.491180 -0.351468
V1    V     V_3+5 0.492920 0.064260 0.498360 1.568199
V2    V     V_3+5 0.507080 0.564260 0.501640 1.612554
C5    C     C_R   0.881411 0.951231 0.687211 0.295966
C6    C     C_R   0.114544 0.475699 0.313743 0.299306
C7    C     C_R   0.889023 0.942619 0.819143 -0.167954
C8    C     C_R   0.109050 0.438099 0.182234 -0.162043
C9    C     C_R   0.585129 0.863816 0.743628 0.042163
C10   C     C_R   0.412087 0.304892 0.257404 0.048719
C11   C     C_R   0.619086 0.837522 0.811038 0.206748
C12   C     C_R   0.374265 0.248627 0.196129 0.202599
C13   C     C_R   0.685336 0.809828 0.813778 0.201229
C14   C     C_R   0.307576 0.249328 0.198030 0.201007
C15   C     C_R   0.719550 0.838856 0.750458 -0.008658
C16   C     C_R   0.277619 0.337671 0.256068 -0.009517
C17   C     C_R   0.684999 0.825949 0.681282 -0.069937
C18   C     C_R   0.315635 0.379794 0.321017 -0.070114
C19   C     C_R   0.786786 0.874805 0.753084 0.062098
C20   C     C_R   0.210760 0.383002 0.252292 0.065963
C21   C     C_R   0.818522 0.880895 0.686975 -0.112424
C22   C     C_R   0.180035 0.422010 0.317566 -0.100968
C23   C     C_R   0.787625 0.807710 0.623585 0.213656
C24   C     C_R   0.217241 0.419088 0.383786 0.223532
C25   C     C_R   0.721094 0.782103 0.620276 0.170050
C26   C     C_R   0.283248 0.434941 0.383058 0.165639
C27   C     C_R   0.823064 0.915554 0.818567 -0.175802
C28   C     C_R   0.174712 0.402759 0.185056 -0.159962
C29   C     C_R   0.917743 0.968835 0.753177 0.216827
C30   C     C_R   0.078834 0.472501 0.246717 0.213549
C31   C     C_R   0.616500 0.845219 0.678116 -0.140846
C32   C     C_R   0.383532 0.354251 0.322103 -0.135983
H1    H     H_    0.801267 0.931207 0.869723 0.172303
H2    H     H_    0.197520 0.399106 0.133967 0.167379
C33   C     C_1   0.864473 0.939687 0.132113 -0.118285
C34   C     C_1   0.135389 0.438261 0.867827 -0.124312
C35   C     C_1   0.821579 0.925490 0.175800 0.076614
C36   C     C_1   0.178257 0.424173 0.824078 0.070715
C37   C     C_1   0.770940 0.905960 0.227771 0.068444
C38   C     C_1   0.228892 0.405229 0.772049 0.065970
C39   C     C_1   0.728285 0.888948 0.271612 0.065855
C40   C     C_1   0.271576 0.388813 0.728179 0.066824
C41   C     C_1   0.677635 0.869456 0.323559 0.074573
C42   C     C_1   0.322281 0.369954 0.676250 0.078751
C43   C     C_1   0.634748 0.855304 0.367243 -0.100532
C44   C     C_1   0.365220 0.356033 0.632602 -0.096944
O11   O     O_R   0.058070 0.289240 0.940580 -0.514499
O12   O     O_R   0.941930 0.789240 0.059420 -0.513642
O13   O     O_R   0.058330 0.616740 0.085880 -0.524486
O14   O     O_R   0.941670 0.116740 0.914120 -0.526865
C45   C     C_R   0.071959 0.447817 0.111578 0.759478
C46   C     C_R   0.927766 0.949439 0.888616 0.759375
O15   O     O_R   0.065180 0.619040 0.942700 -0.523844
O16   O     O_R   0.934820 0.119040 0.057300 -0.523712
O17   O     O_R   0.948870 0.787780 0.915270 -0.525720
O18   O     O_R   0.051130 0.287780 0.084730 -0.524001
C47   C     C_R   0.083165 0.450086 0.920174 0.710137
C48   C     C_R   0.916769 0.950613 0.079826 0.713398
O19   O     O_3   0.961870 0.453310 0.991210 -0.366288
O20   O     O_3   0.038130 0.953310 0.008790 -0.364966
V3    V     V_3+5 0.007070 0.728770 0.001630 1.560606
V4    V     V_3+5 0.992930 0.228770 0.998370 1.560349
Br1   Br    Br    0.006546 0.034211 0.753507 -0.429264
Br2   Br    Br    0.988434 0.526015 0.242002 -0.433015
I1    I     I_    0.843698 0.679340 0.542534 -0.067327
I2    I     I_    0.182113 0.332203 0.485539 -0.123601
Br3   Br    Br    0.912802 0.071021 0.602325 -0.304432
Br4   Br    Br    0.075393 0.599688 0.392930 -0.292710
I3    I     I_    0.483889 0.909366 0.740156 -0.302063
I4    I     I_    0.514064 0.299819 0.255561 -0.294495
Br5   Br    Br    0.722629 0.669733 0.895888 -0.495502
Br6   Br    Br    0.260903 0.082549 0.132612 -0.502306
I5    I     I_    0.570590 0.835187 0.910362 -0.123239
I6    I     I_    0.417736 0.151305 0.100803 -0.133827
Br7   Br    Br    0.686442 0.638605 0.539975 -0.506555
Br8   Br    Br    0.320219 0.582388 0.460667 -0.499391

loop_
_geom_bond_atom_site_label_1
_geom_bond_atom_site_label_2
_ccdc_geom_bond_type
C15   C17   A    
O1    C3    A    
C34   C47   S    
O2    C4    A    
C2    O7    A    
C33   C35   T    
O5    C3    A    
C1    C44   S    
C10   I4    S    
C23   C25   A    
C12   C14   A    
C4    C31   S    
C6    C30   A    
C8    C28   A    
O18   V4    S    
O16   V4    S    
O12   V3    S    
C5    Br3   S    
O15   V3    S    
C18   C26   A    
O13   C45   A    
O14   C46   A    
C9    C31   A    
C10   C32   A    
C42   C44   T    
C35   C37   S    
C36   C38   S    
C19   C21   A    
O17   V3    S    
C27   H1    S    
C34   C36   T    
O6    V2    S    
C17   C31   A    
C2    C43   S    
C18   C32   A    
C5    C21   A    
C38   C40   T    
C39   C41   S    
C40   C42   S    
C15   C19   A    
C46   O17   A    
C16   C20   A    
O4    C2    A    
O5    V1    S    
O13   V3    S    
C23   I1    S    
C26   Br8   S    
C37   C39   T    
C20   C22   A    
O4    V2    S    
C28   H2    S    
C33   C48   S    
C29   Br1   S    
O12   C48   A    
C7    C46   S    
O6    C4    A    
C3    C32   S    
O1    V2    S    
O2    V1    S    
C6    C22   A    
O11   V4    S    
C7    C27   A    
O11   C47   A    
C9    I3    S    
C41   C43   T    
C10   C12   A    
O3    V1    S    
C45   O18   A    
C14   Br6   S    
C30   Br2   S    
C25   Br7   S    
O20   V3    S    
O3    C1    A    
O19   V4    S    
C8    C30   A    
C13   C15   A    
C14   C16   A    
C8    C45   S    
C9    C11   A    
O7    V1    S    
C16   C18   A    
O8    V2    S    
O16   C48   A    
O15   C47   A    
C24   C26   A    
C21   C23   A    
C19   C27   A    
C22   C24   A    
C20   C28   A    
C5    C29   A    
C1    O8    A    
C11   C13   A    
C6    Br4   S    
C11   I5    S    
O9    V2    S    
C17   C25   A    
C13   Br5   S    
O10   V1    S    
O14   V4    S    
C24   I2    S    
C12   I6    S    
C7    C29   A    
