data_mof_unit_50415.cif
_audit_creation_date              2012-12-11T18:11:06-0500
_audit_creation_method            fapswitch 2.2
_symmetry_space_group_name_H-M    P1
_symmetry_Int_Tables_number       1
_space_group_crystal_system       triclinic
_cell_length_a                    8.335689
_cell_length_b                    12.956272
_cell_length_c                    18.85821
_cell_angle_alpha                 99.728582
_cell_angle_beta                  91.148707
_cell_angle_gamma                 99.802177
_cell_volume                      1975.58240265

loop_
_atom_site_label
_atom_site_type_symbol
_atom_type_description
_atom_site_fract_x
_atom_site_fract_y
_atom_site_fract_z
_atom_type_partial_charge
Ba1   Ba    Ba6+2 0.852780 0.548340 0.465070 1.694311
Ba2   Ba    Ba6+2 0.337060 0.451750 0.534940 1.735480
C1    C     C_3   0.597715 0.889486 0.247508 -0.408555
C2    C     C_3   0.639262 0.811828 0.294131 0.355764
C3    C     C_3   0.457570 0.276018 0.317471 0.314086
C4    C     C_3   0.434494 0.241489 0.236202 -0.395792
C5    C     C_3   0.023339 0.174396 0.737697 0.361729
C6    C     C_3   0.097766 0.170575 0.814621 -0.085579
C7    C     C_3   0.500163 0.187246 0.740519 0.335853
C8    C     C_3   0.620231 0.188206 0.802367 -0.440752
C9    C     C_R   0.994228 0.448404 0.050552 0.014339
C10   C     C_R   0.903677 0.387111 0.096529 -0.092778
C11   C     C_R   0.764612 0.427024 0.961792 -0.085457
C12   C     C_3   0.135112 0.752601 0.261215 0.345494
C13   C     C_R   0.930315 0.459103 0.981628 -0.004235
C14   C     C_R   0.698183 0.440225 0.896030 -0.003417
C15   C     C_R   0.802158 0.472969 0.841633 -0.055857
C16   C     C_R   0.967555 0.518432 0.863224 0.036923
C17   C     C_R   0.029978 0.512523 0.934199 0.032366
C18   C     C_R   0.750507 0.464058 0.767640 0.110321
C19   C     C_R   0.858885 0.507483 0.719371 -0.137476
C20   C     C_R   0.017287 0.561139 0.740011 -0.061474
C21   C     C_R   0.069169 0.573209 0.815462 -0.018598
C22   C     C_R   0.154563 0.499260 0.074330 0.025805
C23   C     C_3   0.115687 0.774585 0.185102 -0.345846
C24   C     C_R   0.214545 0.496922 0.145738 -0.000480
C25   C     C_R   0.112964 0.445385 0.193753 -0.039226
C26   C     C_R   0.961377 0.386175 0.166331 -0.027485
C27   C     C_R   0.217452 0.636360 0.846656 0.028443
C28   C     C_R   0.277292 0.626996 0.914612 -0.139033
C29   C     C_R   0.190499 0.562056 0.958160 0.008077
C30   C     C_R   0.254461 0.554318 0.027760 0.018601
C31   C     C_R   0.417491 0.597885 0.051940 -0.115308
C32   C     C_R   0.376196 0.546335 0.169016 -0.035623
C33   C     C_R   0.476938 0.592569 0.120198 -0.099288
C34   C     C_3   0.305270 0.789512 0.640057 0.253883
C35   C     C_R   0.432251 0.548709 0.240554 -0.007523
C36   C     C_R   0.325556 0.506764 0.289010 -0.299040
C37   C     C_R   0.167419 0.453971 0.267124 0.028937
C38   C     C_R   0.768261 0.179309 0.525615 -0.260509
C39   C     C_R   0.440445 0.805358 0.461609 -0.255272
C40   C     C_R   0.409936 0.980553 0.440530 -0.083392
C41   C     C_R   0.349105 0.872099 0.433184 0.039901
C42   C     C_R   0.583304 0.846990 0.505006 0.005496
C43   C     C_R   0.647105 0.958817 0.511923 -0.051700
C44   C     C_R   0.558685 0.025875 0.479027 -0.045111
C45   C     C_3   0.412296 0.886403 0.685029 -0.401694
C46   C     C_R   0.619887 0.137170 0.486847 0.009363
C47   C     C_R   0.859074 0.114681 0.555677 0.011832
C48   C     C_R   0.797863 0.005668 0.549197 -0.112450
C49   C     C_3   0.960529 0.215152 0.380122 0.287699
C50   C     C_3   0.936992 0.094460 0.362238 -0.362596
C51   C     C_3   0.812787 0.769156 0.685022 0.326476
C52   C     C_3   0.926353 0.874904 0.704507 -0.385155
H1    H     H_    0.726943 0.855399 0.338721 0.070249
H2    H     H_    0.485483 0.863999 0.727384 0.208350
H3    H     H_    0.496198 0.926737 0.649718 0.056654
H4    H     H_    0.337784 0.941530 0.712291 0.070899
H5    H     H_    0.846661 0.239561 0.399951 -0.000823
H6    H     H_    0.060123 0.243113 0.422360 0.076811
H7    H     H_    0.832143 0.064110 0.322906 0.110972
H8    H     H_    0.912957 0.059272 0.411301 0.087879
H9    H     H_    0.048492 0.069456 0.338829 0.139510
H10   H     H_    0.873086 0.708459 0.652645 -0.011704
H11   H     H_    0.544887 0.953483 0.280752 0.089638
H12   H     H_    0.981246 0.900281 0.656660 0.123866
H13   H     H_    0.025463 0.867052 0.740996 0.178070
H14   H     H_    0.857898 0.936318 0.730400 0.105802
H15   H     H_    0.525001 0.779365 0.318031 -0.068416
H16   H     H_    0.507279 0.847085 0.203693 0.116001
H17   H     H_    0.340828 0.295318 0.338588 0.014398
H18   H     H_    0.554116 0.348079 0.328794 0.059627
H19   H     H_    0.336408 0.170564 0.222945 0.127418
H20   H     H_    0.400183 0.306700 0.211135 0.056267
H21   H     H_    0.549750 0.221587 0.213644 0.120465
H22   H     H_    0.709127 0.925459 0.223141 0.133002
H23   H     H_    0.154065 0.710741 0.145903 0.073930
H24   H     H_    0.902580 0.121600 0.728132 -0.053688
H25   H     H_    0.219165 0.221605 0.822505 0.178826
H26   H     H_    0.400509 0.121705 0.745551 0.087176
H27   H     H_    0.724339 0.253281 0.804126 0.117079
H28   H     H_    0.662929 0.110694 0.796175 0.095971
H29   H     H_    0.054555 0.676331 0.265212 0.082440
H30   H     H_    0.559661 0.199523 0.854312 0.109175
H31   H     H_    0.818573 0.497858 0.663340 0.050514
H32   H     H_    0.884901 0.337945 0.198267 0.097480
H33   H     H_    0.603663 0.625829 0.133768 0.114691
H34   H     H_    0.368423 0.511948 0.344255 0.068367
H35   H     H_    0.680316 0.399860 0.000122 0.075329
H36   H     H_    0.787592 0.337066 0.079606 0.058500
H37   H     H_    0.388050 0.680424 0.935584 0.083983
H38   H     H_    0.263960 0.745409 0.271266 -0.082563
H39   H     H_    0.505833 0.633375 0.018208 0.078988
H40   H     H_    0.336458 0.029043 0.417724 0.092397
H41   H     H_    0.871943 0.958361 0.571448 0.120418
H42   H     H_    0.816206 0.263402 0.530576 0.067210
H43   H     H_    0.391782 0.721234 0.455407 0.072511
H44   H     H_    0.986321 0.777887 0.172161 0.148623
H45   H     H_    0.192626 0.851659 0.180117 0.111773
H46   H     H_    0.383438 0.733269 0.617104 0.056508
O1    O     O_2   0.873090 0.425890 0.325140 -0.464134
O2    O     O_3   0.675051 0.787274 0.649608 -0.667679
O3    O     O_3   0.091129 0.836590 0.309794 -0.609936
O4    O     O_2   0.316610 0.574140 0.674900 -0.421822
O5    O     O_3   0.067290 0.565720 0.585630 -0.462158
O6    O     O_3   0.530210 0.372990 0.631200 -0.454822
O7    O     O_3   0.190855 0.744415 0.683417 -0.653771
O8    O     O_3   0.611340 0.366290 0.463630 -0.481056
O9    O     O_3   0.108550 0.314140 0.595200 -0.467635
O10   O     O_2   0.187343 0.126038 0.544636 -0.455150
O11   O     O_3   0.125952 0.143660 0.681081 -0.621960
O12   O     O_3   0.122420 0.434370 0.414380 -0.499445
O13   O     O_3   0.578370 0.633800 0.536380 -0.469299
O14   O     O_2   0.341510 0.231850 0.465510 -0.467831
O15   O     O_3   0.503157 0.192749 0.347687 -0.646359
O16   O     O_2   0.438571 0.474088 0.747528 -0.411957
O17   O     O_3   0.429250 0.279634 0.749560 -0.566589
O18   O     O_3   0.659500 0.627100 0.368810 -0.479129
O19   O     O_2   0.767227 0.540464 0.245394 -0.489937
O20   O     O_3   0.998101 0.255636 0.317232 -0.641248
O21   O     O_3   0.712159 0.733858 0.251775 -0.595420
O22   O     O_2   0.848200 0.768190 0.534530 -0.423121
O23   O     O_3   0.081160 0.685950 0.404810 -0.436352
O24   O     O_2   0.015288 0.877602 0.443251 -0.423184
P1    P     P_3+3 0.041040 0.394770 0.336330 0.964279
P2    P     P_3+3 0.672880 0.754030 0.556100 0.982378
P3    P     P_3+3 0.136275 0.819597 0.397589 1.036081
P4    P     P_3+3 0.148670 0.605320 0.663680 1.010099
P5    P     P_3+3 0.066925 0.174242 0.595718 1.008496
P6    P     P_3+3 0.642111 0.609676 0.275503 0.949478
P7    P     P_3+3 0.521523 0.230325 0.441561 0.933973
P8    P     P_3+3 0.548338 0.392197 0.725119 1.042195
C53   C     C_2   0.756895 0.728851 0.752028 0.830434
O25   O     O_2   0.641057 0.656302 0.746650 -0.573685
O26   O     O_R   0.832961 0.773161 0.819762 -0.747325
H47   H     H_    0.782666 0.736646 0.859567 0.318597
C54   C     C_2   0.007305 0.285482 0.737045 0.765158
O27   O     O_2   0.892430 0.303385 0.703742 -0.739374
O28   O     O_R   0.140503 0.364371 0.759975 -0.732150
H48   H     H_    0.161476 0.411054 0.722604 0.336029
C55   C     C_3   0.000128 0.214400 0.877816 -0.472759
H49   H     H_    0.882767 0.160702 0.880550 0.140194
H50   H     H_    0.070822 0.221708 0.929576 0.142964
H51   H     H_    0.977042 0.294629 0.873742 0.133739
C56   C     C_3   0.123699 0.060848 0.824528 -0.411409
H52   H     H_    0.211166 0.067434 0.871029 0.124339
H53   H     H_    0.007910 0.010872 0.835212 0.176129
H54   H     H_    0.175630 0.023458 0.776069 0.126071
C57   C     C_3   0.561081 0.154645 0.665745 -0.317951
H55   H     H_    0.457031 0.129689 0.625593 0.125947
H56   H     H_    0.643530 0.219479 0.648518 0.139360
H57   H     H_    0.629412 0.088729 0.665696 0.046813
C58   C     C_3   0.517524 0.438596 0.894138 -0.351297
H58   H     H_    0.491057 0.507852 0.872349 0.161644
H59   H     H_    0.448892 0.362445 0.866481 0.156333
H60   H     H_    0.470094 0.446195 0.948685 0.091342
C59   C     C_2   0.288682 0.736526 0.825174 0.900359
O29   O     O_2   0.435187 0.756933 0.818632 -0.604161
O30   O     O_R   0.195387 0.816286 0.828222 -0.745850
H61   H     H_    0.265090 0.887103 0.825026 0.294744
C60   C     C_2   0.212515 0.816923 0.580139 0.752310
O31   O     O_2   0.140978 0.742773 0.537039 -0.519662
O32   O     O_R   0.199857 0.920367 0.571317 -0.741920
H62   H     H_    0.253461 0.978966 0.610820 0.282999

loop_
_geom_bond_atom_site_label_1
_geom_bond_atom_site_label_2
_ccdc_geom_bond_type
Ba2   O9    S    
C59   O29   D    
C37   P1    S    
C32   C35   A    
C7    O17   S    
O14   P7    D    
C6    C56   S    
O21   P6    S    
C17   C29   A    
C15   C18   A    
Ba1   O23   S    
C60   O31   D    
C5    C6    S    
O15   P7    S    
C43   C44   A    
O6    P8    S    
C54   O28   S    
C7    C57   S    
C24   C25   A    
C35   C36   A    
C10   C26   A    
C23   H23   S    
C21   C27   A    
C10   H36   S    
C20   P4    S    
C22   C24   A    
O7    P4    S    
Ba1   Ba2   S    
C3    H18   S    
C50   H7    S    
C57   H56   S    
Ba1   O12   S    
C56   H52   S    
C3    C4    S    
C31   C33   A    
C51   H10   S    
C48   H41   S    
C52   H14   S    
C33   H33   S    
C38   C47   A    
C9    C22   A    
O19   P6    D    
C35   P6    S    
O10   P5    D    
C15   C16   A    
C32   C33   A    
C40   C44   A    
C8    H30   S    
O17   P8    S    
Ba1   O22   S    
O8    P7    S    
C60   O32   S    
C9    C13   A    
C23   H45   S    
O32   H62   S    
C25   C37   A    
C14   C15   A    
O4    P4    D    
C6    H25   S    
O1    P1    D    
C46   P7    S    
C6    C55   S    
C58   H59   S    
O3    P3    S    
C7    C8    S    
C11   H35   S    
C59   O30   S    
C19   C20   A    
C3    O15   S    
C34   O7    S    
C39   C41   A    
C1    H11   S    
Ba1   O13   S    
C12   H29   S    
C18   P8    S    
C2    H15   S    
C56   H53   S    
O11   P5    S    
C4    H20   S    
C19   H31   S    
C44   C46   A    
C49   C50   S    
C5    O11   S    
O26   H47   S    
C1    H16   S    
C51   C53   S    
Ba1   P2    S    
C57   H57   S    
C41   P3    S    
C5    C54   S    
O20   P1    S    
C16   C17   A    
C27   C59   S    
C52   H13   S    
C51   C52   S    
C47   P5    S    
C8    H28   S    
C16   C21   A    
C36   H34   S    
C7    H26   S    
O22   P2    D    
C13   C17   A    
C22   C30   A    
C27   C28   A    
O18   P6    S    
C45   H3    S    
O23   P3    S    
O30   H61   S    
O16   P8    D    
Ba2   O4    S    
C51   O2    S    
C9    C10   A    
C42   P2    S    
C49   O20   S    
C34   H46   S    
C58   H60   S    
C1    H22   S    
C12   H38   S    
O12   P1    S    
O24   P3    D    
C11   C13   A    
C2    H1    S    
O9    P5    S    
C53   O25   D    
C39   C42   A    
C39   H43   S    
C34   C45   S    
C55   H51   S    
C34   C60   S    
C40   C41   A    
C1    C2    S    
Ba1   O1    S    
C14   C58   S    
C56   H54   S    
C42   C43   A    
C4    H19   S    
C38   C46   A    
C8    H27   S    
O5    P4    S    
C24   C32   A    
C40   H40   S    
C29   C30   A    
Ba1   P1    S    
C28   H37   S    
O2    P2    S    
C50   H9    S    
C31   H39   S    
O28   H48   S    
C52   H12   S    
C54   O27   D    
Ba2   O5    S    
Ba2   P4    S    
C30   C31   A    
C55   H50   S    
C38   H42   S    
C3    H17   S    
C50   H8    S    
C57   H55   S    
C45   H4    S    
C26   H32   S    
Ba2   O14   S    
C28   C29   A    
C12   O3    S    
C36   C37   A    
C43   C48   A    
Ba2   O8    S    
Ba2   O13   S    
Ba2   O12   S    
Ba2   O6    S    
C2    O21   S    
Ba1   O18   S    
C12   C23   S    
O13   P2    S    
Ba1   O8    S    
C5    H24   S    
C23   H44   S    
C49   H5    S    
C18   C19   A    
C47   C48   A    
C11   C14   A    
C25   C26   A    
C53   O26   S    
C20   C21   A    
C49   H6    S    
C58   H58   S    
C55   H49   S    
Ba1   O5    S    
C45   H2    S    
C4    H21   S    
