data_mof_unit_66316.cif
_audit_creation_date              2012-12-10T19:58:44-0500
_audit_creation_method            fapswitch 2.2
_symmetry_space_group_name_H-M    P1
_symmetry_Int_Tables_number       1
_space_group_crystal_system       triclinic
_cell_length_a                    15.022817
_cell_length_b                    14.207723
_cell_length_c                    19.045852
_cell_angle_alpha                 90.641497
_cell_angle_beta                  93.697677
_cell_angle_gamma                 89.530483
_cell_volume                      4056.31639439

loop_
_atom_site_label
_atom_site_type_symbol
_atom_type_description
_atom_site_fract_x
_atom_site_fract_y
_atom_site_fract_z
_atom_type_partial_charge
C1    C     C_R   0.327798 0.500242 0.500340 0.907609
C2    C     C_R   0.672328 0.499634 0.497897 0.857177
C3    C     C_R   0.185909 0.565416 0.539423 0.397135
C4    C     C_R   0.819495 0.419127 0.510226 0.408813
C5    C     C_R   0.809445 0.578519 0.462776 0.414446
C6    C     C_R   0.184844 0.437230 0.451852 0.424136
C7    C     C_R   0.231490 0.500206 0.498152 -0.251295
C8    C     C_R   0.768078 0.498959 0.490208 -0.285015
C9    C     C_R   0.047313 0.504828 0.487128 0.041540
C10   C     C_R   0.951663 0.502403 0.484248 0.036712
C11   C     C_R   0.488809 0.102981 0.436961 0.215403
C12   C     C_R   0.573277 0.894022 0.534486 0.236575
C13   C     C_R   0.517868 0.105871 0.563643 0.215271
C14   C     C_R   0.429309 0.896239 0.467685 0.256746
C15   C     C_R   0.474674 0.203546 0.439100 0.392385
C16   C     C_R   0.568306 0.793119 0.537339 0.406696
C17   C     C_R   0.529146 0.206236 0.560541 0.390950
C18   C     C_R   0.432412 0.795904 0.464048 0.380020
C19   C     C_R   0.503586 0.053493 0.500599 -0.095438
C20   C     C_R   0.501744 0.946265 0.501345 -0.087443
C21   C     C_R   0.506917 0.499497 0.365633 0.932499
C22   C     C_R   0.493407 0.500390 0.634457 0.931358
C23   C     C_R   0.437785 0.416989 0.738113 0.322053
C24   C     C_R   0.513046 0.575743 0.247573 0.290777
C25   C     C_R   0.571688 0.415993 0.264026 0.321593
C26   C     C_R   0.491607 0.578128 0.753576 0.274270
C27   C     C_R   0.443110 0.405302 0.811362 0.332739
C28   C     C_R   0.531275 0.569350 0.176251 0.316260
C29   C     C_R   0.578405 0.406136 0.191577 0.331200
C30   C     C_R   0.480749 0.570858 0.825829 0.302478
C31   C     C_R   0.469636 0.481812 0.854583 -0.251627
C32   C     C_R   0.554115 0.481852 0.147931 -0.275374
C33   C     C_R   0.473508 0.499465 0.709359 -0.404789
C34   C     C_R   0.530436 0.497442 0.291592 -0.426652
C35   C     C_R   0.580668 0.493158 0.955207 -0.145816
C36   C     C_R   0.453366 0.438142 0.046787 -0.165007
C37   C     C_R   0.602304 0.493492 0.027096 -0.196483
C38   C     C_R   0.431023 0.439880 0.974935 -0.174503
C39   C     C_R   0.538264 0.466930 0.072743 0.299545
C40   C     C_R   0.494242 0.468866 0.929179 0.285084
C41   C     C_R   0.093017 0.570057 0.530657 -0.306656
C42   C     C_R   0.910898 0.420677 0.504792 -0.298362
C43   C     C_R   0.901746 0.580936 0.462650 -0.300004
C44   C     C_R   0.092288 0.437041 0.449887 -0.300566
H1    H     H_    0.629900 0.515719 0.919919 0.130513
H2    H     H_    0.403258 0.419310 0.082507 0.125492
H3    H     H_    0.667384 0.517447 0.047253 0.117870
H4    H     H_    0.363695 0.423117 0.955507 0.130400
H5    H     H_    0.056010 0.622908 0.558282 0.147844
H6    H     H_    0.950521 0.359057 0.519686 0.163888
H7    H     H_    0.934303 0.643792 0.445693 0.160230
H8    H     H_    0.054949 0.385865 0.417690 0.160537
N1    N     N_R   0.500000 0.252470 0.500000 -0.183589
N2    N     N_R   0.500000 0.747530 0.500000 -0.188115
O1    O     O_R   0.369060 0.579480 0.500010 -0.573134
O2    O     O_R   0.630940 0.420520 0.499990 -0.565807
O3    O     O_R   0.630940 0.579480 0.499990 -0.544936
O4    O     O_R   0.369060 0.420520 0.500010 -0.577025
O5    O     O_R   0.500020 0.579510 0.398180 -0.557279
O6    O     O_R   0.499980 0.420490 0.601820 -0.534571
O7    O     O_R   0.499980 0.579510 0.601820 -0.547263
O8    O     O_R   0.500020 0.420490 0.398180 -0.528267
Zn1   Zn    Zn3+2 0.500000 0.606140 0.500000 1.060255
Zn2   Zn    Zn3+2 0.500000 0.393860 0.500000 1.067660
O9    O     O_3   0.406791 0.343402 0.695379 -0.577571
C45   C     C_3   0.320115 0.366668 0.667284 0.113361
H9    H     H_    0.320872 0.430739 0.634550 0.137419
H10   H     H_    0.273850 0.379332 0.709881 0.083935
C46   C     C_3   0.283855 0.285778 0.621209 -0.815427
H11   H     H_    0.274931 0.222735 0.653855 0.214720
H12   H     H_    0.218280 0.306065 0.595259 0.212561
H13   H     H_    0.330647 0.268270 0.580094 0.271749
O10   O     O_3   0.478908 0.658770 0.273778 -0.576685
C47   C     C_3   0.387924 0.668149 0.250550 0.190131
H14   H     H_    0.346831 0.636548 0.290160 0.152528
H15   H     H_    0.369486 0.632842 0.199083 0.125743
C48   C     C_3   0.364658 0.772123 0.242568 -0.769291
H16   H     H_    0.402749 0.802754 0.200393 0.242234
H17   H     H_    0.292262 0.780580 0.228191 0.186544
H18   H     H_    0.381388 0.811012 0.292417 0.302270
O11   O     O_3   0.597780 0.341196 0.306445 -0.557007
C49   C     C_3   0.687234 0.354862 0.331425 0.146184
H19   H     H_    0.692119 0.415629 0.368388 0.115381
H20   H     H_    0.731420 0.368062 0.287896 0.080793
C50   C     C_3   0.721041 0.267117 0.369851 -0.769954
H21   H     H_    0.719520 0.206180 0.332816 0.217334
H22   H     H_    0.790841 0.277758 0.391071 0.221037
H23   H     H_    0.678600 0.251933 0.413964 0.269975
O12   O     O_3   0.516496 0.663114 0.726430 -0.577992
C51   C     C_3   0.607211 0.680362 0.746397 0.193269
H24   H     H_    0.648173 0.649393 0.705776 0.165840
H25   H     H_    0.631383 0.649395 0.797782 0.123430
C52   C     C_3   0.621945 0.786064 0.751927 -0.777905
H26   H     H_    0.585728 0.815595 0.796287 0.244303
H27   H     H_    0.694181 0.800805 0.761607 0.188130
H28   H     H_    0.596867 0.820950 0.702656 0.288858
O13   O     O_3   0.438175 0.316547 0.840386 -0.587690
C53   C     C_3   0.348766 0.286072 0.838047 0.133732
H29   H     H_    0.330692 0.251770 0.786550 0.183711
H30   H     H_    0.300731 0.344561 0.847318 0.093752
C54   C     C_3   0.339673 0.212563 0.894551 -0.862797
H31   H     H_    0.357563 0.243334 0.947373 0.259842
H32   H     H_    0.269789 0.187376 0.893017 0.201685
H33   H     H_    0.384532 0.151729 0.885338 0.261848
O14   O     O_3   0.513148 0.644317 0.131574 -0.585340
C55   C     C_3   0.582643 0.710404 0.141339 0.135765
H34   H     H_    0.649845 0.676000 0.143460 0.106033
H35   H     H_    0.574996 0.751902 0.190371 0.177051
C56   C     C_3   0.577505 0.778292 0.080110 -0.855109
H36   H     H_    0.512416 0.816129 0.077579 0.256039
H37   H     H_    0.631896 0.830648 0.087322 0.204116
H38   H     H_    0.584897 0.739064 0.030012 0.279870
O15   O     O_3   0.595725 0.318112 0.163370 -0.577779
C57   C     C_3   0.683773 0.313869 0.141266 0.120815
H39   H     H_    0.727722 0.280111 0.182974 0.148816
H40   H     H_    0.712504 0.383786 0.129681 0.096640
C58   C     C_3   0.684985 0.253049 0.075084 -0.827050
H41   H     H_    0.641300 0.284698 0.032228 0.265057
H42   H     H_    0.754050 0.247742 0.057783 0.197164
H43   H     H_    0.660802 0.181267 0.085769 0.257574
O16   O     O_3   0.493540 0.648284 0.870005 -0.591558
C59   C     C_3   0.415576 0.704577 0.864877 0.144421
H44   H     H_    0.354429 0.661947 0.870577 0.115702
H45   H     H_    0.409855 0.741770 0.813684 0.181925
C60   C     C_3   0.420591 0.778118 0.923482 -0.855875
H46   H     H_    0.481853 0.820822 0.920747 0.258709
H47   H     H_    0.361385 0.825409 0.918114 0.203935
H48   H     H_    0.421546 0.742866 0.975258 0.277619
O17   O     O_3   0.233544 0.629122 0.582579 -0.612954
C61   C     C_3   0.207769 0.623747 0.652436 0.087660
H49   H     H_    0.211889 0.550022 0.671728 0.110469
H50   H     H_    0.139121 0.651708 0.657174 0.140591
C62   C     C_3   0.270242 0.683997 0.699490 -0.852204
H51   H     H_    0.263417 0.759058 0.684214 0.251587
H52   H     H_    0.253866 0.676909 0.755181 0.183011
H53   H     H_    0.340021 0.661002 0.693948 0.289457
O18   O     O_3   0.780484 0.337567 0.531679 -0.587365
C63   C     C_3   0.800021 0.325147 0.604542 0.138304
H54   H     H_    0.744784 0.356286 0.633173 0.177764
H55   H     H_    0.863421 0.358289 0.625829 0.100626
C64   C     C_3   0.807473 0.220445 0.618936 -0.842467
H56   H     H_    0.864247 0.190069 0.591502 0.244238
H57   H     H_    0.819290 0.208111 0.676218 0.197578
H58   H     H_    0.745132 0.184946 0.599231 0.284655
O19   O     O_3   0.760968 0.657735 0.442530 -0.599642
C65   C     C_3   0.742764 0.654829 0.369055 0.104897
H59   H     H_    0.704988 0.590284 0.352499 0.111609
H60   H     H_    0.805693 0.657322 0.341247 0.120406
C66   C     C_3   0.685994 0.740155 0.347673 -0.785926
H61   H     H_    0.721052 0.805867 0.364704 0.222712
H62   H     H_    0.673764 0.740716 0.289707 0.191050
H63   H     H_    0.621044 0.737633 0.372343 0.283525
O20   O     O_3   0.230988 0.374482 0.410925 -0.570705
C67   C     C_3   0.200883 0.379647 0.338938 0.132694
H64   H     H_    0.258721 0.396739 0.308473 0.151747
H65   H     H_    0.150808 0.436255 0.325768 0.099464
C68   C     C_3   0.163248 0.284826 0.314041 -0.862805
H66   H     H_    0.101581 0.269103 0.340576 0.239223
H67   H     H_    0.147163 0.286078 0.256335 0.201080
H68   H     H_    0.212764 0.228020 0.326322 0.269471
O21   O     O_3   0.480464 0.051730 0.374557 -0.573152
C69   C     C_3   0.565755 0.023823 0.354384 0.085056
H69   H     H_    0.593402 0.966477 0.388326 0.136872
H70   H     H_    0.613127 0.083813 0.356609 0.117880
C70   C     C_3   0.557564 0.985511 0.279361 -0.824943
H71   H     H_    0.530404 0.040554 0.242824 0.247729
H72   H     H_    0.624220 0.962939 0.263146 0.202379
H73   H     H_    0.512493 0.923863 0.276084 0.270970
O22   O     O_3   0.644340 0.941699 0.568073 -0.571116
C71   C     C_3   0.701859 0.975470 0.517939 0.094192
H74   H     H_    0.678251 0.045274 0.498535 0.151562
H75   H     H_    0.707227 0.926684 0.472105 0.099254
C72   C     C_3   0.795328 0.988075 0.552594 -0.888745
H76   H     H_    0.829760 0.919084 0.559099 0.227027
H77   H     H_    0.835251 0.032765 0.519145 0.222824
H78   H     H_    0.791948 0.021719 0.605202 0.277191
O23   O     O_3   0.524302 0.057977 0.626749 -0.575926
C73   C     C_3   0.437638 0.040252 0.648087 0.079072
H79   H     H_    0.405804 0.982862 0.615631 0.136075
H80   H     H_    0.394468 0.104391 0.644439 0.126580
C74   C     C_3   0.443745 0.008290 0.724233 -0.829874
H81   H     H_    0.475188 0.063550 0.759010 0.248897
H82   H     H_    0.375849 0.994342 0.741323 0.203190
H83   H     H_    0.484015 0.942666 0.729383 0.266985
O24   O     O_3   0.361192 0.944625 0.430667 -0.543158
C75   C     C_3   0.303053 0.986486 0.477976 0.087843
H84   H     H_    0.335895 0.043611 0.509757 0.132290
H85   H     H_    0.277573 0.933544 0.514300 0.091212
C76   C     C_3   0.224223 0.030963 0.436137 -0.807876
H86   H     H_    0.186891 0.976726 0.404148 0.236112
H87   H     H_    0.178537 0.064823 0.472599 0.205704
H88   H     H_    0.248358 0.085312 0.400623 0.267481
O25   O     O_3   0.431286 0.255808 0.384632 -0.546731
C77   C     C_3   0.428791 0.213393 0.316978 0.264810
H89   H     H_    0.382074 0.153003 0.314109 0.172920
H90   H     H_    0.497091 0.192224 0.303747 0.196646
C78   C     C_3   0.393786 0.282267 0.260608 -0.855120
H91   H     H_    0.402652 0.356062 0.278643 0.268654
H92   H     H_    0.429472 0.271304 0.211870 0.245591
H93   H     H_    0.322141 0.270128 0.246451 0.208760
O26   O     O_3   0.624461 0.737642 0.581858 -0.564107
C79   C     C_3   0.715167 0.764609 0.585415 0.210707
H94   H     H_    0.726265 0.824349 0.622705 0.189640
H95   H     H_    0.736704 0.782228 0.532500 0.184781
C80   C     C_3   0.775332 0.685712 0.615623 -0.890360
H96   H     H_    0.745603 0.615730 0.604657 0.267489
H97   H     H_    0.841533 0.688545 0.592976 0.226072
H98   H     H_    0.786627 0.694151 0.673531 0.201189
O27   O     O_3   0.575169 0.260696 0.612775 -0.564744
C81   C     C_3   0.584544 0.221398 0.680729 0.239809
H99   H     H_    0.629059 0.158563 0.681360 0.178226
H100  H     H_    0.518019 0.204634 0.699218 0.209475
C82   C     C_3   0.628374 0.291751 0.733108 -0.880727
H101  H     H_    0.610784 0.365075 0.718497 0.264665
H102  H     H_    0.606796 0.278203 0.786724 0.248782
H103  H     H_    0.701938 0.284280 0.735232 0.208816
O28   O     O_3   0.375315 0.745670 0.417239 -0.557452
C83   C     C_3   0.285251 0.754565 0.434172 0.169667
H104  H     H_    0.257373 0.824215 0.420317 0.174591
H105  H     H_    0.277969 0.741629 0.490885 0.183660
C84   C     C_3   0.227559 0.685797 0.389780 -0.881176
H106  H     H_    0.258975 0.615109 0.388763 0.253468
H107  H     H_    0.160855 0.680570 0.411282 0.218467
H108  H     H_    0.218021 0.711265 0.334914 0.228527

loop_
_geom_bond_atom_site_label_1
_geom_bond_atom_site_label_2
_ccdc_geom_bond_type
C45   H10   S    
C70   H71   S    
C10   C42   A    
O26   C79   S    
C14   C18   A    
O14   C55   S    
C77   H90   S    
C19   C20   S    
C77   H89   S    
C4    C8    A    
C73   H79   S    
O24   C75   S    
C2    O3    A    
C66   H61   S    
C48   H16   S    
C26   O12   S    
C11   C19   A    
C54   H31   S    
C79   H95   S    
C83   C84   S    
C49   C50   S    
C6    O20   S    
C15   N1    A    
C35   C37   A    
C21   O5    A    
C84   H108  S    
C3    C7    A    
C46   H11   S    
C66   H62   S    
C22   O6    A    
C30   C31   A    
C55   H35   S    
N1    Zn2   S    
C24   O10   S    
C82   H103  S    
C45   C46   S    
C71   H74   S    
C69   C70   S    
C74   H81   S    
C11   O21   S    
C68   H68   S    
C31   C40   S    
C78   H92   S    
O22   C71   S    
C32   C39   S    
C80   H98   S    
O7    Zn1   S    
C52   H27   S    
O8    Zn2   S    
C56   H37   S    
C1    C7    S    
C4    O18   S    
O15   C57   S    
C11   C15   A    
C81   H99   S    
C68   H66   S    
C3    C41   A    
C12   C16   A    
C76   H88   S    
C23   C33   A    
C47   C48   S    
O1    Zn1   S    
C60   H48   S    
O2    Zn2   S    
C36   H2    S    
C23   C27   A    
C37   H3    S    
C9    C10   S    
C56   H36   S    
C38   H4    S    
C51   H24   S    
C25   C34   A    
C44   H8    S    
C72   H77   S    
C45   H9    S    
C5    C43   A    
C75   H84   S    
C70   H72   S    
C6    C44   A    
C25   O11   S    
C78   H91   S    
C1    O4    A    
C41   H5    S    
O13   C53   S    
C65   H60   S    
C59   H44   S    
C74   H82   S    
O10   C47   S    
C25   C29   A    
C46   H12   S    
C47   H14   S    
C13   C19   A    
C50   H22   S    
C27   C31   A    
C57   C58   S    
C14   C20   A    
C28   C32   A    
C5    O19   S    
C67   C68   S    
C79   H94   S    
C58   H43   S    
C14   O24   S    
C18   N2    A    
C21   C34   S    
O4    Zn2   S    
O28   C83   S    
C72   H76   S    
C79   C80   S    
O11   C49   S    
C56   H38   S    
C57   H40   S    
C64   H57   S    
C15   O25   S    
C78   H93   S    
C61   H50   S    
C84   H106  S    
C62   H53   S    
C65   C66   S    
N2    Zn1   S    
C26   C33   A    
C51   H25   S    
C30   O16   S    
C82   H101  S    
C28   O14   S    
C12   C20   A    
O27   C81   S    
C21   O8    A    
C48   H17   S    
C16   N2    A    
C52   H26   S    
C67   H64   S    
C50   H21   S    
C6    C7    A    
C65   H59   S    
C63   H55   S    
C42   H6    S    
C66   H63   S    
C81   H100  S    
C70   H73   S    
C84   H107  S    
C49   H19   S    
C52   H28   S    
C49   H20   S    
C62   H51   S    
O5    Zn1   S    
C64   H58   S    
C61   C62   S    
C47   H15   S    
C59   H45   S    
C16   O26   S    
C35   H1    S    
C17   N1    A    
O19   C65   S    
C46   H13   S    
C50   H23   S    
C51   C52   S    
C62   H52   S    
O17   C61   S    
C54   H32   S    
C48   H18   S    
C22   C33   S    
C80   H96   S    
C27   O13   S    
C9    C44   A    
C74   H83   S    
C10   C43   A    
C3    O17   S    
C67   H65   S    
C36   C39   A    
C2    C8    S    
C24   C28   A    
O3    Zn1   S    
C63   C64   S    
C5    C8    A    
C73   H80   S    
O16   C59   S    
C26   C30   A    
C12   O22   S    
C9    C41   A    
C69   H69   S    
C81   C82   S    
O18   C63   S    
C17   O27   S    
C53   C54   S    
C13   C17   A    
C83   H105  S    
O6    Zn2   S    
C23   O9    S    
C59   C60   S    
C58   H42   S    
C35   C40   A    
O12   C51   S    
C82   H102  S    
C29   C32   A    
C37   C39   A    
C69   H70   S    
O21   C69   S    
C64   H56   S    
C22   O7    A    
C38   C40   A    
C18   O28   S    
C43   H7    S    
C83   H104  S    
C60   H46   S    
C4    C42   A    
C75   C76   S    
C13   O23   S    
C36   C38   A    
C72   H78   S    
C53   H29   S    
C61   H49   S    
C57   H39   S    
O9    C45   S    
C1    O1    A    
C76   H86   S    
C53   H30   S    
C24   C34   A    
C73   C74   S    
C63   H54   S    
O23   C73   S    
C77   C78   S    
C68   H67   S    
O25   C77   S    
C55   H34   S    
C29   O15   S    
C60   H47   S    
C2    O2    A    
C54   H33   S    
C71   H75   S    
C76   H87   S    
O20   C67   S    
C58   H41   S    
C80   H97   S    
C75   H85   S    
C55   C56   S    
C71   C72   S    
