data_mof_unit_13415.cif
_audit_creation_date              2012-12-11T15:49:01-0500
_audit_creation_method            fapswitch 2.2
_symmetry_space_group_name_H-M    P1
_symmetry_Int_Tables_number       1
_space_group_crystal_system       triclinic
_cell_length_a                    21.612811
_cell_length_b                    7.179408
_cell_length_c                    14.888181
_cell_angle_alpha                 90.0
_cell_angle_beta                  106.887749
_cell_angle_gamma                 90.000024
_cell_volume                      2210.5333184

loop_
_atom_site_label
_atom_site_type_symbol
_atom_type_description
_atom_site_fract_x
_atom_site_fract_y
_atom_site_fract_z
_atom_type_partial_charge
O1    O     O_R   0.335860 0.638190 0.002110 -0.544692
O2    O     O_R   0.664140 0.361810 0.997890 -0.544693
O3    O     O_R   0.164140 0.138190 0.997890 -0.544686
O4    O     O_R   0.835860 0.861810 0.002110 -0.544686
O5    O     O_R   0.217530 0.305920 0.861960 -0.534853
O6    O     O_R   0.782470 0.694080 0.138040 -0.534853
O7    O     O_R   0.282470 0.805920 0.138040 -0.534854
O8    O     O_R   0.717530 0.194080 0.861960 -0.534854
C1    C     C_R   0.205699 0.477004 0.825714 0.742951
C2    C     C_R   0.794301 0.522996 0.174286 0.742951
C3    C     C_R   0.294301 0.977004 0.174286 0.742957
C4    C     C_R   0.705699 0.022995 0.825713 0.742957
O9    O     O_R   0.338690 0.308320 0.993240 -0.541378
O10   O     O_R   0.661310 0.691680 0.006760 -0.541377
O11   O     O_R   0.161310 0.808320 0.006760 -0.541383
O12   O     O_R   0.838690 0.191680 0.993240 -0.541383
O13   O     O_R   0.286170 0.140430 0.130100 -0.527164
O14   O     O_R   0.713830 0.859570 0.869900 -0.527164
O15   O     O_R   0.213830 0.640430 0.869900 -0.527166
O16   O     O_R   0.786170 0.359570 0.130100 -0.527166
C5    C     C_R   0.364974 0.477252 0.997805 0.718770
C6    C     C_R   0.635026 0.522748 0.002195 0.718769
C7    C     C_R   0.135026 0.977252 0.002194 0.718762
C8    C     C_R   0.864973 0.022748 0.997805 0.718763
O17   O     O_3   0.232630 0.472410 0.044750 -0.374402
O18   O     O_3   0.767370 0.527590 0.955250 -0.374401
O19   O     O_3   0.267370 0.972410 0.955250 -0.374407
O20   O     O_3   0.732630 0.027590 0.044750 -0.374407
V1    V     V_3+5 0.253220 0.196620 0.991700 1.547686
V2    V     V_3+5 0.746780 0.803380 0.008300 1.547686
V3    V     V_3+5 0.246780 0.696620 0.008300 1.547679
V4    V     V_3+5 0.753220 0.303380 0.991700 1.547679
C9    C     C_R   0.029959 0.826269 0.003752 -0.066523
C10   C     C_R   0.970041 0.173731 0.996248 -0.066523
C11   C     C_R   0.470064 0.326260 0.996365 -0.066529
C12   C     C_R   0.529936 0.673740 0.003635 -0.066530
H1    H     H_    0.051817 0.689861 0.006456 0.133482
H2    H     H_    0.948183 0.310139 0.993543 0.133482
H3    H     H_    0.448225 0.189846 0.993758 0.133462
H4    H     H_    0.551775 0.810154 0.006242 0.133461
C13   C     C_R   0.964954 0.837625 0.002085 -0.077356
C14   C     C_R   0.035046 0.162375 0.997915 -0.077356
C15   C     C_R   0.535069 0.337618 0.998035 -0.077314
C16   C     C_R   0.464930 0.662382 0.001965 -0.077314
H5    H     H_    0.939059 0.709210 0.003869 0.131447
H6    H     H_    0.060941 0.290790 0.996131 0.131446
H7    H     H_    0.560984 0.209198 0.996352 0.131484
H8    H     H_    0.439015 0.790802 0.003648 0.131484
C17   C     C_R   0.934001 0.011542 0.998312 -0.038084
C18   C     C_R   0.065999 0.988457 0.001688 -0.038084
C19   C     C_R   0.566000 0.511543 0.001690 -0.038128
C20   C     C_R   0.434000 0.488457 0.998310 -0.038128
C21   C     C_R   0.678724 0.011312 0.723746 -0.113133
C22   C     C_R   0.321275 0.988688 0.276254 -0.113133
C23   C     C_R   0.821275 0.511313 0.276253 -0.113136
C24   C     C_R   0.178725 0.488687 0.723747 -0.113136
C25   C     C_R   0.689622 0.947983 0.569854 -0.092867
C26   C     C_R   0.310378 0.052017 0.430146 -0.092867
C27   C     C_R   0.810375 0.448020 0.430146 -0.092868
C28   C     C_R   0.189625 0.551980 0.569854 -0.092869
C29   C     C_R   0.717510 0.964360 0.666537 0.268172
C30   C     C_R   0.282490 0.035640 0.333463 0.268172
C31   C     C_R   0.782488 0.464396 0.333464 0.268174
C32   C     C_R   0.217512 0.535604 0.666535 0.268174
C33   C     C_R   0.612194 0.033553 0.684347 -0.167149
C34   C     C_R   0.387805 0.966447 0.315653 -0.167148
C35   C     C_R   0.887807 0.533529 0.315650 -0.167155
C36   C     C_R   0.112193 0.466471 0.684350 -0.167155
C37   C     C_R   0.582047 0.995094 0.588707 0.083916
C38   C     C_R   0.417953 0.004905 0.411293 0.083916
C39   C     C_R   0.917952 0.495087 0.411293 0.083917
C40   C     C_R   0.082047 0.504913 0.588707 0.083917
C41   C     C_R   0.622298 0.969422 0.529461 -0.049937
C42   C     C_R   0.377702 0.030578 0.470539 -0.049937
C43   C     C_R   0.877702 0.469431 0.470539 -0.049936
C44   C     C_R   0.122298 0.530569 0.529461 -0.049936
C45   C     C_R   0.513388 0.992762 0.549686 -0.076635
C46   C     C_R   0.486612 0.007238 0.450314 -0.076635
C47   C     C_R   0.986614 0.492756 0.450313 -0.076633
C48   C     C_R   0.013386 0.507243 0.549686 -0.076633
C49   C     C_R   0.529539 0.024783 0.393935 0.242824
C50   C     C_R   0.470461 0.975217 0.606065 0.242824
C51   C     C_R   0.970461 0.524787 0.606064 0.242813
C52   C     C_R   0.029539 0.475213 0.393936 0.242813
C53   C     C_R   0.595277 0.980852 0.431578 0.286760
C54   C     C_R   0.404722 0.019148 0.568422 0.286760
C55   C     C_R   0.904722 0.480852 0.568421 0.286763
C56   C     C_R   0.095278 0.519148 0.431579 0.286763
H9    H     H_    0.415231 0.914626 0.270809 0.160166
H10   H     H_    0.584769 0.085374 0.729190 0.160166
H11   H     H_    0.084768 0.414674 0.729197 0.160162
H12   H     H_    0.915232 0.585326 0.270803 0.160162
H13   H     H_    0.721556 0.921910 0.527268 0.197647
H14   H     H_    0.278444 0.078090 0.472732 0.197647
H15   H     H_    0.778440 0.421977 0.472734 0.197649
H16   H     H_    0.221559 0.578023 0.527266 0.197649
Br1   Br    Br    0.648375 0.954071 0.347720 -0.403926
Br2   Br    Br    0.351625 0.045929 0.652280 -0.403926
Br3   Br    Br    0.851629 0.454030 0.652282 -0.403936
Br4   Br    Br    0.148371 0.545969 0.347718 -0.403936
Br5   Br    Br    0.190630 0.064766 0.282747 -0.418477
Br6   Br    Br    0.809370 0.935234 0.717253 -0.418476
Br7   Br    Br    0.309374 0.564689 0.717249 -0.418489
Br8   Br    Br    0.690626 0.435311 0.282750 -0.418489
Br9   Br    Br    0.505845 0.158779 0.275537 -0.487239
Br10  Br    Br    0.494155 0.841221 0.724462 -0.487239
Br11  Br    Br    0.994149 0.658793 0.724459 -0.487208
Br12  Br    Br    0.005850 0.341207 0.275541 -0.487208

loop_
_geom_bond_atom_site_label_1
_geom_bond_atom_site_label_2
_ccdc_geom_bond_type
O17   V3    S    
C32   Br7   S    
C51   C55   A    
C26   C30   A    
O19   V1    S    
O13   V1    S    
C37   C45   A    
C10   C14   A    
C40   C44   A    
O15   V3    S    
C39   C47   A    
C45   C46   A    
O1    C5    A    
O9    V1    S    
C47   C52   A    
O4    C8    A    
C38   C46   A    
O1    V3    S    
C36   H11   S    
O2    V4    S    
C14   H6    S    
C25   C41   A    
O3    V1    S    
C38   C42   A    
O3    C7    A    
C1    O15   A    
C2    O16   A    
C23   C31   A    
O2    C6    A    
C24   C32   A    
C37   C41   A    
O14   V2    S    
C11   C15   A    
C44   C56   A    
C55   Br3   S    
C4    C21   S    
C36   C40   A    
C30   Br5   S    
C16   C20   A    
O11   C7    A    
O12   C8    A    
C25   H13   S    
C27   H15   S    
O10   V2    S    
C48   C51   A    
C13   C17   A    
C34   H9    S    
O5    V1    S    
C33   H10   S    
C49   Br9   S    
O7    V3    S    
O8    V4    S    
C12   H4    S    
O18   V4    S    
C7    C18   S    
C22   C30   A    
C9    C18   A    
C50   C54   A    
C28   C44   A    
C9    H1    S    
O7    C3    A    
O5    C1    A    
O8    C4    A    
O9    C5    A    
C1    C24   S    
C42   C54   A    
C25   C29   A    
C2    C23   S    
C3    C22   S    
C41   C53   A    
C56   Br4   S    
C12   C19   A    
C14   C18   A    
C28   H16   S    
C43   C55   A    
O6    V2    S    
C12   C16   A    
C21   C29   A    
C27   C43   A    
C21   C33   A    
C26   C42   A    
O16   V4    S    
C8    C17   S    
C3    O13   A    
C10   C17   A    
C10   H2    S    
C52   C56   A    
C31   Br8   S    
O6    C2    A    
C23   C35   A    
O11   V3    S    
C22   C34   A    
O12   V4    S    
C27   C31   A    
C28   C32   A    
C9    C13   A    
O10   C6    A    
O20   V2    S    
C29   Br6   S    
C26   H14   S    
C40   C48   A    
C24   C36   A    
C39   C43   A    
C46   C49   A    
C15   C19   A    
C34   C38   A    
C45   C50   A    
C33   C37   A    
C11   H3    S    
C35   H12   S    
C52   Br12  S    
C51   Br11  S    
C35   C39   A    
C50   Br10  S    
C54   Br2   S    
O4    V2    S    
C53   Br1   S    
C47   C48   A    
C4    O14   A    
C11   C20   A    
C13   H5    S    
C15   H7    S    
C5    C20   S    
C49   C53   A    
C16   H8    S    
C6    C19   S    
