data_mof_unit_41678.cif
_audit_creation_date              2012-12-10T19:12:29-0500
_audit_creation_method            fapswitch 2.2
_symmetry_space_group_name_H-M    P1
_symmetry_Int_Tables_number       1
_space_group_crystal_system       triclinic
_cell_length_a                    15.707963
_cell_length_b                    10.626857
_cell_length_c                    9.726806
_cell_angle_alpha                 89.804195
_cell_angle_beta                  89.86419
_cell_angle_gamma                 90.04743
_cell_volume                      1623.64489867

loop_
_atom_site_label
_atom_site_type_symbol
_atom_type_description
_atom_site_fract_x
_atom_site_fract_y
_atom_site_fract_z
_atom_type_partial_charge
C1    C     C_R   0.500055 0.257568 0.499940 0.847398
C2    C     C_3   0.082868 0.509265 0.500480 0.146299
C3    C     C_3   0.971220 0.500735 0.629969 -0.146849
C4    C     C_3   0.917114 0.508868 0.499091 0.176841
C5    C     C_3   0.027808 0.608528 0.572614 -0.202754
C6    C     C_3   0.971599 0.617332 0.441810 -0.178516
C7    C     C_1   0.173737 0.507360 0.500286 -0.087082
C8    C     C_1   0.826298 0.506690 0.499236 -0.080713
C9    C     C_3   0.578814 0.071917 0.577927 -0.406511
C10   C     C_3   0.579433 0.927500 0.576497 -0.464318
C11   C     C_3   0.417404 0.072357 0.569207 -0.452108
C12   C     C_R   0.337879 0.500844 0.500079 0.931139
C13   C     C_3   0.502921 0.071903 0.348926 -0.402946
C14   C     C_3   0.499840 0.121179 0.499215 0.153957
C15   C     C_3   0.500010 0.878614 0.498632 0.110674
C16   C     C_3   0.418168 0.927073 0.572650 0.067762
C17   C     C_3   0.504217 0.929202 0.348550 -0.392466
C18   C     C_3   0.514882 0.371502 0.082793 -0.295944
C19   C     C_3   0.521373 0.371997 0.920923 -0.273175
C20   C     C_3   0.413719 0.538514 0.079568 -0.074855
C21   C     C_3   0.564343 0.586707 0.078544 0.188822
C22   C     C_3   0.413730 0.530667 0.916657 -0.211445
C23   C     C_R   0.500797 0.742292 0.499532 0.872773
C24   C     C_3   0.560325 0.589858 0.916256 -0.271254
C25   C     C_R   0.662127 0.500633 0.499878 0.913590
C26   C     C_3   0.971837 0.409064 0.426792 -0.216304
C27   C     C_3   0.027451 0.517192 0.372925 0.278423
C28   C     C_1   0.249019 0.504387 0.500229 -0.202146
C29   C     C_1   0.751006 0.503823 0.499499 -0.200412
C30   C     C_3   0.027874 0.401553 0.557621 -0.206002
H1    H     H_    0.579959 0.891774 0.684252 0.176799
H2    H     H_    0.412846 0.108343 0.676358 0.162514
H3    H     H_    0.421698 0.896488 0.682397 0.164974
H4    H     H_    0.446293 0.105286 0.290504 0.175276
H5    H     H_    0.560839 0.107672 0.295151 0.174111
H6    H     H_    0.563640 0.896287 0.297297 0.174313
H7    H     H_    0.449933 0.893975 0.286621 0.211114
H8    H     H_    0.360791 0.108544 0.512891 0.163427
H9    H     H_    0.462994 0.306288 0.114943 0.153133
H10   H     H_    0.947327 0.328748 0.365809 0.133223
H11   H     H_    0.573619 0.331322 0.128509 0.160035
H12   H     H_    0.586970 0.345558 0.888779 0.148953
H13   H     H_    0.478291 0.298459 0.879155 0.161707
H14   H     H_    0.364129 0.471778 0.117216 0.097562
H15   H     H_    0.366362 0.458748 0.884244 0.131558
H16   H     H_    0.551163 0.683310 0.116708 0.163095
H17   H     H_    0.624166 0.572362 0.870735 0.162634
H18   H     H_    0.542231 0.686064 0.881640 0.161160
H19   H     H_    0.946759 0.704631 0.393479 0.129224
H20   H     H_    0.392135 0.619791 0.867774 0.196167
H21   H     H_    0.052815 0.689172 0.632556 0.141145
H22   H     H_    0.945613 0.493937 0.736236 0.133786
H23   H     H_    0.052842 0.314127 0.605518 0.140599
H24   H     H_    0.577747 0.105273 0.686319 0.175851
H25   H     H_    0.638204 0.108298 0.529276 0.161242
H26   H     H_    0.638677 0.893421 0.525770 0.169340
N1    N     N_3   0.498170 0.499750 0.138610 -0.082533
N2    N     N_3   0.498850 0.496730 0.861320 -0.059012
O1    O     O_R   0.499980 0.314910 0.616040 -0.633200
O2    O     O_R   0.500040 0.314680 0.383960 -0.639582
O3    O     O_R   0.376750 0.500100 0.616020 -0.618688
O4    O     O_R   0.376810 0.499870 0.383940 -0.650575
O5    O     O_R   0.499960 0.685320 0.616040 -0.635268
O6    O     O_R   0.500020 0.685090 0.383960 -0.640062
O7    O     O_R   0.623190 0.500130 0.616060 -0.630055
O8    O     O_R   0.623250 0.499900 0.383980 -0.579033
Zn1   Zn    Zn3+2 0.499960 0.500150 0.654960 0.905246
Zn2   Zn    Zn3+2 0.500040 0.499850 0.345040 0.920124
N3    N     N_2   0.061395 0.525664 0.234761 -0.306596
H27   H     H_    0.105797 0.456893 0.213899 0.220008
C31   C     C_3   0.998143 0.538709 0.127968 -0.823523
H28   H     H_    0.030332 0.550516 0.026974 0.241630
H29   H     H_    0.958027 0.622979 0.146644 0.246420
H30   H     H_    0.957177 0.453498 0.124093 0.233236
N4    N     N_2   0.341416 0.874881 0.510592 -0.313727
H31   H     H_    0.326852 0.909136 0.414158 0.236162
C32   C     C_3   0.268150 0.863269 0.600124 -0.815659
H32   H     H_    0.215395 0.816726 0.543917 0.242831
H33   H     H_    0.246667 0.957733 0.634243 0.240471
H34   H     H_    0.283984 0.804331 0.691093 0.255126
N5    N     N_2   0.649801 0.552104 0.123234 -0.262866
H35   H     H_    0.675316 0.473798 0.076344 0.213914
C33   C     C_3   0.710422 0.654188 0.135189 -0.839061
H36   H     H_    0.771711 0.617205 0.175182 0.248632
H37   H     H_    0.686581 0.725975 0.208569 0.242225
H38   H     H_    0.721787 0.698407 0.033129 0.223026
C34   C     C_2   0.385213 0.666918 0.129754 0.346307
H39   H     H_    0.349677 0.675322 0.224820 0.115867
O9    O     O_2   0.401446 0.762691 0.064961 -0.646601

loop_
_geom_bond_atom_site_label_1
_geom_bond_atom_site_label_2
_ccdc_geom_bond_type
O8    Zn2   S    
C34   H39   S    
C11   H8    S    
C16   N4    S    
C2    C7    S    
C4    C8    S    
N5    H35   S    
C32   H32   S    
C26   C27   S    
C12   C28   S    
C8    C29   T    
O6    Zn2   S    
C13   H5    S    
C10   C15   S    
C1    O1    A    
C5    C6    S    
C11   C14   S    
C15   C16   S    
C20   C34   S    
C18   C19   S    
N3    C31   S    
C18   H9    S    
C20   H14   S    
C10   H1    S    
C6    C27   S    
O7    Zn1   S    
C2    C27   S    
C9    H25   S    
C17   H6    S    
C10   H26   S    
C9    C10   S    
C27   N3    S    
C19   H12   S    
C22   H20   S    
O1    Zn1   S    
C15   C23   S    
C13   C14   S    
N5    C33   S    
C19   H13   S    
C32   H33   S    
C19   N2    S    
C25   C29   S    
C30   H23   S    
O5    Zn1   S    
C24   H18   S    
C25   O7    A    
C4    C6    S    
C18   H11   S    
C31   H29   S    
C9    C14   S    
C7    C28   T    
C3    C30   S    
N4    H31   S    
C21   N1    S    
C16   H3    S    
C12   O4    A    
C11   C16   S    
O3    Zn1   S    
C18   N1    S    
C33   H36   S    
C22   H15   S    
C17   H7    S    
N4    C32   S    
C23   O6    A    
C33   H37   S    
C21   N5    S    
C11   H2    S    
C26   C30   S    
C34   O9    D    
C1    O2    A    
C2    C5    S    
N1    Zn2   S    
C3    C4    S    
C21   H16   S    
C32   H34   S    
C15   C17   S    
C24   H17   S    
C25   O8    A    
C20   C22   S    
C3    C5    S    
C22   N2    S    
C31   H30   S    
C4    C26   S    
C3    H22   S    
C9    H24   S    
O4    Zn2   S    
C13   C17   S    
C2    C30   S    
C31   H28   S    
C12   O3    A    
C26   H10   S    
C23   O5    A    
C6    H19   S    
N3    H27   S    
N2    Zn1   S    
C13   H4    S    
C33   H38   S    
O2    Zn2   S    
C24   N2    S    
C21   C24   S    
C5    H21   S    
C1    C14   S    
C20   N1    S    
