data_mof_unit_14854.cif
_audit_creation_date              2012-12-10T20:07:01-0500
_audit_creation_method            fapswitch 2.2
_symmetry_space_group_name_H-M    P1
_symmetry_Int_Tables_number       1
_space_group_crystal_system       triclinic
_cell_length_a                    19.202894
_cell_length_b                    18.465355
_cell_length_c                    10.75555
_cell_angle_alpha                 87.385161
_cell_angle_beta                  89.946368
_cell_angle_gamma                 89.455854
_cell_volume                      3809.64844069

loop_
_atom_site_label
_atom_site_type_symbol
_atom_type_description
_atom_site_fract_x
_atom_site_fract_y
_atom_site_fract_z
_atom_type_partial_charge
C1    C     C_R   0.365418 0.499951 0.495357 1.032881
C2    C     C_R   0.634626 0.499502 0.498414 0.974683
C3    C     C_R   0.709925 0.497255 0.482787 -0.184247
C4    C     C_R   0.290104 0.497845 0.478560 -0.137048
C5    C     C_R   0.963869 0.517785 0.330705 -0.152250
C6    C     C_R   0.036812 0.453989 0.533324 -0.189840
C7    C     C_R   0.036186 0.518444 0.330937 -0.106449
C8    C     C_R   0.964833 0.454027 0.533788 -0.109865
C9    C     C_R   0.072229 0.486985 0.432812 0.218861
C10   C     C_R   0.928265 0.486482 0.433126 0.194273
C11   C     C_R   0.561668 0.725372 0.519083 0.558415
C12   C     C_R   0.453705 0.275946 0.427302 0.637838
C13   C     C_R   0.438536 0.729595 0.497214 0.653993
C14   C     C_R   0.547133 0.273574 0.574499 0.637535
C15   C     C_R   0.564162 0.801580 0.518630 -0.324963
C16   C     C_R   0.452687 0.198856 0.432926 -0.344898
C17   C     C_R   0.440587 0.806408 0.507271 -0.389238
C18   C     C_R   0.550030 0.196803 0.573538 -0.344262
C19   C     C_R   0.503377 0.842647 0.512764 0.215941
C20   C     C_R   0.501749 0.158946 0.504709 0.200881
C21   C     C_R   0.516828 0.963899 0.399751 0.359206
C22   C     C_R   0.495337 0.036998 0.621294 0.358948
C23   C     C_R   0.492149 0.959991 0.622087 0.337683
C24   C     C_R   0.511790 0.040833 0.395956 0.342217
C25   C     C_R   0.502868 0.077580 0.507375 -0.183654
C26   C     C_R   0.504887 0.923531 0.511971 -0.195117
C27   C     C_R   0.503745 0.501722 0.257705 0.937507
C28   C     C_R   0.486323 0.499049 0.737737 0.926160
C29   C     C_R   0.494313 0.641457 0.094066 0.436770
C30   C     C_R   0.450130 0.366113 0.907784 0.474570
C31   C     C_R   0.444942 0.631299 0.862789 0.457315
C32   C     C_R   0.546406 0.375949 0.102080 0.541370
C33   C     C_R   0.516338 0.693819 0.004023 -0.251954
C34   C     C_R   0.477892 0.303337 0.966792 -0.334931
C35   C     C_R   0.482715 0.693161 0.889051 -0.291471
C36   C     C_R   0.529196 0.308446 0.057122 -0.329433
C37   C     C_R   0.463952 0.565838 0.927840 -0.047323
C38   C     C_R   0.508944 0.438851 0.057735 -0.086947
C39   C     C_R   0.485569 0.570221 0.051783 -0.113241
C40   C     C_R   0.473358 0.434618 0.944332 -0.132659
C41   C     C_R   0.466319 0.498767 0.870333 -0.105264
C42   C     C_R   0.504470 0.505087 0.120560 -0.118908
C43   C     C_R   0.744121 0.429918 0.482858 -0.219739
C44   C     C_R   0.248674 0.559169 0.494426 -0.215259
C45   C     C_R   0.259534 0.433326 0.442455 -0.266366
C46   C     C_R   0.747183 0.561075 0.458476 -0.311917
C47   C     C_R   0.814940 0.425974 0.458339 0.440808
C48   C     C_R   0.176947 0.556517 0.476701 0.444444
C49   C     C_R   0.187687 0.429320 0.425617 0.475504
C50   C     C_R   0.818819 0.558247 0.435441 0.490954
C51   C     C_R   0.852718 0.490307 0.439587 -0.140032
C52   C     C_R   0.147167 0.491864 0.439668 -0.122233
H1    H     H_    0.555572 0.259619 0.092293 0.209845
H2    H     H_    0.476363 0.743318 0.834012 0.177866
H3    H     H_    0.461373 0.250352 0.939944 0.203417
H4    H     H_    0.535385 0.745449 0.033036 0.193800
H5    H     H_    0.716087 0.379873 0.500705 0.230425
H6    H     H_    0.271303 0.608698 0.522579 0.238195
H7    H     H_    0.291392 0.386208 0.425725 0.222644
H8    H     H_    0.721010 0.612972 0.458207 0.231103
H9    H     H_    0.935702 0.542549 0.252346 0.142489
H10   H     H_    0.064990 0.430246 0.612613 0.137921
H11   H     H_    0.063978 0.544132 0.253380 0.148139
H12   H     H_    0.937562 0.430461 0.613834 0.160254
H13   H     H_    0.613799 0.828235 0.527505 0.156690
H14   H     H_    0.414025 0.169423 0.383303 0.155326
H15   H     H_    0.393600 0.839037 0.508130 0.141129
H16   H     H_    0.589728 0.166273 0.624775 0.155882
N1    N     N_R   0.500000 0.689440 0.500000 -0.154634
N2    N     N_R   0.500000 0.310560 0.500000 -0.133255
O1    O     O_R   0.398180 0.560840 0.499970 -0.518388
O2    O     O_R   0.601820 0.439160 0.500030 -0.549214
O3    O     O_R   0.601820 0.560840 0.500030 -0.582754
O4    O     O_R   0.398180 0.439160 0.499970 -0.570384
O5    O     O_R   0.499990 0.560810 0.316770 -0.586337
O6    O     O_R   0.500010 0.439190 0.683230 -0.568147
O7    O     O_R   0.500010 0.560810 0.683230 -0.666670
O8    O     O_R   0.499990 0.439190 0.316770 -0.575466
Zn1   Zn    Zn3+2 0.500000 0.581210 0.500000 1.079850
Zn2   Zn    Zn3+2 0.500000 0.418790 0.500000 1.131833
S1    S     S_3+6 0.424342 0.680160 0.174951 0.044580
O9    O     O_2   0.454896 0.738020 0.250454 -0.324727
O10   O     O_2   0.373788 0.716590 0.085041 -0.236560
O11   O     O_3   0.380034 0.619087 0.263287 -0.522735
H17   H     H_    0.356081 0.588569 0.203512 0.348513
S2    S     S_3+6 0.376199 0.356471 0.811894 0.019985
O12   O     O_2   0.397404 0.320435 0.695363 -0.285011
O13   O     O_2   0.324525 0.308628 0.880125 -0.316902
O14   O     O_3   0.337771 0.436641 0.774135 -0.544860
H18   H     H_    0.317249 0.452797 0.852847 0.377025
S3    S     S_3+6 0.357228 0.642087 0.817238 0.051433
O15   O     O_2   0.342713 0.596752 0.709234 -0.321928
O16   O     O_2   0.311883 0.615587 0.923460 -0.249983
O17   O     O_3   0.336522 0.729301 0.781850 -0.522542
H19   H     H_    0.370433 0.745542 0.717678 0.329243
S4    S     S_3+6 0.625893 0.380503 0.184588 -0.017465
O18   O     O_2   0.618654 0.341429 0.309354 -0.313114
O19   O     O_2   0.681278 0.342759 0.111962 -0.351390
O20   O     O_3   0.649972 0.466773 0.202418 -0.612647
H20   H     H_    0.701100 0.464551 0.214291 0.370598
O21   O     O_3   0.848100 0.359162 0.459882 -0.611143
C53   C     C_3   0.839298 0.329722 0.342348 -0.234759
H21   H     H_    0.861495 0.365776 0.266778 0.158266
H22   H     H_    0.783463 0.318864 0.323501 0.211311
H23   H     H_    0.867772 0.277197 0.341722 0.192073
O22   O     O_3   0.135747 0.617540 0.490716 -0.607381
C54   C     C_3   0.130326 0.630867 0.618487 -0.229973
H24   H     H_    0.180766 0.649114 0.656332 0.203599
H25   H     H_    0.111286 0.582366 0.673348 0.158739
H26   H     H_    0.091771 0.675182 0.629882 0.195393
O23   O     O_3   0.156441 0.366727 0.386900 -0.599509
C55   C     C_3   0.170213 0.308316 0.472944 -0.246525
H27   H     H_    0.163277 0.323826 0.571180 0.168542
H28   H     H_    0.223233 0.285579 0.458713 0.174453
H29   H     H_    0.132585 0.264591 0.456377 0.191396
O24   O     O_3   0.857766 0.621078 0.422537 -0.588863
C56   C     C_3   0.833422 0.664812 0.320260 -0.306398
H30   H     H_    0.786439 0.696290 0.346093 0.178672
H31   H     H_    0.822799 0.632711 0.237150 0.146546
H32   H     H_    0.874462 0.704429 0.293504 0.199805
O25   O     O_3   0.623123 0.687853 0.537812 -0.602624
C57   C     C_3   0.639069 0.685604 0.666051 -0.311576
H33   H     H_    0.596437 0.660481 0.722692 0.179875
H34   H     H_    0.650766 0.740505 0.698564 0.156004
H35   H     H_    0.686357 0.651482 0.681913 0.193376
O26   O     O_3   0.407570 0.319381 0.356259 -0.595564
C58   C     C_3   0.376901 0.283924 0.256917 -0.335634
H36   H     H_    0.333793 0.248705 0.291520 0.169119
H37   H     H_    0.415779 0.252661 0.203916 0.175565
H38   H     H_    0.353989 0.325624 0.191174 0.221776
O27   O     O_3   0.375731 0.693675 0.483465 -0.544719
C59   C     C_3   0.321269 0.737998 0.431955 -0.153138
H39   H     H_    0.339153 0.775790 0.355264 0.202341
H40   H     H_    0.294833 0.767795 0.506296 0.131957
H41   H     H_    0.282010 0.703411 0.389072 0.204704
O28   O     O_3   0.592998 0.314398 0.642328 -0.582168
C60   C     C_3   0.617394 0.277706 0.751982 -0.306246
H42   H     H_    0.661950 0.241578 0.730448 0.167105
H43   H     H_    0.575599 0.246845 0.801946 0.163856
H44   H     H_    0.636672 0.318523 0.815911 0.223193
O29   O     O_3   0.528687 0.927296 0.292205 -0.566650
C61   C     C_3   0.600272 0.930390 0.263242 -0.248166
H45   H     H_    0.633156 0.909849 0.342639 0.138527
H46   H     H_    0.615929 0.986295 0.233360 0.192033
H47   H     H_    0.610505 0.895164 0.184290 0.182522
O30   O     O_3   0.484667 0.073875 0.729285 -0.584187
C62   C     C_3   0.540744 0.060496 0.812392 -0.262329
H48   H     H_    0.592155 0.057413 0.764549 0.131773
H49   H     H_    0.531878 0.010344 0.870790 0.214625
H50   H     H_    0.543276 0.106004 0.876083 0.167335
O31   O     O_3   0.481180 0.919376 0.731631 -0.607385
C63   C     C_3   0.410080 0.923392 0.763998 -0.242443
H51   H     H_    0.375431 0.910503 0.685292 0.141643
H52   H     H_    0.396344 0.977505 0.798375 0.205996
H53   H     H_    0.400052 0.882687 0.840838 0.213518
O32   O     O_3   0.522121 0.081353 0.285796 -0.593073
C64   C     C_3   0.466777 0.070474 0.202415 -0.247694
H54   H     H_    0.415280 0.064685 0.249647 0.137538
H55   H     H_    0.477521 0.022781 0.146035 0.216639
H56   H     H_    0.463019 0.118529 0.136882 0.166007

loop_
_geom_bond_atom_site_label_1
_geom_bond_atom_site_label_2
_ccdc_geom_bond_type
C44   C48   A    
C21   C26   A    
C64   H54   S    
C47   O21   S    
C14   N2    A    
C14   C18   A    
C62   H48   S    
C27   O8    A    
C6    C9    A    
O1    Zn1   S    
S1    O9    D    
C15   C19   A    
C60   H43   S    
C3    C43   A    
C1    O1    A    
C14   O28   S    
C1    O4    A    
C32   C36   A    
O32   C64   S    
C62   H49   S    
C59   H41   S    
C38   C42   A    
C56   H31   S    
S2    O13   D    
C12   O26   S    
O22   C54   S    
C18   H16   S    
C15   H13   S    
S4    O20   S    
C29   C33   A    
C28   C41   S    
O2    Zn2   S    
O24   C56   S    
C53   H23   S    
C23   C26   A    
C19   C26   S    
C12   N2    A    
C36   H1    S    
C17   C19   A    
C11   C15   A    
C48   O22   S    
C22   O30   S    
C44   H6    S    
C59   H39   S    
C22   C25   A    
S4    O19   D    
O31   C63   S    
C32   C38   A    
C30   S2    S    
C43   C47   A    
C34   C36   A    
C49   O23   S    
C33   H4    S    
C34   H3    S    
C64   H55   S    
O4    Zn2   S    
C35   H2    S    
C54   H25   S    
C61   H47   S    
C11   O25   S    
C9    C52   S    
C2    O2    A    
C10   C51   S    
C55   H28   S    
C55   H27   S    
S1    O10   D    
C39   C42   A    
C4    C45   A    
O7    Zn1   S    
C13   O27   S    
C60   H44   S    
C17   H15   S    
C30   C34   A    
N2    Zn2   S    
O21   C53   S    
C12   C16   A    
C62   H50   S    
C24   C25   A    
C56   H32   S    
S3    O15   D    
C5    C7    A    
S2    O12   D    
C6    C8    A    
C4    C44   A    
C31   C37   A    
C58   H37   S    
C29   S1    S    
S3    O16   D    
O20   H20   S    
C63   H53   S    
C45   C49   A    
C16   C20   A    
C49   C52   A    
S4    O18   D    
C29   C39   A    
C50   C51   A    
O3    Zn1   S    
O8    Zn2   S    
C30   C40   A    
O17   H19   S    
O11   H17   S    
C53   H22   S    
C28   O7    A    
C7    H11   S    
O25   C57   S    
C2    O3    A    
C8    H12   S    
C8    C10   A    
C40   C41   A    
C32   S4    S    
C63   H52   S    
C64   H56   S    
C31   S3    S    
C54   H26   S    
C31   C35   A    
N1    Zn1   S    
C16   H14   S    
C54   H24   S    
C57   H34   S    
O27   C59   S    
C28   O6    A    
S1    O11   S    
O30   C62   S    
C7    C9    A    
C23   O31   S    
C45   H7    S    
O23   C55   S    
C46   H8    S    
C22   C23   A    
O6    Zn2   S    
O28   C60   S    
C27   O5    A    
S2    O14   S    
C18   C20   A    
C47   C51   A    
C11   N1    A    
C58   H36   S    
C60   H42   S    
C46   C50   A    
C3    C46   A    
C13   C17   A    
C1    C4    S    
C6    H10   S    
C57   H35   S    
C2    C3    S    
C57   H33   S    
C58   H38   S    
C21   O29   S    
C5    C10   A    
C37   C39   A    
O29   C61   S    
S3    O17   S    
C38   C40   A    
C27   C42   S    
C13   N1    A    
O26   C58   S    
C33   C35   A    
C50   O24   S    
C37   C41   A    
C53   H21   S    
C43   H5    S    
C24   O32   S    
C48   C52   A    
C63   H51   S    
C59   H40   S    
C20   C25   S    
C21   C24   A    
C61   H45   S    
O14   H18   S    
C56   H30   S    
O5    Zn1   S    
C55   H29   S    
C61   H46   S    
C5    H9    S    
