data_mof_unit_6340.cif
_audit_creation_date              2012-12-11T15:22:42-0500
_audit_creation_method            fapswitch 2.2
_symmetry_space_group_name_H-M    P1
_symmetry_Int_Tables_number       1
_space_group_crystal_system       triclinic
_cell_length_a                    22.934892
_cell_length_b                    7.21067
_cell_length_c                    20.827413
_cell_angle_alpha                 89.997777
_cell_angle_beta                  93.058732
_cell_angle_gamma                 90.001604
_cell_volume                      3439.44599571

loop_
_atom_site_label
_atom_site_type_symbol
_atom_type_description
_atom_site_fract_x
_atom_site_fract_y
_atom_site_fract_z
_atom_type_partial_charge
O1    O     O_R   0.438030 0.494310 0.439340 -0.515628
O2    O     O_R   0.561970 0.994310 0.560660 -0.515743
O3    O     O_R   0.556900 0.822900 0.435960 -0.536467
O4    O     O_R   0.443100 0.322900 0.564040 -0.536457
C1    C     C_R   0.575782 0.655484 0.421049 0.718728
C2    C     C_R   0.424218 0.155477 0.578951 0.718817
O5    O     O_R   0.438170 0.823950 0.431660 -0.535517
O6    O     O_R   0.561830 0.323950 0.568340 -0.535588
O7    O     O_R   0.442390 0.995390 0.556340 -0.536630
O8    O     O_R   0.557610 0.495390 0.443660 -0.536645
C3    C     C_R   0.418271 0.655170 0.415746 0.739181
C4    C     C_R   0.581730 0.155170 0.584251 0.739099
O9    O     O_3   0.501520 0.661170 0.540910 -0.368760
O10   O     O_3   0.498480 0.161170 0.459090 -0.368665
V1    V     V_3+5 0.499720 0.935580 0.492410 1.515916
V2    V     V_3+5 0.500280 0.435580 0.507590 1.515883
C5    C     C_R   0.820313 0.953838 0.870571 0.165234
C6    C     C_R   0.179688 0.453813 0.129431 0.165168
C7    C     C_R   0.866999 0.082222 0.868741 -0.206967
C8    C     C_R   0.133010 0.582229 0.131250 -0.206909
C9    C     C_R   0.865191 0.222702 0.821935 0.328379
C10   C     C_R   0.134841 0.722782 0.178028 0.328390
C11   C     C_R   0.814864 0.246210 0.780004 -0.008260
C12   C     C_R   0.185180 0.746320 0.219939 -0.008199
C13   C     C_R   0.770329 0.108562 0.778182 -0.135771
C14   C     C_R   0.229703 0.608652 0.221775 -0.135743
C15   C     C_R   0.773239 0.959771 0.822941 0.089987
C16   C     C_R   0.226784 0.459833 0.177031 0.089827
C17   C     C_R   0.807458 0.406354 0.741028 0.333502
C18   C     C_R   0.192614 0.906519 0.258876 0.333620
C19   C     C_R   0.760453 0.416204 0.695371 -0.218301
C20   C     C_R   0.239616 0.916361 0.304540 -0.218133
C21   C     C_R   0.719117 0.273507 0.688706 0.073587
C22   C     C_R   0.280928 0.773614 0.311236 0.073670
C23   C     C_R   0.722892 0.120724 0.731411 -0.103021
C24   C     C_R   0.277138 0.620811 0.268549 -0.102832
C25   C     C_R   0.679453 0.981076 0.727106 -0.039636
C26   C     C_R   0.320564 0.481146 0.272870 -0.039838
C27   C     C_R   0.680829 0.836906 0.773491 0.308014
C28   C     C_R   0.319225 0.337136 0.226434 0.307570
C29   C     C_R   0.728365 0.823130 0.819855 0.138233
C30   C     C_R   0.271685 0.323287 0.180092 0.138287
C31   C     C_R   0.674443 0.283430 0.639589 0.266820
C32   C     C_R   0.325600 0.783522 0.360355 0.266759
C33   C     C_R   0.630896 0.144133 0.634440 -0.231981
C34   C     C_R   0.369113 0.644145 0.365546 -0.231741
C35   C     C_R   0.634438 0.991698 0.677215 0.332243
C36   C     C_R   0.365551 0.491673 0.322793 0.332159
H1    H     H_    0.756152 0.538366 0.665207 0.162647
H2    H     H_    0.243934 0.038552 0.334681 0.162583
C37   C     C_3   0.236791 0.303053 0.793429 -0.067846
C38   C     C_3   0.763213 0.803045 0.206563 -0.067866
C39   C     C_3   0.257892 0.957740 0.810668 -0.027705
C40   C     C_3   0.742105 0.457730 0.189339 -0.027709
C41   C     C_3   0.311253 0.982989 0.766227 0.634552
C42   C     C_3   0.688744 0.482992 0.233779 0.634534
H3    H     H_    0.322938 0.375424 0.761047 0.142839
H4    H     H_    0.677068 0.875429 0.238942 0.142836
H5    H     H_    0.262705 0.321871 0.839462 0.117401
H6    H     H_    0.737299 0.821856 0.160529 0.117416
H7    H     H_    0.239141 0.818145 0.800248 0.201643
H8    H     H_    0.760852 0.318136 0.199766 0.201654
C43   C     C_1   0.378949 0.146310 0.624931 -0.151541
C44   C     C_1   0.621051 0.646329 0.375068 -0.151524
C45   C     C_3   0.208373 0.103584 0.792878 -0.014801
C46   C     C_3   0.791627 0.603573 0.207122 -0.014805
C47   C     C_3   0.281380 0.319496 0.738976 0.231631
C48   C     C_3   0.718624 0.819499 0.261016 0.231624
C49   C     C_3   0.293861 0.123470 0.709975 -0.046880
C50   C     C_3   0.706139 0.623480 0.290025 -0.046872
C51   C     C_3   0.236313 0.050336 0.675692 -0.462275
C52   C     C_3   0.763685 0.550345 0.324310 -0.462254
C53   C     C_3   0.184861 0.059321 0.722177 0.185652
C54   C     C_3   0.815138 0.559320 0.277825 0.185642
C55   C     C_1   0.340819 0.136981 0.663159 0.063547
C56   C     C_1   0.659182 0.636999 0.336841 0.063548
C57   C     C_1   0.160264 0.091921 0.838374 0.045024
C58   C     C_1   0.839736 0.591901 0.161627 0.045036
C59   C     C_1   0.121484 0.083376 0.875808 -0.169413
C60   C     C_1   0.878516 0.583356 0.124192 -0.169403
H9    H     H_    0.155571 0.172892 0.704818 0.141690
H10   H     H_    0.844430 0.672892 0.295179 0.141692
H11   H     H_    0.224886 0.131996 0.631513 0.163575
H12   H     H_    0.775114 0.632010 0.368486 0.163590
H13   H     H_    0.243098 0.906387 0.658473 0.213596
H14   H     H_    0.756897 0.406399 0.341535 0.213598
O11   O     O_R   0.942420 0.735670 0.056390 -0.537636
O12   O     O_R   0.057580 0.235670 0.943610 -0.537636
O13   O     O_R   0.061840 0.404850 0.068350 -0.549101
O14   O     O_R   0.938160 0.904850 0.931650 -0.549088
C61   C     C_R   0.082211 0.573144 0.083419 0.748162
C62   C     C_R   0.917790 0.073145 0.916580 0.748162
O15   O     O_R   0.943100 0.406010 0.064050 -0.537033
O16   O     O_R   0.056900 0.906010 0.935950 -0.537026
O17   O     O_R   0.938020 0.234710 0.939330 -0.509827
O18   O     O_R   0.061980 0.734710 0.060670 -0.509812
C63   C     C_R   0.924256 0.574463 0.078809 0.714356
C64   C     C_R   0.075744 0.074470 0.921191 0.714378
O19   O     O_3   0.998500 0.567790 0.959120 -0.369069
O20   O     O_3   0.001500 0.067790 0.040880 -0.369073
V3    V     V_3+5 0.000280 0.293330 0.007580 1.487161
V4    V     V_3+5 0.999720 0.793330 0.992420 1.487186
N1    N     N_3   0.819063 0.823377 0.922675 -0.606785
H15   H     H_    0.851077 0.722306 0.917372 0.273540
H16   H     H_    0.826109 0.892467 0.966551 0.205191
N2    N     N_3   0.180898 0.323193 0.077379 -0.606846
H17   H     H_    0.148881 0.222170 0.082744 0.273678
H18   H     H_    0.173837 0.392149 0.033478 0.205191
N3    N     N_3   0.276453 0.953181 0.879473 -0.620305
H19   H     H_    0.279687 0.085848 0.899155 0.225312
H20   H     H_    0.244880 0.882933 0.904579 0.235012
N4    N     N_3   0.723543 0.453161 0.120534 -0.620273
H21   H     H_    0.720313 0.585824 0.100846 0.225347
H22   H     H_    0.755115 0.382905 0.095432 0.235024
O21   O     O_3   0.362129 0.043548 0.801613 -0.618721
H23   H     H_    0.352551 0.152677 0.827837 0.275067
O22   O     O_3   0.637869 0.543552 0.198390 -0.618750
H24   H     H_    0.647451 0.652674 0.172160 0.275067
O23   O     O_3   0.323288 0.807643 0.739938 -0.613484
H25   H     H_    0.362352 0.813132 0.721662 0.326324
O24   O     O_3   0.676704 0.307651 0.260075 -0.613488
H26   H     H_    0.637640 0.313147 0.278350 0.326304
O25   O     O_3   0.150099 0.897867 0.718892 -0.627003
H27   H     H_    0.175782 0.787491 0.718954 0.324582
O26   O     O_3   0.849897 0.397865 0.281117 -0.627002
H28   H     H_    0.824212 0.287490 0.281059 0.324582
N5    N     N_3   0.194050 0.455522 0.790871 -0.635548
H29   H     H_    0.176879 0.470333 0.836121 0.237563
H30   H     H_    0.158974 0.427881 0.758403 0.233486
N6    N     N_3   0.805957 0.955511 0.209114 -0.635546
H31   H     H_    0.823127 0.970317 0.163862 0.237567
H32   H     H_    0.841034 0.927871 0.241580 0.233487
O27   O     O_3   0.263890 0.448578 0.690797 -0.603309
H33   H     H_    0.223700 0.418483 0.674413 0.304821
O28   O     O_3   0.736118 0.948586 0.309189 -0.603306
H34   H     H_    0.776308 0.918491 0.325573 0.304824
O29   O     O_3   0.914436 0.330473 0.816684 -0.608452
H35   H     H_    0.921657 0.340766 0.770305 0.320929
O30   O     O_3   0.085603 0.830582 0.183275 -0.608499
H36   H     H_    0.078420 0.841097 0.229657 0.320942
O31   O     O_3   0.844523 0.556472 0.750446 -0.627139
H37   H     H_    0.832026 0.658685 0.720962 0.287328
O32   O     O_3   0.155584 0.056691 0.249410 -0.627165
H38   H     H_    0.168133 0.158992 0.278824 0.287339
O33   O     O_3   0.675916 0.427267 0.595816 -0.649841
H39   H     H_    0.663674 0.378584 0.552713 0.283946
O34   O     O_3   0.324162 0.927437 0.404092 -0.649852
H40   H     H_    0.336300 0.878739 0.447220 0.283934
O35   O     O_3   0.593073 0.854091 0.669455 -0.589419
H41   H     H_    0.614702 0.739217 0.659615 0.343059
O36   O     O_3   0.406859 0.353931 0.330613 -0.589498
H42   H     H_    0.385168 0.239030 0.340271 0.343257
O37   O     O_3   0.634812 0.712191 0.772799 -0.620248
H43   H     H_    0.635620 0.636629 0.812301 0.301151
O38   O     O_3   0.365244 0.212479 0.227076 -0.620342
H44   H     H_    0.364802 0.138730 0.187163 0.301193
N7    N     N_3   0.732374 0.665362 0.862028 -0.614888
H45   H     H_    0.698692 0.670827 0.893872 0.235991
H46   H     H_    0.729418 0.543342 0.834943 0.238415
N8    N     N_3   0.267694 0.165434 0.137951 -0.614686
H47   H     H_    0.301257 0.171271 0.105964 0.235712
H48   H     H_    0.270894 0.043455 0.165046 0.238834

loop_
_geom_bond_atom_site_label_1
_geom_bond_atom_site_label_2
_ccdc_geom_bond_type
C18   C20   A    
N7    H45   S    
O18   V4    S    
C60   C63   S    
O22   H24   S    
C42   O22   S    
C59   C64   S    
O34   H40   S    
O1    C3    A    
C9    O29   S    
O2    C4    A    
C47   O27   S    
C2    O7    A    
N4    H22   S    
O12   V3    S    
O3    V1    S    
O28   H34   S    
C27   C29   A    
C41   O23   S    
O5    C3    A    
C41   O21   S    
C27   O37   S    
C11   C17   A    
C23   C25   A    
C19   H1    S    
N3    H20   S    
C58   C60   T    
C54   O26   S    
N2    H17   S    
O16   C64   A    
C39   N3    S    
O32   H38   S    
C46   C54   S    
C32   O34   S    
C45   C53   S    
C37   C45   S    
C49   C51   S    
O14   V4    S    
C7    C62   S    
C38   H6    S    
C5    C7    A    
C61   O18   A    
C51   H13   S    
C39   H7    S    
C35   O35   S    
C53   O25   S    
O36   H42   S    
C19   C21   A    
C28   O38   S    
C25   C35   A    
C39   C45   S    
C26   C36   A    
C38   C48   S    
C33   C35   A    
N7    H46   S    
H3    C47   S    
C53   H9    S    
N4    H21   S    
C32   C34   A    
O33   H39   S    
C51   H11   S    
C39   C41   S    
C46   C58   S    
C8    C61   S    
C40   C42   S    
C45   C57   S    
C5    C15   A    
O25   H27   S    
C6    C16   A    
C52   C54   S    
O15   V3    S    
C51   C53   S    
C4    C33   S    
O5    V1    S    
C40   H8    S    
C20   C22   A    
C10   O30   S    
C62   O17   A    
C18   O32   S    
C1    C44   S    
C47   C49   S    
C21   C31   A    
C2    C43   S    
O4    V2    S    
N6    H32   S    
N5    H30   S    
C31   O33   S    
O11   V4    S    
C15   C29   A    
O14   C62   A    
O6    C4    A    
C17   O31   S    
C44   C56   T    
C57   C59   T    
C40   N4    S    
N1    H16   S    
O1    V2    S    
C37   C47   S    
O2    V1    S    
C31   C33   A    
C20   H2    S    
O24   H26   S    
C52   H12   S    
C13   C23   A    
C29   N7    S    
C14   C24   A    
C8    C10   A    
C42   C50   S    
C9    C11   A    
C50   C56   S    
O27   H33   S    
C10   C12   A    
C36   O36   S    
O4    C2    A    
C37   H5    S    
N5    H29   S    
O15   C63   A    
N1    H15   S    
C38   C46   S    
O30   H36   S    
C54   H10   S    
H4    C48   S    
C22   C32   A    
O13   V3    S    
C48   O28   S    
C30   N8    S    
C12   C14   A    
C28   C30   A    
O3    C1    A    
C52   H14   S    
O23   H25   S    
C40   C46   S    
C13   C15   A    
O29   H35   S    
C14   C16   A    
C38   N6    S    
C42   O24   S    
C41   C49   S    
C24   C26   A    
N6    H31   S    
C5    N1    S    
C37   N5    S    
C1    O8    A    
C17   C19   A    
O8    V2    S    
O31   H37   S    
N8    H47   S    
C26   C28   A    
O26   H28   S    
N2    H18   S    
C6    N2    S    
C16   C30   A    
O20   V3    S    
C21   C23   A    
C22   C24   A    
C49   C55   S    
C6    C8    A    
C11   C13   A    
O7    V1    S    
C43   C55   T    
C12   C18   A    
C34   C36   A    
O17   V3    S    
C25   C27   A    
O19   V4    S    
O16   V4    S    
O6    V2    S    
O13   C61   A    
O9    V2    S    
N3    H19   S    
O38   H44   S    
C48   C50   S    
O10   V1    S    
C3    C34   S    
C50   C52   S    
O11   C63   A    
O37   H43   S    
O35   H41   S    
O12   C64   A    
O21   H23   S    
N8    H48   S    
C7    C9    A    
