data_mof_unit_62216.cif
_audit_creation_date              2012-12-10T18:37:08-0500
_audit_creation_method            fapswitch 2.2
_symmetry_space_group_name_H-M    P1
_symmetry_Int_Tables_number       1
_space_group_crystal_system       triclinic
_cell_length_a                    25.55097
_cell_length_b                    25.55402
_cell_length_c                    25.557165
_cell_angle_alpha                 119.969155
_cell_angle_beta                  90.03334
_cell_angle_gamma                 119.980063
_cell_volume                      11805.1403662

loop_
_atom_site_label
_atom_site_type_symbol
_atom_type_description
_atom_site_fract_x
_atom_site_fract_y
_atom_site_fract_z
_atom_type_partial_charge
C1    C     C_R   0.599613 0.699245 0.599671 0.506539
C2    C     C_1   0.827060 0.499970 0.827018 -0.060618
C3    C     C_3   0.088373 0.301565 0.672181 -0.138702
C4    C     C_3   0.302169 0.070841 0.181588 -0.376268
C5    C     C_3   0.294382 0.042506 0.320828 -0.231689
C6    C     C_R   0.400336 0.300724 0.400301 0.504470
C7    C     C_3   0.310988 0.043777 0.221603 0.079085
C8    C     C_3   0.270078 0.955796 0.181588 -0.045970
C9    C     C_1   0.140002 0.778413 0.138721 -0.013330
C10   C     C_3   0.289887 0.073199 0.282861 0.091361
C11   C     C_3   0.249760 0.956871 0.278469 -0.239519
C12   C     C_3   0.216284 0.926632 0.209541 0.064769
C13   C     C_3   0.176030 0.957428 0.213972 -0.217019
C14   C     C_1   0.860377 0.499932 0.860362 -0.009257
C15   C     C_3   0.218135 0.042892 0.260997 -0.225147
C16   C     C_1   0.174163 0.845050 0.170959 -0.074412
C17   C     C_1   0.329082 0.154834 0.326020 -0.075506
C18   C     C_R   0.400291 0.499899 0.599571 0.497795
C19   C     C_1   0.361416 0.221460 0.360414 -0.017316
C20   C     C_3   0.775256 0.582630 0.317485 -0.082534
C21   C     C_3   0.676596 0.467428 0.219036 -0.215805
C22   C     C_3   0.720005 0.468047 0.176671 -0.231753
C23   C     C_1   0.860936 0.500197 0.139505 -0.013591
C24   C     C_3   0.714725 0.502207 0.287917 0.074813
C25   C     C_3   0.787005 0.548317 0.736457 -0.106967
C26   C     C_3   0.816723 0.581543 0.272682 -0.187007
C27   C     C_3   0.788188 0.501027 0.214985 0.074322
C28   C     C_3   0.781342 0.453400 0.239495 -0.086660
C29   C     C_3   0.738459 0.455103 0.282922 -0.208588
C30   C     C_R   0.599724 0.500100 0.400431 0.506903
C31   C     C_1   0.828058 0.500440 0.173283 -0.075815
C32   C     C_1   0.673180 0.501046 0.327953 -0.074684
C33   C     C_1   0.639479 0.500406 0.360912 -0.012677
C34   C     C_3   0.780185 0.956316 0.753675 -0.211574
C35   C     C_3   0.683644 0.956529 0.762007 -0.283698
C36   C     C_3   0.713298 0.499784 0.713477 0.040202
C37   C     C_3   0.725993 0.042483 0.803971 -0.279655
C38   C     C_1   0.860608 0.221417 0.860881 -0.004596
C39   C     C_3   0.714333 0.926484 0.712912 0.028346
C40   C     C_3   0.825341 0.042372 0.793897 -0.083732
C41   C     C_3   0.787991 0.073210 0.786602 0.074790
C42   C     C_R   0.400166 0.500024 0.400200 0.507868
C43   C     C_3   0.767326 0.044826 0.715039 0.200923
C44   C     C_3   0.721703 0.958167 0.671994 0.224245
C45   C     C_1   0.827782 0.154803 0.827570 -0.032629
C46   C     C_1   0.672895 0.845077 0.672418 -0.045503
C47   C     C_3   0.787900 0.567998 0.804683 -0.111213
C48   C     C_1   0.639279 0.778462 0.639218 0.000502
C49   C     C_3   0.249853 0.529828 0.323009 -0.195521
C50   C     C_3   0.240393 0.423125 0.225936 -0.285456
C51   C     C_3   0.198051 0.423135 0.182456 -0.220357
C52   C     C_1   0.139845 0.500358 0.139254 0.020585
C53   C     C_3   0.289228 0.502773 0.286835 0.013160
C54   C     C_R   0.599871 0.499948 0.599880 0.503952
C55   C     C_3   0.206746 0.530446 0.280413 0.142035
C56   C     C_3   0.215769 0.502315 0.213310 0.069529
C57   C     C_3   0.287907 0.556190 0.223951 0.147941
C58   C     C_3   0.786455 0.499939 0.786459 0.059674
C59   C     C_3   0.331663 0.551945 0.264275 0.177928
C60   C     C_1   0.173865 0.501091 0.172521 0.023918
C61   C     C_1   0.328641 0.501395 0.327428 -0.016386
C62   C     C_1   0.361171 0.500601 0.360667 0.014365
C63   C     C_3   0.285056 0.568026 0.742879 0.135542
C64   C     C_3   0.312897 0.499400 0.767838 0.154050
C65   C     C_3   0.273655 0.506563 0.815165 -0.043444
C66   C     C_3   0.786033 0.480193 0.718775 -0.111556
C67   C     C_1   0.139014 0.499311 0.860501 -0.003576
C68   C     C_3   0.285102 0.497605 0.711930 0.084614
C69   C     C_3   0.713508 0.519565 0.781128 -0.088887
C70   C     C_3   0.236878 0.562704 0.780540 -0.266091
C71   C     C_3   0.212761 0.496974 0.785991 0.035831
C72   C     C_3   0.172527 0.424376 0.716895 0.198199
C73   C     C_3   0.214782 0.425243 0.672439 -0.055418
C74   C     C_1   0.172261 0.498583 0.827115 -0.042119
C75   C     C_1   0.326527 0.498748 0.671667 -0.008282
C76   C     C_1   0.360290 0.499451 0.638799 -0.003756
C77   C     C_R   0.900431 0.500176 0.099724 0.504978
C78   C     C_3   0.711637 0.431546 0.695010 -0.088556
C79   C     C_R   0.099440 0.499563 0.900166 0.503766
C80   C     C_3   0.713114 0.452050 0.763173 0.032967
C81   C     C_R   0.099722 0.699141 0.099386 0.505204
C82   C     C_R   0.900149 0.300625 0.900469 0.502551
C83   C     C_R   0.099723 0.499807 0.099730 0.504605
C84   C     C_R   0.900049 0.499902 0.900050 0.504980
C85   C     C_1   0.639544 0.499924 0.639579 -0.008197
C86   C     C_3   0.383320 0.075698 0.241331 -0.400853
C87   C     C_3   0.245249 0.914459 0.108017 -0.420142
C88   C     C_3   0.759450 0.638501 0.332660 -0.425214
C89   C     C_3   0.845911 0.476129 0.274311 -0.427144
C90   C     C_3   0.671213 0.397283 0.778512 -0.408518
C91   C     C_1   0.672844 0.499873 0.672933 -0.063665
C92   C     C_3   0.856740 0.075171 0.863936 -0.436891
C93   C     C_3   0.782061 0.916048 0.615713 -0.080503
C94   C     C_3   0.813885 0.090638 0.655966 -0.118636
C95   C     C_3   0.124640 0.524446 0.322412 -0.137438
C96   C     C_3   0.389976 0.683056 0.345831 -0.117609
C97   C     C_3   0.324650 0.511037 0.135108 -0.121560
C98   C     C_3   0.372115 0.450881 0.759203 -0.134571
C99   C     C_3   0.260872 0.458148 0.839494 -0.309362
C100  C     C_3   0.182535 0.412795 0.612376 -0.424634
C101  C     C_3   0.296256 0.650783 0.721274 -0.134617
H1    H     H_    0.679693 0.375355 0.649828 0.101701
H2    H     H_    0.816301 0.464214 0.693613 0.102687
H3    H     H_    0.326489 0.131647 0.212030 0.135234
H4    H     H_    0.635060 0.409353 0.197340 0.111458
H5    H     H_    0.656502 0.497527 0.219838 0.119982
H6    H     H_    0.722775 0.501049 0.159037 0.115643
H7    H     H_    0.698046 0.410603 0.133813 0.110702
H8    H     H_    0.764849 0.477755 0.331883 0.116985
H9    H     H_    0.696671 0.397486 0.262434 0.101643
H10   H     H_    0.804657 0.602921 0.364030 0.126978
H11   H     H_    0.866847 0.609217 0.300385 0.104366
H12   H     H_    0.756662 0.395098 0.196929 0.128878
H13   H     H_    0.302051 0.940350 0.188354 0.123116
H14   H     H_    0.771592 0.937359 0.785676 0.125247
H15   H     H_    0.634737 0.935070 0.736764 0.111126
H16   H     H_    0.677968 0.937015 0.793375 0.129593
H17   H     H_    0.738086 0.064174 0.855470 0.132436
H18   H     H_    0.697970 0.061750 0.796442 0.102983
H19   H     H_    0.673533 0.945178 0.656493 0.099089
H20   H     H_    0.683090 0.535257 0.806278 0.100134
H21   H     H_    0.804050 0.932242 0.724479 0.087409
H22   H     H_    0.865385 0.058020 0.774610 0.173198
H23   H     H_    0.739088 0.066007 0.711696 0.057267
H24   H     H_    0.202071 0.059176 0.303482 0.113625
H25   H     H_    0.219337 0.492429 0.336866 0.150717
H26   H     H_    0.265847 0.399870 0.198476 0.103088
H27   H     H_    0.209270 0.386033 0.239818 0.137024
H28   H     H_    0.146804 0.385105 0.175008 0.167194
H29   H     H_    0.202869 0.400404 0.134180 0.117977
H30   H     H_    0.819699 0.624065 0.850012 0.103071
H31   H     H_    0.349102 0.520326 0.232414 0.138358
H32   H     H_    0.296716 0.611166 0.253066 0.116166
H33   H     H_    0.281705 0.585362 0.368733 0.091968
H34   H     H_    0.222802 0.588847 0.303493 0.071903
H35   H     H_    0.210591 0.067452 0.238708 0.110176
H36   H     H_    0.260856 0.615651 0.829113 0.083997
H37   H     H_    0.334388 0.616371 0.777814 0.081945
H38   H     H_    0.363008 0.550907 0.795497 0.055927
H39   H     H_    0.304618 0.564407 0.859110 0.069433
H40   H     H_    0.817130 0.588162 0.724940 0.107923
H41   H     H_    0.217332 0.377091 0.653819 0.203557
H42   H     H_    0.132136 0.424176 0.699518 0.094687
H43   H     H_    0.195391 0.555849 0.756424 0.143578
H44   H     H_    0.278241 0.934858 0.277283 0.109012
H45   H     H_    0.344366 0.062120 0.339520 0.113840
H46   H     H_    0.135937 0.933961 0.230830 0.112448
H47   H     H_    0.394785 0.058187 0.268894 0.110531
H48   H     H_    0.397353 0.055505 0.198004 0.118469
H49   H     H_    0.413832 0.137095 0.270519 0.138146
H50   H     H_    0.207981 0.919162 0.093015 0.135634
H51   H     H_    0.285534 0.936215 0.090901 0.121443
H52   H     H_    0.224409 0.854816 0.083280 0.139201
H53   H     H_    0.732031 0.641476 0.366472 0.145202
H54   H     H_    0.804624 0.694555 0.355828 0.121376
H55   H     H_    0.731505 0.623721 0.288481 0.137310
H56   H     H_    0.837245 0.437218 0.286737 0.122022
H57   H     H_    0.279948 0.063766 0.363761 0.117144
H58   H     H_    0.876048 0.473703 0.243113 0.144279
H59   H     H_    0.872685 0.532732 0.319309 0.133281
H60   H     H_    0.619977 0.370458 0.755317 0.125249
H61   H     H_    0.680640 0.354370 0.760362 0.133640
H62   H     H_    0.682179 0.426713 0.831140 0.133822
H63   H     H_    0.891472 0.136176 0.892032 0.146811
H64   H     H_    0.820339 0.061408 0.887343 0.136893
H65   H     H_    0.883617 0.052309 0.865234 0.124186
H66   H     H_    0.826116 0.966508 0.656701 0.154949
H67   H     H_    0.794908 0.905893 0.571789 0.129556
H68   H     H_    0.213103 0.937905 0.300283 0.122770
H69   H     H_    0.766374 0.866861 0.615493 0.114162
H70   H     H_    0.812946 0.140200 0.682473 0.105085
H71   H     H_    0.769504 0.043690 0.613627 0.146834
H72   H     H_    0.855116 0.104602 0.638195 0.133777
H73   H     H_    0.125037 0.565946 0.318285 0.118248
H74   H     H_    0.156938 0.551861 0.370393 0.102181
H75   H     H_    0.075201 0.485471 0.317980 0.142645
H76   H     H_    0.345861 0.673773 0.357710 0.075205
H77   H     H_    0.398992 0.705874 0.316952 0.128533
H78   H     H_    0.430400 0.725781 0.391823 0.147043
H79   H     H_    0.154038 0.940464 0.165953 0.115961
H80   H     H_    0.300338 0.456884 0.128147 0.088685
H81   H     H_    0.376930 0.546373 0.161008 0.130706
H82   H     H_    0.319127 0.499403 0.086688 0.142521
H83   H     H_    0.394094 0.484953 0.812137 0.101624
H84   H     H_    0.403641 0.479604 0.739119 0.120275
H85   H     H_    0.367737 0.398483 0.738802 0.146919
H86   H     H_    0.232819 0.398495 0.800044 0.233157
H87   H     H_    0.307249 0.474202 0.864545 0.107699
H88   H     H_    0.235268 0.466835 0.874646 0.120904
H89   H     H_    0.169474 0.452019 0.625218 0.185635
H90   H     H_    0.819502 0.613887 0.254238 0.117739
H91   H     H_    0.214039 0.418130 0.582827 0.159610
H92   H     H_    0.137717 0.356074 0.581989 0.094092
H93   H     H_    0.278577 0.654060 0.684105 0.142348
H94   H     H_    0.349368 0.682918 0.735050 0.116525
H95   H     H_    0.281859 0.675863 0.763033 0.104778
H96   H     H_    0.089795 0.284961 0.623198 0.104851
H97   H     H_    0.052083 0.313939 0.682109 0.111273
H98   H     H_    0.073211 0.253798 0.674114 0.148621
H99   H     H_    0.323589 0.058800 0.142992 0.120084
H100  H     H_    0.251016 0.044227 0.158623 0.119687
O1    O     O_3   0.500000 0.500000 0.500000 -0.433069
O2    O     O_R   0.960830 0.335840 0.918110 -0.534206
O3    O     O_R   0.082190 0.542890 0.125100 -0.540698
O4    O     O_R   0.625020 0.663960 0.582080 -0.540685
O5    O     O_R   0.874750 0.456980 0.917820 -0.538518
O6    O     O_R   0.082060 0.456790 0.039130 -0.535742
O7    O     O_R   0.960740 0.542810 0.917680 -0.537984
O8    O     O_R   0.081970 0.663760 0.038700 -0.539710
O9    O     O_R   0.874800 0.335990 0.918070 -0.541677
O10   O     O_R   0.961140 0.543090 0.125040 -0.539019
O11   O     O_R   0.081820 0.456620 0.917920 -0.531687
O12   O     O_R   0.418020 0.456930 0.581980 -0.540623
O13   O     O_R   0.418070 0.336020 0.461010 -0.536123
O14   O     O_R   0.417900 0.542920 0.581890 -0.534794
O15   O     O_R   0.539010 0.457110 0.375020 -0.537230
O16   O     O_R   0.417800 0.543010 0.460800 -0.533815
O17   O     O_R   0.625170 0.542960 0.582200 -0.538833
O18   O     O_R   0.417840 0.457080 0.374840 -0.540428
O19   O     O_R   0.539180 0.456950 0.582160 -0.539409
O20   O     O_3   0.731256 0.923377 0.612347 -0.561260
O21   O     O_3   0.822455 0.071763 0.696996 -0.570768
O22   O     O_3   0.141342 0.484189 0.272620 -0.566420
O23   O     O_R   0.625070 0.543050 0.461120 -0.538366
O24   O     O_3   0.389757 0.619240 0.314450 -0.569668
O25   O     O_3   0.297264 0.549299 0.166164 -0.574869
O26   O     O_3   0.310447 0.433936 0.742069 -0.563093
O27   O     O_3   0.269083 0.575803 0.695175 -0.567858
O28   O     O_3   0.149282 0.362250 0.718932 -0.565350
O29   O     O_R   0.538910 0.663940 0.581950 -0.536013
O30   O     O_R   0.418000 0.336080 0.374960 -0.541602
O31   O     O_3   0.999930 0.499860 0.999930 -0.433101
O32   O     O_R   0.874990 0.457140 0.039030 -0.538449
O33   O     O_R   0.081780 0.542610 0.917740 -0.542140
O34   O     O_R   0.082140 0.663870 0.124840 -0.537887
Zn1   Zn    Zn3+2 0.469350 0.438540 0.530750 0.936263
Zn2   Zn    Zn3+2 0.469190 0.561400 0.530630 0.946898
Zn3   Zn    Zn3+2 0.469250 0.438630 0.407810 0.939177
Zn4   Zn    Zn3+2 0.592210 0.561430 0.530810 0.938375
Zn5   Zn    Zn3+2 0.030570 0.561190 0.969050 0.936885
Zn6   Zn    Zn3+2 0.030810 0.561360 0.092130 0.938677
Zn7   Zn    Zn3+2 0.030630 0.438350 0.969310 0.948507
Zn8   Zn    Zn3+2 0.907720 0.438560 0.969250 0.936607

loop_
_geom_bond_atom_site_label_1
_geom_bond_atom_site_label_2
_ccdc_geom_bond_type
C73   C100  S    
C81   O8    A    
C49   H33   S    
O30   Zn3   S    
C26   H11   S    
C72   H42   S    
O31   Zn8   S    
O10   Zn6   S    
C35   C39   S    
C18   O14   A    
O8    Zn5   S    
C14   C84   S    
C55   C56   S    
C42   O16   A    
C3    O28   S    
O1    Zn2   S    
C99   H86   S    
O3    Zn6   S    
C85   C91   T    
C97   H81   S    
C22   H7    S    
O2    Zn7   S    
C100  H92   S    
C101  H93   S    
C68   C75   S    
C49   H25   S    
C26   C27   S    
C90   H61   S    
C101  O27   S    
O31   Zn7   S    
C64   C68   S    
O18   Zn3   S    
C29   H8    S    
C28   C29   S    
C35   C37   S    
C95   H73   S    
C88   H53   S    
O9    Zn8   S    
C5    C11   S    
C98   H84   S    
C10   C15   S    
C86   H49   S    
C82   O2    A    
C55   H34   S    
C57   C59   S    
C7    C86   S    
C78   H1    S    
C44   H19   S    
C10   C17   S    
C22   H6    S    
C20   C88   S    
C3    H97   S    
O31   Zn5   S    
C56   C57   S    
C51   C56   S    
C7    C10   S    
O4    Zn4   S    
C95   H74   S    
C24   C29   S    
C47   C69   S    
C38   C45   T    
C83   O6    A    
C52   C60   T    
C100  H89   S    
C94   H71   S    
C65   H39   S    
C53   C61   S    
C1    O29   A    
C58   C66   S    
O13   Zn1   S    
O34   Zn6   S    
C37   H17   S    
C20   C24   S    
C93   H67   S    
C65   C71   S    
C37   H18   S    
C3    H98   S    
C87   H52   S    
C54   O17   A    
C28   C89   S    
O14   Zn2   S    
C96   H76   S    
O12   Zn1   S    
C1    O4    A    
C25   C47   S    
C21   H5    S    
C101  H95   S    
C8    H13   S    
C72   C73   S    
C92   H63   S    
C97   O25   S    
C34   H21   S    
C95   H75   S    
C87   H50   S    
C6    O30   A    
C38   C82   S    
C80   C90   S    
C41   C43   S    
C57   H32   S    
C100  H91   S    
O17   Zn4   S    
C4    C7    S    
C2    C14   T    
C92   H64   S    
C99   H87   S    
C51   H29   S    
O32   Zn8   S    
C89   H58   S    
C73   H41   S    
C53   C59   S    
C79   O11   A    
C66   C78   S    
C46   C48   T    
C93   H69   S    
C50   C53   S    
C72   O28   S    
C90   H60   S    
C27   C31   S    
C34   C39   S    
C68   C73   S    
C88   H54   S    
C12   C16   S    
C29   H9    S    
C7    C8    S    
C43   O21   S    
C67   C79   S    
O7    Zn5   S    
C65   C99   S    
C42   O18   A    
O6    Zn7   S    
O1    Zn4   S    
C99   H88   S    
C11   H44   S    
C30   O23   A    
C15   H35   S    
C94   H72   S    
C34   H14   S    
C49   C55   S    
C30   O15   A    
C51   H28   S    
C95   O22   S    
C56   C60   S    
C32   C33   T    
C47   H30   S    
C23   C31   T    
C52   C83   S    
O11   Zn7   S    
C75   C76   T    
C24   C32   S    
C6    C19   S    
C84   O5    A    
C94   H70   S    
C71   C74   S    
C20   H10   S    
C84   O7    A    
C59   H31   S    
C6    O13   A    
C63   C70   S    
C69   H20   S    
C8    C12   S    
C77   O32   A    
C50   C51   S    
O31   Zn6   S    
C35   H15   S    
C67   C74   T    
O33   Zn5   S    
C40   C92   S    
C97   H80   S    
C70   C71   S    
C39   C46   S    
C57   O25   S    
C36   C91   S    
C40   C41   S    
C11   H68   S    
C22   C27   S    
C13   C15   S    
C43   C44   S    
C63   H37   S    
C34   C40   S    
C86   H48   S    
C18   O12   A    
C50   H27   S    
C13   H46   S    
C17   C19   T    
C88   H55   S    
O16   Zn2   S    
C36   C69   S    
C98   H83   S    
C89   H59   S    
C55   O22   S    
C98   O26   S    
C40   H22   S    
C42   C62   S    
C63   C68   S    
C23   C77   S    
C18   C76   S    
C5    H45   S    
C30   C33   S    
C66   H2    S    
C9    C16   T    
C25   H40   S    
C25   C66   S    
C79   O33   A    
C83   O3    A    
O29   Zn2   S    
C86   H47   S    
O1    Zn3   S    
C54   C85   S    
C11   C12   S    
C2    C58   S    
C1    C48   S    
C89   H56   S    
C39   C44   S    
C50   H26   S    
C26   H90   S    
C58   C80   S    
C13   H79   S    
C70   H43   S    
C54   O19   A    
C90   H62   S    
C87   H51   S    
C8    C87   S    
O15   Zn3   S    
C96   O24   S    
O19   Zn1   S    
C101  H94   S    
C5    C10   S    
C98   H85   S    
C36   C78   S    
C64   C65   S    
C47   C58   S    
O5    Zn8   S    
C4    H100  S    
C69   C80   S    
C20   C26   S    
C49   C53   S    
C4    H3    S    
C3    H96   S    
C78   C80   S    
C96   H78   S    
C37   C41   S    
C61   C62   T    
C59   O24   S    
O23   Zn4   S    
C35   H16   S    
C28   H12   S    
C77   O10   A    
C25   C36   S    
O1    Zn1   S    
C92   H65   S    
C4    H99   S    
C71   C72   S    
C12   C13   S    
C93   H66   S    
C70   H36   S    
C5    H57   S    
C15   H24   S    
C21   C24   S    
C27   C28   S    
C94   O21   S    
C41   C45   S    
C97   H82   S    
C93   O20   S    
C44   O20   S    
C96   H77   S    
C81   O34   A    
C21   C22   S    
C43   H23   S    
C64   O26   S    
C21   H4    S    
C63   O27   S    
C9    C81   S    
C82   O9    A    
C64   H38   S    
