data_mof_unit_55901.cif
_audit_creation_date              2012-12-11T15:32:38-0500
_audit_creation_method            fapswitch 2.2
_symmetry_space_group_name_H-M    P1
_symmetry_Int_Tables_number       1
_space_group_crystal_system       triclinic
_cell_length_a                    6.96406
_cell_length_b                    20.328976
_cell_length_c                    24.495042
_cell_angle_alpha                 89.693044
_cell_angle_beta                  90.64285
_cell_angle_gamma                 89.281907
_cell_volume                      3467.27416625

loop_
_atom_site_label
_atom_site_type_symbol
_atom_type_description
_atom_site_fract_x
_atom_site_fract_y
_atom_site_fract_z
_atom_type_partial_charge
O1    O     O_R   0.507320 0.423560 0.460500 -0.530329
O2    O     O_R   0.170760 0.556250 0.437010 -0.536753
O3    O     O_R   0.004030 0.576440 0.539500 -0.535224
C1    C     C_R   0.338470 0.576452 0.421099 0.728869
O4    O     O_R   0.177370 0.422820 0.454110 -0.543663
O5    O     O_R   0.010680 0.442050 0.556720 -0.547021
C2    C     C_R   0.346196 0.397742 0.444251 0.683912
O6    O     O_R   0.500680 0.557950 0.443280 -0.533570
O7    O     O_3   0.340380 0.506470 0.533650 -0.368830
V1    V     V_3+5 0.064130 0.498800 0.493760 1.414174
O8    O     O_R   0.681160 0.443750 0.562990 -0.533115
C3    C     C_R   0.851783 0.423389 0.578757 0.719432
O9    O     O_R   0.674560 0.577180 0.545890 -0.537317
C4    C     C_R   0.842744 0.601309 0.556396 0.692920
V2    V     V_3+5 0.564560 0.501200 0.506240 1.431204
O10   O     O_3   0.838180 0.493530 0.466350 -0.365238
C5    C     C_R   0.974780 0.838415 0.910505 -0.044195
C6    C     C_R   0.849261 0.662597 0.588241 -0.037135
C7    C     C_R   0.013863 0.720396 0.905797 -0.166140
C8    C     C_R   0.012543 0.778100 0.936044 -0.170667
C9    C     C_R   0.939238 0.840840 0.853857 -0.211620
C10   C     C_R   0.942538 0.782550 0.821670 0.110904
C11   C     C_R   0.979838 0.722035 0.849207 0.143246
C12   C     C_R   0.911494 0.781972 0.763464 -0.005752
C13   C     C_R   0.916285 0.720912 0.734305 0.057930
C14   C     C_R   0.953170 0.662473 0.764265 -0.166097
C15   C     C_R   0.984291 0.663257 0.820284 -0.206299
C16   C     C_R   0.877194 0.840423 0.733519 -0.229737
C17   C     C_R   0.846898 0.840224 0.677286 0.362646
C18   C     C_R   0.848537 0.780782 0.648168 0.052778
C19   C     C_R   0.884080 0.720222 0.676213 0.035420
C20   C     C_R   0.814343 0.780833 0.591298 -0.096822
C21   C     C_R   0.813648 0.722451 0.561934 -0.192690
C22   C     C_R   0.884764 0.661314 0.644772 -0.185318
H1    H     H_    0.012692 0.616993 0.841275 0.118643
H2    H     H_    0.909753 0.613465 0.662686 0.087513
H3    H     H_    0.784944 0.723958 0.518378 0.100898
H4    H     H_    0.043076 0.674181 0.926738 0.111563
H5    H     H_    0.041364 0.775735 0.979579 0.105257
H6    H     H_    0.911816 0.888864 0.836482 0.096599
H7    H     H_    0.959970 0.614677 0.745720 0.117825
H8    H     H_    0.873483 0.887936 0.752653 0.157614
H9    H     H_    0.786318 0.825957 0.568852 0.178371
C23   C     C_3   0.809988 0.299353 0.761270 -0.191257
C24   C     C_3   0.994658 0.282851 0.794909 -0.133963
H10   H     H_    0.043783 0.309545 0.831816 0.118427
H11   H     H_    0.707270 0.340011 0.770130 0.122815
H12   H     H_    0.253405 0.295599 0.733106 0.123005
C25   C     C_1   0.959465 0.123560 0.877000 -0.197693
C26   C     C_1   0.869554 0.377291 0.624299 -0.186192
C27   C     C_3   0.758786 0.225538 0.759663 -0.183142
C28   C     C_3   0.942186 0.209454 0.792948 0.095451
C29   C     C_3   0.873674 0.217626 0.706565 0.404068
C30   C     C_3   0.922683 0.291193 0.707979 0.100249
C31   C     C_3   0.057403 0.200978 0.740042 -0.001766
C32   C     C_3   0.109285 0.275142 0.741093 -0.244632
C33   C     C_1   0.948997 0.162816 0.839608 -0.043295
C34   C     C_1   0.893196 0.338449 0.661907 -0.001178
H13   H     H_    0.613362 0.207440 0.767271 0.139156
C35   C     C_3   0.547005 0.729259 0.219269 -0.129299
C36   C     C_3   0.357225 0.693385 0.232019 -0.145886
H14   H     H_    0.315984 0.644566 0.215898 0.113379
H15   H     H_    0.663241 0.710164 0.192821 0.107894
H16   H     H_    0.107748 0.763496 0.197840 0.112531
C37   C     C_1   0.347384 0.622708 0.375551 -0.200344
C38   C     C_1   0.475912 0.878445 0.125265 -0.198538
C39   C     C_3   0.570170 0.746440 0.280583 -0.134245
C40   C     C_3   0.380557 0.710920 0.292987 0.128402
C41   C     C_3   0.456610 0.811817 0.270641 -0.156733
C42   C     C_3   0.432913 0.793869 0.209946 0.147937
C43   C     C_3   0.267705 0.775728 0.283148 0.042257
C44   C     C_3   0.243109 0.758609 0.221999 -0.173911
C45   C     C_1   0.360622 0.662134 0.338143 -0.071166
C46   C     C_1   0.459516 0.840384 0.163518 -0.059906
H17   H     H_    0.496210 0.860873 0.286527 0.118743
H18   H     H_    0.705570 0.741176 0.304547 0.137171
C47   C     C_R   0.471577 0.162910 0.088633 -0.045994
C48   C     C_R   0.349822 0.335516 0.412416 -0.077027
C49   C     C_R   0.549593 0.278221 0.096278 -0.164097
C50   C     C_R   0.542183 0.220688 0.065740 -0.168144
C51   C     C_R   0.408312 0.163177 0.143023 -0.214738
C52   C     C_R   0.418896 0.221077 0.175705 0.085172
C53   C     C_R   0.491051 0.278810 0.150942 0.139956
C54   C     C_R   0.367153 0.223224 0.232338 0.058416
C55   C     C_R   0.392967 0.282491 0.263384 0.062811
C56   C     C_R   0.462315 0.338449 0.236075 -0.188838
C57   C     C_R   0.508823 0.336575 0.181056 -0.203827
C58   C     C_R   0.293324 0.167715 0.259197 -0.189270
C59   C     C_R   0.257677 0.168301 0.314705 -0.192489
C60   C     C_R   0.291609 0.224259 0.345881 0.121482
C61   C     C_R   0.353821 0.283001 0.321021 0.085434
C62   C     C_R   0.268007 0.220459 0.402335 -0.191763
C63   C     C_R   0.309376 0.273524 0.436751 0.008161
C64   C     C_R   0.373659 0.339272 0.355159 -0.226558
H19   H     H_    0.563631 0.380738 0.162091 0.121161
H20   H     H_    0.404965 0.387059 0.338437 0.099694
H21   H     H_    0.205972 0.123685 0.333704 0.125418
H22   H     H_    0.605404 0.322240 0.077362 0.111067
H23   H     H_    0.592803 0.221128 0.024072 0.106329
H24   H     H_    0.359014 0.116949 0.158918 0.095474
H25   H     H_    0.485581 0.384544 0.256428 0.122895
H26   H     H_    0.263129 0.122313 0.238594 0.121592
H27   H     H_    0.222745 0.174251 0.420081 0.119900
O11   O     O_R   0.323550 0.942140 0.056770 -0.534865
O12   O     O_R   0.647080 0.077200 0.045890 -0.537699
O13   O     O_R   0.813610 0.057920 0.943260 -0.537681
C65   C     C_R   0.478098 0.101523 0.056447 0.691466
O14   O     O_R   0.653470 0.943760 0.063000 -0.536879
O15   O     O_R   0.820050 0.923540 0.960490 -0.535618
C66   C     C_R   0.485683 0.923722 0.079033 0.724525
O16   O     O_R   0.317110 0.076520 0.039540 -0.536375
O17   O     O_3   0.483830 0.993580 0.966380 -0.366656
V3    V     V_3+5 0.760140 0.001190 0.006240 1.418627
O18   O     O_R   0.149510 0.922740 0.954070 -0.536502
C67   C     C_R   0.981195 0.899009 0.943171 0.697891
O19   O     O_R   0.143120 0.056170 0.936970 -0.537075
C68   C     C_R   0.973004 0.076819 0.921669 0.726364
V4    V     V_3+5 0.259690 0.998700 0.993700 1.423207
O20   O     O_3   0.986130 0.006420 0.033620 -0.367707
C69   C     C_R   0.201398 0.144674 0.734565 0.087249
C70   C     C_R   0.209219 0.104950 0.687759 -0.115670
C71   C     C_R   0.341020 0.052625 0.684770 -0.057078
C72   C     C_R   0.465992 0.039068 0.728438 -0.027263
C73   C     C_R   0.460145 0.078046 0.775073 -0.132491
C74   C     C_R   0.329212 0.130549 0.778071 -0.143340
H28   H     H_    0.118633 0.114675 0.652739 0.190258
H29   H     H_    0.346779 0.022723 0.648384 0.155708
H30   H     H_    0.567870 0.998591 0.726077 0.159603
H31   H     H_    0.558030 0.067942 0.808810 0.120776
H32   H     H_    0.329618 0.160744 0.814335 0.115723
Cl1   Cl    Cl    0.788865 0.175384 0.648247 -0.727978
C75   C     C_R   0.109716 0.808317 0.315257 0.083919
C76   C     C_R   0.022097 0.865906 0.294299 -0.132835
C77   C     C_R   0.876429 0.897769 0.323167 -0.129624
C78   C     C_R   0.816631 0.872426 0.373189 -0.088688
C79   C     C_R   0.903297 0.815399 0.394527 -0.115155
C80   C     C_R   0.049527 0.783465 0.365841 -0.144724
H33   H     H_    0.066772 0.886156 0.255539 0.109367
H34   H     H_    0.809400 0.941997 0.306643 0.108974
H35   H     H_    0.703233 0.896968 0.395401 0.116307
H36   H     H_    0.857253 0.795931 0.433375 0.109856
H37   H     H_    0.114466 0.739904 0.383643 0.119467
C81   C     C_R   0.326304 0.258964 0.496781 0.063740
C82   C     C_R   0.261290 0.302636 0.537034 -0.127487
C83   C     C_R   0.289427 0.288755 0.592392 -0.111163
C84   C     C_R   0.366888 0.228435 0.608741 -0.032887
C85   C     C_R   0.421490 0.182463 0.569645 -0.024606
C86   C     C_R   0.408396 0.198429 0.514293 -0.121811
H38   H     H_    0.185478 0.346750 0.526527 0.138869
H39   H     H_    0.249842 0.324633 0.622717 0.115149
H40   H     H_    0.386131 0.217776 0.651706 0.142400
H41   H     H_    0.478993 0.134967 0.582113 0.167013
H42   H     H_    0.462947 0.163090 0.485231 0.115434
Cl2   Cl    Cl    0.807337 0.917217 0.645006 -0.686777

loop_
_geom_bond_atom_site_label_1
_geom_bond_atom_site_label_2
_ccdc_geom_bond_type
C13   C19   A    
C53   C57   A    
C31   C32   S    
C4    C6    S    
C49   H22   S    
C7    C11   A    
C7    C8    A    
C1    O6    A    
O18   C67   A    
C55   C61   A    
C25   C33   T    
C78   C79   A    
C55   C56   A    
C69   C70   A    
O12   C65   A    
C5    C67   S    
C14   C15   A    
C17   C18   A    
O16   V4    S    
O12   V3    S    
C16   C17   A    
O5    C3    A    
C1    C37   S    
C48   C63   A    
V2    O10   S    
C38   C46   T    
C5    C8    A    
C37   C45   T    
O19   C68   A    
C71   H29   S    
C41   C43   S    
V4    O20   S    
C62   H27   S    
C43   C75   S    
V3    O20   S    
O8    V2    S    
C74   H32   S    
C25   C68   S    
C85   C86   A    
C35   C39   S    
O14   C66   A    
C75   C76   A    
C49   C53   A    
C57   H19   S    
C42   C46   S    
C29   Cl1   S    
C11   C15   A    
C84   H40   S    
O7    V1    S    
C83   H39   S    
C63   C81   S    
C28   C31   S    
O15   V3    S    
C36   H14   S    
C76   H33   S    
O9    C4    A    
C47   C65   S    
C81   C86   A    
O17   V3    S    
C51   C52   A    
O11   V4    S    
C31   C69   S    
C29   C31   S    
C78   H35   S    
C30   C32   S    
C80   H37   S    
O13   V3    S    
C39   C40   S    
C26   C34   T    
C54   C58   A    
C72   C73   A    
C12   C13   A    
C24   C32   S    
C59   C60   A    
C77   H34   S    
O4    C2    A    
C8    H5    S    
C56   C57   A    
C82   C83   A    
C58   H26   S    
C24   C28   S    
C15   H1    S    
C40   C45   S    
C24   H10   S    
C21   H3    S    
C27   C28   S    
C59   H21   S    
C35   C36   S    
C39   C41   S    
O14   V3    S    
O2    C1    A    
C79   H36   S    
C7    H4    S    
O17   V4    S    
C60   C62   A    
C35   C42   S    
C19   C22   A    
C54   C55   A    
C64   H20   S    
C6    C22   A    
C70   C71   A    
O18   V4    S    
O3    C4    A    
C2    C48   S    
O1    V2    S    
C23   C27   S    
C52   C53   A    
O6    V2    S    
C52   C54   A    
C35   H15   S    
O13   C68   A    
C76   C77   A    
C10   C12   A    
O11   C66   A    
C27   H13   S    
C86   H42   S    
O2    V1    S    
C83   C84   A    
C23   C24   S    
C36   C44   S    
C84   C85   A    
C30   C34   S    
C47   C50   A    
H12   C32   S    
C82   H38   S    
O1    C2    A    
C65   O16   A    
C12   C16   A    
C79   C80   A    
O5    V1    S    
C3    C26   S    
O8    C3    A    
C23   H11   S    
C29   C30   S    
C77   C78   A    
C51   H24   S    
C20   C21   A    
O9    V2    S    
C85   H41   S    
C13   C14   A    
C70   H28   S    
C50   H23   S    
O3    V1    S    
V1    O10   S    
C61   C64   A    
C18   C20   A    
C36   C40   S    
C60   C61   A    
C18   C19   A    
C9    H6    S    
C48   C64   A    
C40   C43   S    
C16   H8    S    
C62   C63   A    
C69   C74   A    
C20   H9    S    
O19   V4    S    
C73   H31   S    
C41   H17   S    
C22   H2    S    
H16   C44   S    
O7    V2    S    
C41   C42   S    
C6    C21   A    
C5    C9    A    
C28   C33   S    
O15   C67   A    
C49   C50   A    
C23   C30   S    
O4    V1    S    
C43   C44   S    
C58   C59   A    
C38   C66   S    
C47   C51   A    
C72   H30   S    
C10   C11   A    
C17   Cl2   S    
C42   C44   S    
C39   H18   S    
C75   C80   A    
C27   C29   S    
C71   C72   A    
C9    C10   A    
C56   H25   S    
C81   C82   A    
C14   H7    S    
C73   C74   A    
