data_mof_unit_52237.cif
_audit_creation_date              2012-12-10T18:06:37-0500
_audit_creation_method            fapswitch 2.2
_symmetry_space_group_name_H-M    P1
_symmetry_Int_Tables_number       1
_space_group_crystal_system       triclinic
_cell_length_a                    12.636918
_cell_length_b                    13.131859
_cell_length_c                    15.461413
_cell_angle_alpha                 84.087228
_cell_angle_beta                  100.3408
_cell_angle_gamma                 96.705177
_cell_volume                      2497.967629

loop_
_atom_site_label
_atom_site_type_symbol
_atom_type_description
_atom_site_fract_x
_atom_site_fract_y
_atom_site_fract_z
_atom_type_partial_charge
C1    C     C_R   0.442447 0.308813 0.507052 0.842861
C2    C     C_R   0.668697 0.462798 0.941163 0.168777
C3    C     C_R   0.581824 0.521392 0.903065 0.095569
C4    C     C_R   0.434862 0.513983 0.336086 0.850161
C5    C     C_R   0.725861 0.418325 0.887470 -0.209695
C6    C     C_R   0.693546 0.426256 0.796367 -0.114727
C7    C     C_R   0.553918 0.531505 0.811242 -0.273844
C8    C     C_R   0.636442 0.940145 0.367340 -0.202729
C9    C     C_R   0.580774 0.800451 0.468810 -0.054460
C10   C     C_R   0.335463 0.160285 0.570532 -0.188081
C11   C     C_R   0.315639 0.054908 0.589106 -0.152291
C12   C     C_R   0.461317 0.548725 0.100548 0.096397
C13   C     C_R   0.371663 0.988374 0.554313 -0.191394
C14   C     C_R   0.445173 0.026888 0.496480 0.089404
C15   C     C_R   0.451382 0.132059 0.467094 0.094636
C16   C     C_R   0.555479 0.691330 0.488898 0.840217
C17   C     C_R   0.512933 0.964717 0.466915 0.084277
C18   C     C_R   0.571708 0.003377 0.398302 0.181688
C19   C     C_R   0.563290 0.103742 0.360719 -0.261073
C20   C     C_R   0.503590 0.167490 0.394643 -0.215715
C21   C     C_R   0.525330 0.865443 0.505146 -0.255894
C22   C     C_R   0.639476 0.837930 0.401553 -0.196067
C23   C     C_R   0.380642 0.615140 0.065451 0.171495
C24   C     C_R   0.406056 0.199366 0.511838 -0.111969
C25   C     C_R   0.143025 0.687132 0.569130 -0.290696
C26   C     C_R   0.755759 0.367384 0.407041 0.024442
C27   C     C_R   0.848972 0.339990 0.383807 -0.252395
C28   C     C_R   0.565440 0.487084 0.663889 0.852826
C29   C     C_R   0.947270 0.396130 0.411313 -0.183695
C30   C     C_R   0.952022 0.480963 0.461435 0.007257
C31   C     C_R   0.854861 0.507866 0.482304 0.206042
C32   C     C_R   0.050042 0.537122 0.495805 -0.011111
C33   C     C_R   0.047828 0.632841 0.530061 0.187470
C34   C     C_R   0.536697 0.527840 0.048832 0.068100
C35   C     C_R   0.950025 0.667438 0.534816 -0.326321
C36   C     C_R   0.859059 0.596775 0.528854 -0.042433
C37   C     C_R   0.150207 0.499243 0.502948 -0.043007
C38   C     C_R   0.238954 0.643764 0.577166 0.022571
C39   C     C_R   0.400938 0.536363 0.241594 -0.058350
C40   C     C_R   0.606756 0.482255 0.758324 -0.057109
C41   C     C_R   0.310408 0.640766 0.118904 -0.202488
C42   C     C_R   0.322279 0.603397 0.207579 -0.190567
C43   C     C_R   0.463270 0.503709 0.186360 -0.254960
C44   C     C_2   0.809296 0.595018 0.607181 0.535165
C45   C     C_R   0.519709 0.560280 0.957745 0.071408
C46   C     C_R   0.439637 0.628147 0.924527 -0.224336
C47   C     C_R   0.372220 0.655877 0.978065 -0.233676
C48   C     C_R   0.629296 0.476826 0.085588 -0.231238
C49   C     C_R   0.694771 0.445870 0.032344 -0.235473
H1    H     H_    0.312222 0.708275 0.950525 0.147127
H2    H     H_    0.497550 0.244532 0.363084 0.150030
H3    H     H_    0.314147 0.685396 0.605241 0.122799
H4    H     H_    0.486611 0.572423 0.779241 0.156357
H5    H     H_    0.950263 0.737796 0.566337 0.143306
H6    H     H_    0.142791 0.760398 0.595598 0.137573
H7    H     H_    0.160030 0.428739 0.476527 0.124101
H8    H     H_    0.679182 0.324619 0.385055 0.134662
H9    H     H_    0.017774 0.373804 0.390596 0.137590
H10   H     H_    0.844956 0.275669 0.344404 0.145429
H11   H     H_    0.733923 0.385930 0.756171 0.191875
H12   H     H_    0.792119 0.373360 0.916175 0.141537
H13   H     H_    0.763249 0.404440 0.062559 0.146651
H14   H     H_    0.249375 0.692625 0.093043 0.139691
H15   H     H_    0.273285 0.629740 0.249887 0.162343
H16   H     H_    0.515571 0.444649 0.212981 0.144335
H17   H     H_    0.428949 0.663577 0.857914 0.141922
H18   H     H_    0.654163 0.461074 0.155717 0.151300
H19   H     H_    0.760466 0.655247 0.614531 0.031620
H20   H     H_    0.682465 0.787251 0.372500 0.161684
H21   H     H_    0.604421 0.133593 0.306239 0.140186
H22   H     H_    0.680852 0.968471 0.314487 0.137168
H23   H     H_    0.488724 0.834850 0.561539 0.136816
H24   H     H_    0.298108 0.211239 0.604121 0.161635
H25   H     H_    0.353884 0.907344 0.571997 0.124621
H26   H     H_    0.260180 0.024841 0.633575 0.140505
N1    N     N_R   0.239390 0.551900 0.544730 -0.105142
N2    N     N_R   0.759950 0.448600 0.455730 -0.131013
O1    O     O_R   0.374950 0.371210 0.521360 -0.615201
O2    O     O_R   0.542050 0.338030 0.492790 -0.613475
O3    O     O_R   0.368720 0.526070 0.390200 -0.609227
O4    O     O_R   0.535820 0.492890 0.361630 -0.622015
O5    O     O_R   0.457950 0.661970 0.507210 -0.613473
O6    O     O_R   0.625050 0.628790 0.478640 -0.644868
O7    O     O_R   0.464180 0.507110 0.638370 -0.615221
O8    O     O_R   0.631280 0.473930 0.609800 -0.590060
O9    O     O_2   0.834878 0.533221 0.669866 -0.596209
Zn1   Zn    Zn3+2 0.388420 0.522150 0.519080 0.934514
Zn2   Zn    Zn3+2 0.611580 0.477850 0.480920 0.943561

loop_
_geom_bond_atom_site_label_1
_geom_bond_atom_site_label_2
_ccdc_geom_bond_type
O1    Zn1   S    
C28   O7    A    
C41   C42   A    
C19   C20   A    
O7    Zn1   S    
C38   N1    A    
C45   C46   A    
C12   C23   A    
C26   C27   A    
C9    C16   S    
C4    O3    A    
O3    Zn1   S    
C3    C7    A    
C30   C31   A    
C10   H24   S    
C9    C22   A    
C27   C29   A    
C28   C40   S    
O5    Zn1   S    
C18   C19   A    
C37   H7    S    
C12   C43   A    
C4    O4    A    
C35   C36   A    
N2    Zn2   S    
C8    C22   A    
C7    C40   A    
C39   C42   A    
C22   H20   S    
O6    Zn2   S    
C13   C14   A    
C35   H5    S    
C1    O1    A    
C14   C17   A    
C44   O9    D    
O2    Zn2   S    
C31   N2    A    
C47   H1    S    
C15   C20   A    
C26   N2    A    
C23   C47   A    
C21   H23   S    
C6    H11   S    
C39   C43   A    
C10   C24   A    
C3    C45   A    
C16   O6    A    
C8    C18   A    
C29   C30   A    
C2    C49   A    
C25   C38   A    
C4    C39   S    
C43   H16   S    
C16   O5    A    
C17   C18   A    
C5    H12   S    
C34   C45   A    
C32   C37   A    
C13   H25   S    
N1    Zn1   S    
C15   C24   A    
C37   N1    A    
C1    O2    A    
C6    C40   A    
C44   H19   S    
C2    C5    A    
C34   C48   A    
C7    H4    S    
C12   C34   A    
C42   H15   S    
O8    Zn2   S    
C46   C47   A    
C48   C49   A    
C8    H22   S    
C49   H13   S    
C31   C36   A    
C25   H6    S    
C46   H17   S    
C20   H2    S    
C23   C41   A    
C32   C33   A    
C2    C3    A    
C11   H26   S    
C30   C32   A    
C11   C13   A    
C9    C21   A    
C5    C6    A    
C33   C35   A    
C48   H18   S    
C26   H8    S    
C17   C21   A    
O4    Zn2   S    
C36   C44   S    
C10   C11   A    
C38   H3    S    
C29   H9    S    
C1    C24   S    
C28   O8    A    
C41   H14   S    
C14   C15   A    
C19   H21   S    
C27   H10   S    
C25   C33   A    
