data_mof_unit_59096.cif
_audit_creation_date              2012-12-10T17:12:28-0500
_audit_creation_method            fapswitch 2.2
_symmetry_space_group_name_H-M    P1
_symmetry_Int_Tables_number       1
_space_group_crystal_system       triclinic
_cell_length_a                    11.709942
_cell_length_b                    13.022392
_cell_length_c                    11.680113
_cell_angle_alpha                 101.180038
_cell_angle_beta                  93.797678
_cell_angle_gamma                 90.764928
_cell_volume                      1742.85565084

loop_
_atom_site_label
_atom_site_type_symbol
_atom_type_description
_atom_site_fract_x
_atom_site_fract_y
_atom_site_fract_z
_atom_type_partial_charge
C1    C     C_R   0.499696 0.298542 0.477009 0.851092
C2    C     C_R   0.500565 0.701463 0.522980 0.850163
C3    C     C_R   0.387092 0.406347 0.019480 -0.443528
C4    C     C_R   0.612627 0.593858 0.980518 -0.432844
C5    C     C_R   0.396923 0.414614 0.143634 0.668568
C6    C     C_R   0.603915 0.584422 0.856383 0.719947
C7    C     C_R   0.549332 0.540198 0.157842 -0.043570
C8    C     C_R   0.450080 0.460346 0.842197 -0.053157
C9    C     C_R   0.540801 0.533996 0.034889 0.011020
C10   C     C_R   0.458697 0.466425 0.965135 0.028459
C11   C     C_R   0.283842 0.500206 0.500294 0.821176
C12   C     C_R   0.716171 0.500240 0.499808 0.817973
C13   C     C_1   0.162308 0.500845 0.500930 -0.195576
C14   C     C_1   0.837740 0.500577 0.499527 -0.194463
C15   C     C_1   0.059896 0.501034 0.500742 -0.017803
C16   C     C_1   0.940171 0.500868 0.500000 -0.013357
C17   C     C_R   0.502114 0.815942 0.538325 -0.226948
C18   C     C_R   0.498734 0.184064 0.461604 -0.231316
C19   C     C_R   0.447820 0.010498 0.348542 0.339422
C20   C     C_R   0.554243 0.989401 0.650924 0.338459
C21   C     C_R   0.467168 0.117942 0.352766 0.340136
C22   C     C_R   0.534637 0.881981 0.646977 0.340779
C23   C     C_R   0.527829 0.140462 0.559613 -0.299635
C24   C     C_R   0.473130 0.859526 0.440268 -0.301634
C25   C     C_R   0.521467 0.032658 0.552752 -0.047035
C26   C     C_R   0.479725 0.967296 0.446999 -0.048738
Cu1   Cu    Cu3+1 0.508350 0.507730 0.615930 0.985975
Cu2   Cu    Cu3+1 0.491650 0.492270 0.384070 0.989119
H1    H     H_    0.445346 0.808899 0.357813 0.223388
H2    H     H_    0.555532 0.191068 0.642114 0.224288
H3    H     H_    0.386615 0.408263 0.787895 0.148170
H4    H     H_    0.612528 0.592574 0.212165 0.146327
H5    H     H_    0.325972 0.352577 0.964275 0.129663
H6    H     H_    0.673150 0.647924 0.035802 0.145117
N1    N     N_R   0.520920 0.519350 0.790130 -0.221175
N2    N     N_R   0.479080 0.480650 0.209870 -0.214634
O1    O     O_R   0.505930 0.354460 0.582000 -0.609610
O2    O     O_R   0.494070 0.645540 0.418000 -0.610379
O3    O     O_R   0.491820 0.341410 0.386200 -0.497387
O4    O     O_R   0.508180 0.658590 0.613800 -0.501566
O5    O     O_R   0.344250 0.506540 0.597900 -0.595411
O6    O     O_R   0.655750 0.493460 0.402100 -0.594604
O7    O     O_R   0.330140 0.493480 0.402100 -0.537825
O8    O     O_R   0.669860 0.506520 0.597900 -0.541558
O9    O     O_3   0.554719 0.841067 0.747264 -0.534377
C27   C     C_3   0.467832 0.874233 0.823955 0.107673
H7    H     H_    0.381217 0.850873 0.780394 0.114011
H8    H     H_    0.471897 0.960523 0.855228 0.174287
C28   C     C_3   0.483392 0.824450 0.931160 -0.757075
H9    H     H_    0.574566 0.830463 0.965234 0.250352
H10   H     H_    0.431076 0.865290 0.000872 0.224753
H11   H     H_    0.454387 0.741192 0.908390 0.236995
O10   O     O_3   0.448970 0.158474 0.252034 -0.529361
C29   C     C_3   0.539408 0.127799 0.179076 0.110802
H12   H     H_    0.540165 0.041287 0.150038 0.169750
H13   H     H_    0.623896 0.155504 0.225157 0.113928
C30   C     C_3   0.524384 0.174717 0.069787 -0.751256
H14   H     H_    0.546951 0.259468 0.091655 0.239772
H15   H     H_    0.582123 0.136494 0.003831 0.220047
H16   H     H_    0.434816 0.162473 0.031306 0.246400
O11   O     O_3   0.400699 0.947816 0.246447 -0.596379
C31   C     C_3   0.280400 0.946898 0.250448 0.089148
H17   H     H_    0.246873 0.027612 0.261178 0.151317
H18   H     H_    0.254194 0.910362 0.323708 0.135498
C32   C     C_3   0.225872 0.883053 0.136596 -0.820692
H19   H     H_    0.260221 0.802806 0.120869 0.252020
H20   H     H_    0.131676 0.877559 0.141551 0.198245
H21   H     H_    0.244042 0.921507 0.062569 0.241625
O12   O     O_3   0.603996 0.051886 0.751881 -0.597450
C33   C     C_3   0.724073 0.049579 0.746023 0.088231
H22   H     H_    0.750374 0.082895 0.670495 0.135590
H23   H     H_    0.755304 0.968140 0.737775 0.158185
C34   C     C_3   0.781423 0.115259 0.857399 -0.825032
H24   H     H_    0.764060 0.079438 0.933562 0.240321
H25   H     H_    0.875438 0.118889 0.850349 0.197889
H26   H     H_    0.748621 0.196071 0.871231 0.253642
O13   O     O_3   0.669837 0.645304 0.798424 -0.531042
C35   C     C_3   0.782694 0.669823 0.848952 0.075537
H27   H     H_    0.784374 0.721225 0.936661 0.116656
H28   H     H_    0.824571 0.717515 0.793627 0.175170
C36   C     C_3   0.854900 0.572615 0.849288 -0.877170
H29   H     H_    0.851815 0.523336 0.760251 0.269178
H30   H     H_    0.945279 0.597150 0.877100 0.215953
H31   H     H_    0.823925 0.525406 0.911033 0.234883
O14   O     O_3   0.332509 0.352682 0.201799 -0.516495
C37   C     C_3   0.227439 0.314500 0.141160 0.068034
H32   H     H_    0.242485 0.248246 0.068470 0.140021
H33   H     H_    0.180307 0.377515 0.107404 0.122669
C38   C     C_3   0.152714 0.272922 0.224527 -0.760892
H34   H     H_    0.131214 0.337649 0.295884 0.243619
H35   H     H_    0.072099 0.237767 0.176602 0.186969
H36   H     H_    0.198563 0.212291 0.263129 0.252564

loop_
_geom_bond_atom_site_label_1
_geom_bond_atom_site_label_2
_ccdc_geom_bond_type
C18   C21   A    
C34   H24   S    
C28   H10   S    
C36   H29   S    
O13   C35   S    
C27   C28   S    
C1    C18   S    
C19   C21   A    
C24   C26   A    
O14   C37   S    
C35   H28   S    
C30   H15   S    
C20   C25   A    
C3    H5    S    
C15   C16   S    
C5    N2    A    
C6    N1    A    
C7    N2    A    
C19   C26   A    
Cu1   O5    S    
C24   H1    S    
C31   H18   S    
C29   H12   S    
Cu1   O8    S    
C32   H20   S    
C12   O6    A    
C11   O7    A    
C33   H22   S    
C38   H35   S    
C9    C10   A    
C1    O1    A    
C5    O14   S    
C32   H21   S    
C2    C17   S    
C34   H25   S    
O11   C31   S    
C36   H30   S    
C27   H8    S    
C29   H13   S    
C17   C24   A    
C18   C23   A    
C23   H2    S    
C4    C6    A    
C37   H32   S    
C6    O13   S    
C30   H16   S    
Cu2   O3    S    
Cu1   N1    S    
C25   C26   A    
O9    C27   S    
C8    N1    A    
C31   H17   S    
C2    O2    A    
Cu2   O2    S    
Cu1   O4    S    
C28   H11   S    
C33   C34   S    
C38   H36   S    
C12   C14   S    
C32   H19   S    
C13   C15   T    
C34   H26   S    
C14   C16   T    
C20   O12   S    
C36   H31   S    
C7    C9    A    
C27   H7    S    
C7    H4    S    
C31   C32   S    
C35   H27   S    
C8    H3    S    
C20   C22   A    
C3    C5    A    
C37   C38   S    
O10   C29   S    
Cu2   O7    S    
C17   C22   A    
C4    C9    A    
C12   O8    A    
C3    C10   A    
C21   O10   S    
C11   C13   S    
C35   C36   S    
C30   H14   S    
C19   O11   S    
Cu2   O6    S    
C11   O5    A    
C37   H33   S    
C23   C25   A    
C4    H6    S    
O12   C33   S    
C1    O3    A    
C2    O4    A    
C22   O9    S    
Cu2   N2    S    
C8    C10   A    
C28   H9    S    
Cu1   Cu2   S    
C33   H23   S    
C38   H34   S    
Cu1   O1    S    
C29   C30   S    
