data_mof_unit_36295.cif
_audit_creation_date              2012-12-10T17:17:26-0500
_audit_creation_method            fapswitch 2.2
_symmetry_space_group_name_H-M    P1
_symmetry_Int_Tables_number       1
_space_group_crystal_system       triclinic
_cell_length_a                    10.231491
_cell_length_b                    10.641307
_cell_length_c                    12.211512
_cell_angle_alpha                 90.631671
_cell_angle_beta                  108.888897
_cell_angle_gamma                 95.667229
_cell_volume                      1250.49298851

loop_
_atom_site_label
_atom_site_type_symbol
_atom_type_description
_atom_site_fract_x
_atom_site_fract_y
_atom_site_fract_z
_atom_type_partial_charge
C1    C     C_R   0.056036 0.733735 0.500155 0.816113
C2    C     C_R   0.431952 0.512017 0.986974 0.067504
C3    C     C_R   0.332395 0.460710 0.882921 0.025347
C4    C     C_R   0.565248 0.468636 0.021218 0.105667
C5    C     C_R   0.592081 0.366272 0.958556 0.168186
C6    C     C_R   0.488887 0.311456 0.860562 -0.275554
C7    C     C_R   0.360462 0.357289 0.823654 -0.156616
C8    C     C_R   0.671509 0.520795 0.118948 -0.279101
C9    C     C_R   0.818132 0.361592 0.102824 -0.240924
C10   C     C_R   0.205362 0.512887 0.840209 -0.272407
C11   C     C_2   0.101346 0.868362 0.522005 0.315418
C12   C     C_R   0.132551 0.506665 0.714856 0.881200
C13   C     C_2   0.032115 0.936846 0.572877 -0.222231
C14   C     C_2   0.928881 0.132061 0.528700 0.355250
C15   C     C_2   0.043515 0.072544 0.568625 -0.233722
C16   C     C_2   0.428570 0.518032 0.503160 -0.122942
C17   C     C_2   0.565577 0.491671 0.488337 -0.143589
C18   C     C_R   0.949599 0.266429 0.509539 0.780596
C19   C     C_R   0.866449 0.487015 0.285982 0.867355
C20   C     C_R   0.720113 0.316124 0.998074 -0.241315
C21   C     C_R   0.790772 0.461630 0.164343 -0.064870
C22   C     C_R   0.162122 0.588785 0.914568 0.487510
C23   C     C_R   0.258324 0.637209 0.020056 -0.050237
C24   C     C_R   0.393113 0.602276 0.053873 -0.347214
H1    H     H_    0.911177 0.314810 0.138387 0.153532
H2    H     H_    0.952861 0.892414 0.605267 0.192965
H3    H     H_    0.562652 0.417463 0.425663 0.153219
H4    H     H_    0.424436 0.598915 0.556113 0.174400
H5    H     H_    0.319353 0.369535 0.405321 0.161608
H6    H     H_    0.506674 0.231649 0.813283 0.141786
H7    H     H_    0.741033 0.237411 0.951496 0.139472
H8    H     H_    0.661686 0.602849 0.166909 0.141596
H9    H     H_    0.462021 0.642865 0.135840 0.164746
H10   H     H_    0.281432 0.308197 0.749959 0.153426
H11   H     H_    0.146651 0.121807 0.584280 0.168704
N1    N     N_2   0.313640 0.446500 0.454900 -0.192161
N2    N     N_2   0.686360 0.553430 0.545150 -0.129197
O1    O     O_R   0.936910 0.692950 0.509080 -0.635312
O2    O     O_R   0.138320 0.658600 0.480130 -0.582863
O3    O     O_R   0.002900 0.525670 0.675280 -0.563699
O4    O     O_R   0.204310 0.491320 0.646330 -0.610591
O5    O     O_R   0.861680 0.341400 0.519870 -0.597293
O6    O     O_R   0.063090 0.307050 0.490920 -0.631413
O7    O     O_R   0.795690 0.508680 0.353670 -0.605583
O8    O     O_R   0.997100 0.474330 0.324720 -0.610298
Zn1   Zn    Zn3+2 0.865520 0.522940 0.519330 0.948121
Zn2   Zn    Zn3+2 0.134480 0.477060 0.480670 0.927846
O9    O     O_3   0.798171 0.067497 0.511004 -0.630098
C25   C     C_3   0.707114 0.088607 0.399789 -0.350314
H12   H     H_    0.756321 0.079035 0.331378 0.153295
H13   H     H_    0.667628 0.182327 0.397981 0.186075
H14   H     H_    0.615928 0.016040 0.378930 0.189522
O10   O     O_3   0.202991 0.924554 0.480609 -0.614139
C26   C     C_3   0.333522 0.920530 0.566297 -0.300558
H15   H     H_    0.414874 0.966490 0.533580 0.194404
H16   H     H_    0.356847 0.821612 0.585150 0.176723
H17   H     H_    0.340291 0.973542 0.647404 0.149798
C27   C     C_R   0.689929 0.647798 0.629984 0.274316
C28   C     C_R   0.668061 0.613230 0.733968 -0.173594
C29   C     C_R   0.661838 0.705953 0.813604 -0.120210
C30   C     C_R   0.677134 0.833604 0.789959 -0.131156
C31   C     C_R   0.697056 0.868574 0.686093 -0.176272
C32   C     C_R   0.702610 0.775968 0.605880 -0.156638
H18   H     H_    0.652770 0.514387 0.751672 0.129673
H19   H     H_    0.644450 0.678899 0.893306 0.138565
H20   H     H_    0.671906 0.905374 0.851452 0.124486
H21   H     H_    0.705960 0.967461 0.667320 0.192182
H22   H     H_    0.713115 0.803603 0.523856 0.170159
O11   O     O_3   0.026743 0.617742 0.884503 -0.586686
C33   C     C_3   0.944970 0.513221 0.908373 -0.281287
H23   H     H_    0.003197 0.453859 0.978741 0.126398
H24   H     H_    0.894283 0.451890 0.828892 0.185616
H25   H     H_    0.863226 0.549228 0.937471 0.199117
C34   C     C_R   0.221473 0.732135 0.091369 0.168533
C35   C     C_R   0.120768 0.700120 0.144803 -0.100092
C36   C     C_R   0.079764 0.793011 0.204769 -0.093045
C37   C     C_R   0.140221 0.917918 0.213087 -0.052399
C38   C     C_R   0.243419 0.949726 0.163141 -0.163810
C39   C     C_R   0.284054 0.857254 0.102440 -0.170734
H26   H     H_    0.073761 0.603782 0.139941 0.130067
H27   H     H_    0.000631 0.768257 0.244282 0.115127
H28   H     H_    0.107354 0.990063 0.258429 0.156473
H29   H     H_    0.290832 0.046322 0.170350 0.129914
H30   H     H_    0.362192 0.883571 0.062130 0.128156

loop_
_geom_bond_atom_site_label_1
_geom_bond_atom_site_label_2
_ccdc_geom_bond_type
C16   H4    S    
C14   C18   S    
C1    C11   S    
C4    C8    A    
C9    H1    S    
C5    C20   A    
O10   C26   S    
C10   C22   A    
O3    Zn1   S    
H5    N1    S    
C28   H18   S    
C12   O4    A    
C31   H21   S    
C19   C21   S    
C3    C7    A    
C18   O5    A    
C5    C6    A    
N1    Zn2   S    
O5    Zn1   S    
C26   H15   S    
C38   H29   S    
C16   C17   S    
C25   H13   S    
C23   C24   A    
C33   H23   S    
C35   H26   S    
C22   O11   S    
N2    C27   S    
C11   O10   S    
C28   C29   A    
O11   C33   S    
C30   H20   S    
C15   H11   S    
O7    Zn1   S    
O8    Zn2   S    
C26   H16   S    
C34   C35   A    
C17   H3    S    
C36   C37   A    
C38   C39   A    
C14   O9    S    
C27   C28   A    
C37   C38   A    
C29   C30   A    
C8    H8    S    
C12   O3    A    
C2    C4    A    
C35   C36   A    
C31   C32   A    
C9    C20   A    
C25   H14   S    
C33   H25   S    
C8    C21   A    
O4    Zn2   S    
C17   N2    D    
C10   C12   S    
C1    O1    A    
O9    C25   S    
C6    H6    S    
C29   H19   S    
C34   C39   A    
C13   C15   S    
C2    C24   A    
C7    H10   S    
C13   H2    S    
C23   C34   S    
C19   O7    A    
O2    Zn2   S    
C27   C32   A    
C32   H22   S    
C14   C15   D    
C4    C5    A    
C36   H27   S    
C19   O8    A    
C6    C7    A    
C24   H9    S    
C2    C3    A    
C3    C10   A    
C18   O6    A    
C16   N1    D    
C11   C13   D    
C9    C21   A    
C39   H30   S    
C37   H28   S    
C30   C31   A    
O1    Zn1   S    
C1    O2    A    
C25   H12   S    
C22   C23   A    
C33   H24   S    
N2    Zn1   S    
O6    Zn2   S    
C20   H7    S    
C26   H17   S    
