data_mof_unit_44022.cif
_audit_creation_date              2012-12-11T14:15:32-0500
_audit_creation_method            fapswitch 2.2
_symmetry_space_group_name_H-M    P1
_symmetry_Int_Tables_number       1
_space_group_crystal_system       triclinic
_cell_length_a                    11.16794
_cell_length_b                    12.717247
_cell_length_c                    23.476685
_cell_angle_alpha                 90.547178
_cell_angle_beta                  97.107371
_cell_angle_gamma                 68.487149
_cell_volume                      3075.85083879

loop_
_atom_site_label
_atom_site_type_symbol
_atom_type_description
_atom_site_fract_x
_atom_site_fract_y
_atom_site_fract_z
_atom_type_partial_charge
C1    C     C_R   0.149392 0.616862 0.428917 0.544816
C2    C     C_R   0.668454 0.554402 0.308637 -0.136604
C3    C     C_R   0.716688 0.725476 0.316012 -0.126786
C4    C     C_R   0.712732 0.731072 0.256311 0.028174
C5    C     C_R   0.700384 0.640771 0.223508 0.060128
C6    C     C_R   0.711646 0.640401 0.164535 0.005047
C7    C     C_R   0.700954 0.835036 0.168949 -0.142877
C8    C     C_R   0.721441 0.824750 0.228777 -0.145435
C9    C     C_1   0.238759 0.161374 0.123456 -0.009762
C10   C     C_2   0.190054 0.230000 0.227955 -0.131088
C11   C     C_2   0.153805 0.166731 0.262458 -0.126821
C12   C     C_R   0.750485 0.603588 0.403347 0.543082
C13   C     C_1   0.131282 0.199735 0.320349 -0.047585
C14   C     C_1   0.216815 0.195380 0.170676 -0.060015
C15   C     C_1   0.115284 0.232462 0.368258 -0.002503
C16   C     C_1   0.167633 0.748824 0.123419 -0.008143
C17   C     C_2   0.142983 0.686890 0.227576 -0.127187
C18   C     C_2   0.236056 0.676479 0.271595 -0.125820
C19   C     C_1   0.217453 0.652935 0.329271 -0.048400
C20   C     C_1   0.155365 0.719210 0.170392 -0.051005
C21   C     C_1   0.193517 0.635338 0.376250 -0.002389
C22   C     C_1   0.629570 0.754830 0.865446 -0.013822
C23   C     C_R   0.100963 0.282284 0.423360 0.544048
C24   C     C_2   0.702820 0.703787 0.762440 -0.133471
C25   C     C_2   0.614460 0.701011 0.718835 -0.121952
C26   C     C_1   0.652453 0.668442 0.662805 -0.047173
C27   C     C_1   0.666062 0.732772 0.818982 -0.051833
C28   C     C_1   0.690966 0.639422 0.617235 -0.002986
C29   C     C_R   0.193727 0.180445 0.854863 0.015208
C30   C     C_R   0.106714 0.237910 0.642541 0.023176
C31   C     C_R   0.043200 0.137294 0.712137 -0.132794
C32   C     C_R   0.042763 0.166411 0.655080 -0.134341
C33   C     C_R   0.164871 0.285095 0.686309 -0.116540
C34   C     C_R   0.151630 0.617031 0.590404 0.542660
C35   C     C_R   0.165056 0.257615 0.742847 0.041860
C36   C     C_R   0.105849 0.181474 0.756070 0.044666
C37   C     C_R   0.117774 0.145573 0.812670 -0.125890
C38   C     C_R   0.244583 0.261667 0.842235 -0.134248
C39   C     C_R   0.228692 0.301505 0.786159 -0.138470
C40   C     C_R   0.125150 0.755354 0.849051 0.005316
C41   C     C_R   0.198197 0.639615 0.648168 0.009359
C42   C     C_R   0.309204 0.565997 0.742754 -0.145546
C43   C     C_R   0.297696 0.555794 0.683254 -0.142938
C44   C     C_R   0.118943 0.737089 0.672381 -0.121418
C45   C     C_R   0.749945 0.602266 0.566000 0.546266
C46   C     C_R   0.119806 0.740933 0.731029 0.027366
C47   C     C_R   0.216119 0.655886 0.766879 0.038906
C48   C     C_R   0.218410 0.663735 0.825904 -0.137909
C49   C     C_R   0.015321 0.830563 0.812454 -0.006378
C50   C     C_R   0.019246 0.825045 0.753365 -0.126635
C51   C     C_R   0.266281 0.109892 0.069482 0.543558
C52   C     C_R   0.604246 0.772860 0.080272 0.535694
C53   C     C_R   0.189643 0.787475 0.069695 0.546052
C54   C     C_R   0.240278 0.115414 0.908146 0.544102
C55   C     C_R   0.573919 0.776239 0.918278 0.540940
C56   C     C_R   0.100195 0.279225 0.585084 0.539340
C57   C     C_R   0.162931 0.787639 0.906582 0.536616
C58   C     C_R   0.685811 0.746247 0.136576 0.003796
C59   C     C_R   0.701524 0.633515 0.342580 0.006712
C60   C     C_R   0.670327 0.556644 0.249882 -0.147919
Cr1   Cr    Cr6+3 0.189770 0.415650 0.511620 1.025835
Cr2   Cr    Cr6+3 0.930400 0.667320 0.496770 1.019865
Cr3   Cr    Cr6+3 0.879870 0.417010 0.491650 1.026579
Cr4   Cr    Cr6+3 0.149500 0.973980 0.985330 1.007251
Cr5   Cr    Cr6+3 0.457000 0.976510 0.994660 1.014175
Cr6   Cr    Cr6+3 0.411170 0.724270 0.995270 1.011387
H1    H     H_    0.054282 0.675111 0.234658 0.140492
H2    H     H_    0.513797 0.721388 0.725246 0.145440
H3    H     H_    0.803625 0.682753 0.756071 0.140032
H4    H     H_    0.079574 0.081895 0.822796 0.118582
H5    H     H_    0.302746 0.288989 0.875102 0.120331
H6    H     H_    0.996817 0.079403 0.721877 0.102023
H7    H     H_    0.272900 0.360812 0.776219 0.106342
H8    H     H_    0.993843 0.133126 0.620983 0.113218
H9    H     H_    0.298358 0.603096 0.853634 0.124014
H10   H     H_    0.687202 0.915198 0.148346 0.137070
H11   H     H_    0.385158 0.500595 0.769804 0.103403
H12   H     H_    0.943975 0.885778 0.723989 0.097516
H13   H     H_    0.360932 0.480144 0.665165 0.127288
H14   H     H_    0.044222 0.804258 0.645649 0.128710
H15   H     H_    0.731275 0.894449 0.253259 0.115467
H16   H     H_    0.651972 0.484579 0.327834 0.142664
H17   H     H_    0.737778 0.789320 0.341757 0.125007
H18   H     H_    0.201194 0.307488 0.242794 0.137883
H19   H     H_    0.324299 0.689336 0.264816 0.141972
O1    O     O_R   0.196340 0.303200 0.448500 -0.505133
O2    O     O_R   0.811960 0.658090 0.547150 -0.495278
O3    O     O_R   0.757930 0.506140 0.547110 -0.505043
O4    O     O_R   0.988670 0.321620 0.556040 -0.496758
O5    O     O_3   0.000020 0.499990 0.500010 -0.247036
O6    O     O_R   0.113660 0.883270 0.047820 -0.509495
O7    O     O_R   0.186930 0.068530 0.043990 -0.497634
O8    O     O_R   0.377770 0.089040 0.054220 -0.510543
O9    O     O_R   0.562800 0.872960 0.056970 -0.497784
O10   O     O_R   0.555390 0.700940 0.062700 -0.526771
O11   O     O_R   0.295020 0.731920 0.049950 -0.493533
O12   O     O_R   0.199310 0.519670 0.454880 -0.492833
O13   O     O_R   0.094290 0.884230 0.921550 -0.535252
O14   O     O_R   0.168980 0.069410 0.926940 -0.508811
O15   O     O_R   0.358400 0.089990 0.927950 -0.517026
O16   O     O_R   0.544850 0.873850 0.939920 -0.502062
O17   O     O_R   0.536020 0.701900 0.936430 -0.511520
O18   O     O_R   0.277070 0.732810 0.932890 -0.500484
O19   O     O_3   0.339220 0.891590 0.991750 -0.236808
O20   O     O_R   0.045660 0.691380 0.441680 -0.510757
O21   O     O_R   0.811930 0.659460 0.430950 -0.502672
O22   O     O_R   0.757900 0.507620 0.421760 -0.517412
O23   O     O_R   0.988630 0.322990 0.439840 -0.497099
O24   O     O_R   0.196380 0.301720 0.573850 -0.521053
O25   O     O_R   0.199350 0.518300 0.571080 -0.503662
O26   O     O_R   0.045700 0.689900 0.567030 -0.522189
C61   C     C_3   0.738596 0.532224 0.130898 -0.243546
C62   C     C_3   0.863316 0.434576 0.155659 -0.316245
C63   C     C_3   0.874817 0.326447 0.123948 -0.445711
H20   H     H_    0.785862 0.306896 0.124786 0.149842
H21   H     H_    0.889644 0.335878 0.078618 0.154695
H22   H     H_    0.957921 0.254073 0.145161 0.165639
H23   H     H_    0.949152 0.456803 0.150966 0.166167
H24   H     H_    0.864704 0.417343 0.201964 0.175294
H25   H     H_    0.653500 0.506124 0.128863 0.154419
H26   H     H_    0.752629 0.547405 0.086112 0.166351
H27   H     H_    0.209303 0.344515 0.676312 0.126683
C64   C     C_3   0.899988 0.920272 0.835885 -0.238698
C65   C     C_3   0.773845 0.968481 0.793728 -0.327458
C66   C     C_3   0.659206 0.038188 0.824565 -0.435478
H28   H     H_    0.642293 0.984872 0.857472 0.176712
H29   H     H_    0.678073 0.110133 0.845672 0.148220
H30   H     H_    0.570120 0.072308 0.793027 0.156680
H31   H     H_    0.785251 0.024819 0.760627 0.150980
H32   H     H_    0.751433 0.898962 0.771986 0.179975
H33   H     H_    0.878275 0.881565 0.873687 0.164448
H34   H     H_    0.927023 0.993146 0.849885 0.169950
H35   H     H_    0.649284 0.491360 0.225630 0.113145
H36   H     H_    0.142832 0.089152 0.247674 0.137832

loop_
_geom_bond_atom_site_label_1
_geom_bond_atom_site_label_2
_ccdc_geom_bond_type
C12   O21   A    
C1    C21   S    
C64   H34   S    
C6    C58   A    
C35   C36   A    
C9    C51   S    
C24   C27   S    
Cr5   O16   S    
C4    C8    A    
Cr1   O24   S    
C63   H20   S    
C64   C65   S    
Cr2   O20   S    
C34   C41   S    
C55   O17   A    
C36   C37   A    
C45   O2    A    
C32   H8    S    
C38   C39   A    
Cr3   O3    S    
C2    C60   A    
C29   C54   S    
C23   O23   A    
C43   H13   S    
C40   C49   A    
C49   C64   S    
C17   C20   S    
C52   O10   A    
C40   C48   A    
C18   C19   S    
C46   C47   A    
Cr6   O17   S    
C16   C53   S    
C33   C35   A    
C62   H24   S    
C12   C59   S    
Cr4   O14   S    
Cr2   O26   S    
C31   C32   A    
C23   O1    A    
C29   C38   A    
C53   O6    A    
C66   H30   S    
C52   O9    A    
C7    C58   A    
C5    C60   A    
C15   C23   S    
Cr4   O13   S    
C66   H28   S    
C37   H4    S    
C53   O11   A    
C34   O26   A    
C41   C43   A    
C48   H9    S    
C54   O15   A    
C25   H2    S    
Cr1   O25   S    
C50   H12   S    
C61   C62   S    
C44   C46   A    
C24   H3    S    
C57   O18   A    
C28   C45   S    
C17   H1    S    
C18   H19   S    
C8    H15   S    
Cr6   O19   S    
C44   H14   S    
C45   O3    A    
C24   C25   D    
C10   C14   S    
C11   H36   S    
C1    O12   A    
C61   H25   S    
C2    C59   A    
C25   C26   S    
C30   C56   S    
C35   C39   A    
C9    C14   T    
C51   O7    A    
C47   C48   A    
C16   C20   T    
Cr3   O4    S    
C17   C18   D    
C65   H32   S    
C22   C55   S    
C52   C58   S    
C51   O8    A    
C56   O4    A    
C22   C27   T    
C13   C15   T    
C3    H17   S    
C33   H27   S    
C34   O25   A    
C41   C44   A    
C54   O14   A    
C2    H16   S    
C42   C43   A    
Cr4   O7    S    
Cr3   O22   S    
C3    C4    A    
C56   O24   A    
Cr1   O5    S    
Cr6   O11   S    
C62   C63   S    
Cr4   O19   S    
C46   C50   A    
C38   H5    S    
C31   H6    S    
C40   C57   S    
C30   C33   A    
C64   H33   S    
C6    C61   S    
Cr6   O18   S    
Cr1   O12   S    
Cr5   O15   S    
C4    C5    A    
C12   O22   A    
C63   H21   S    
C7    H10   S    
Cr2   O21   S    
Cr1   O1    S    
Cr2   O2    S    
C55   O16   A    
C26   C28   T    
Cr5   O19   S    
C61   H26   S    
C30   C32   A    
C11   C13   S    
C5    C6    A    
C57   O13   A    
Cr2   O5    S    
Cr3   O5    S    
C10   H18   S    
Cr5   O8    S    
Cr5   O9    S    
C65   H31   S    
C42   C47   A    
C39   H7    S    
C63   H22   S    
C7    C8    A    
C10   C11   D    
C62   H23   S    
C42   H11   S    
C49   C50   A    
C29   C37   A    
C66   H29   S    
C31   C36   A    
Cr6   O10   S    
Cr4   O6    S    
Cr3   O23   S    
C60   H35   S    
C1    O20   A    
C65   C66   S    
C19   C21   T    
C3    C59   A    
