data_mof_unit_37299.cif
_audit_creation_date              2012-12-10T19:47:25-0500
_audit_creation_method            fapswitch 2.2
_symmetry_space_group_name_H-M    P1
_symmetry_Int_Tables_number       1
_space_group_crystal_system       triclinic
_cell_length_a                    10.817542
_cell_length_b                    10.868559
_cell_length_c                    12.693161
_cell_angle_alpha                 93.455778
_cell_angle_beta                  93.15651
_cell_angle_gamma                 89.540326
_cell_volume                      1487.35859311

loop_
_atom_site_label
_atom_site_type_symbol
_atom_type_description
_atom_site_fract_x
_atom_site_fract_y
_atom_site_fract_z
_atom_type_partial_charge
C1    C     C_R   0.261860 0.497653 0.500456 0.805986
C2    C     C_R   0.738068 0.505211 0.499470 0.783000
C3    C     C_R   0.501379 0.871158 0.498158 -0.253374
C4    C     C_R   0.508607 0.127631 0.498464 -0.260849
C5    C     C_R   0.439324 0.931463 0.415058 -0.171790
C6    C     C_R   0.568598 0.067183 0.582743 -0.172409
C7    C     C_R   0.240951 0.199821 0.720434 -0.122763
C8    C     C_R   0.760119 0.785484 0.251360 -0.138420
C9    C     C_R   0.182788 0.269535 0.643327 -0.216121
C10   C     C_R   0.817288 0.728000 0.336660 -0.233265
C11   C     C_R   0.131659 0.385542 0.670746 0.040288
C12   C     C_R   0.867740 0.609166 0.322575 0.053293
C13   C     C_R   0.140976 0.433499 0.776797 0.491283
C14   C     C_R   0.862269 0.548203 0.221199 0.495156
C15   C     C_R   0.198670 0.360279 0.854219 -0.263022
C16   C     C_R   0.802268 0.606337 0.136058 -0.236249
C17   C     C_R   0.248643 0.244957 0.825725 -0.178989
C18   C     C_R   0.752904 0.724911 0.151185 -0.194505
C19   C     C_R   0.939269 0.464553 0.585939 -0.206607
C20   C     C_R   0.061238 0.545904 0.415447 -0.213482
C21   C     C_R   0.871748 0.509612 0.499181 -0.101353
C22   C     C_R   0.128267 0.497844 0.501115 -0.097126
C23   C     C_R   0.503723 0.261676 0.499948 0.863614
C24   C     C_R   0.497476 0.738009 0.499620 0.839623
C25   C     C_R   0.933042 0.552208 0.413217 0.054246
C26   C     C_R   0.067011 0.454628 0.586642 0.055476
C27   C     C_2   0.478684 0.455968 0.030602 -0.290344
C28   C     C_2   0.518299 0.543641 0.969172 -0.291902
C29   C     C_1   0.519238 0.528177 0.852969 0.209974
C30   C     C_1   0.479534 0.471524 0.146952 0.201281
C31   C     C_R   0.823494 0.227179 0.754371 -0.142886
C32   C     C_R   0.134225 0.827529 0.280465 -0.159819
C33   C     C_R   0.756450 0.175956 0.665153 -0.169132
C34   C     C_R   0.221745 0.878247 0.355442 -0.118424
C35   C     C_R   0.635185 0.134191 0.673826 0.219477
C36   C     C_R   0.348607 0.867545 0.338498 0.198307
C37   C     C_R   0.581669 0.145662 0.772294 -0.052199
C38   C     C_R   0.386477 0.805338 0.245226 -0.084655
C39   C     C_R   0.647793 0.200116 0.860501 -0.157354
C40   C     C_R   0.298530 0.753427 0.170998 -0.156854
C41   C     C_R   0.768777 0.240654 0.851603 -0.099988
C42   C     C_R   0.172447 0.764680 0.188564 -0.145806
C43   C     C_R   0.569016 0.938765 0.580119 0.387110
C44   C     C_R   0.450461 0.058921 0.411697 0.380422
Cu1   Cu    Cu3+1 0.492140 0.492110 0.395880 0.991183
Cu2   Cu    Cu3+1 0.507860 0.507890 0.604120 0.996602
H1    H     H_    0.820678 0.280973 0.920306 0.133379
H2    H     H_    0.104268 0.725515 0.130775 0.126612
H3    H     H_    0.204566 0.391042 0.936812 0.118757
H4    H     H_    0.792514 0.559487 0.058416 0.143523
H5    H     H_    0.891795 0.431532 0.651391 0.169680
H6    H     H_    0.109053 0.580469 0.350538 0.162154
H7    H     H_    0.549755 0.631083 0.006271 0.159853
H8    H     H_    0.445781 0.368914 0.993471 0.159428
H9    H     H_    0.918431 0.255151 0.748597 0.137473
H10   H     H_    0.036750 0.837853 0.293336 0.148540
H11   H     H_    0.800085 0.165372 0.590337 0.107265
H12   H     H_    0.190734 0.927729 0.425893 0.118716
H13   H     H_    0.489789 0.110606 0.781027 0.110953
H14   H     H_    0.483759 0.797377 0.229981 0.121157
H15   H     H_    0.606148 0.208733 0.936175 0.122824
H16   H     H_    0.328012 0.705557 0.099384 0.126833
H17   H     H_    0.292786 0.190144 0.885674 0.137677
H18   H     H_    0.708532 0.769881 0.085266 0.139264
H19   H     H_    0.279019 0.110107 0.698475 0.134386
H20   H     H_    0.722025 0.877421 0.262863 0.123834
H21   H     H_    0.176396 0.232599 0.562000 0.140633
H22   H     H_    0.825453 0.777583 0.412997 0.108099
N1    N     N_1   0.480320 0.480250 0.239400 -0.154696
N2    N     N_1   0.519680 0.519750 0.760600 -0.152418
O1    O     O_R   0.313000 0.493330 0.412070 -0.576340
O2    O     O_R   0.687000 0.506670 0.587930 -0.584919
O3    O     O_R   0.326280 0.506660 0.587930 -0.576089
O4    O     O_R   0.673720 0.493340 0.412070 -0.566142
O5    O     O_R   0.493370 0.312980 0.412070 -0.552912
O6    O     O_R   0.506630 0.687020 0.587930 -0.535927
O7    O     O_R   0.506650 0.326310 0.587930 -0.575385
O8    O     O_R   0.493350 0.673690 0.412070 -0.588170
O9    O     O_3   0.086628 0.547614 0.801432 -0.598876
C45   C     C_3   0.157152 0.617533 0.880576 0.063076
H23   H     H_    0.258166 0.611564 0.867647 0.157156
H24   H     H_    0.138848 0.586284 0.960014 0.126908
C46   C     C_3   0.118839 0.752275 0.878343 -0.806677
H25   H     H_    0.020201 0.762929 0.897284 0.246661
H26   H     H_    0.176533 0.808419 0.937988 0.204071
H27   H     H_    0.131711 0.786295 0.798916 0.251781
O10   O     O_3   0.905270 0.427985 0.209468 -0.581418
C47   C     C_3   0.999881 0.420017 0.136935 0.023128
H28   H     H_    0.070491 0.493601 0.154872 0.130656
H29   H     H_    0.960496 0.426099 0.054625 0.143240
C48   C     C_3   0.064689 0.295912 0.144366 -0.746858
H30   H     H_    0.996789 0.220136 0.127837 0.246997
H31   H     H_    0.136840 0.286300 0.085632 0.187196
H32   H     H_    0.109038 0.288472 0.224803 0.265793
O11   O     O_3   0.627664 0.880570 0.663579 -0.557568
C49   C     C_3   0.746545 0.841412 0.634722 0.085510
H33   H     H_    0.801602 0.919162 0.608726 0.120310
H34   H     H_    0.739335 0.767544 0.570564 0.125290
C50   C     C_3   0.815582 0.788370 0.729274 -0.735781
H35   H     H_    0.762803 0.710410 0.757056 0.260144
H36   H     H_    0.907776 0.753993 0.706191 0.220049
H37   H     H_    0.828153 0.860713 0.794534 0.234932
O12   O     O_3   0.389911 0.117477 0.329348 -0.559853
C51   C     C_3   0.465206 0.111762 0.241286 0.132553
H38   H     H_    0.506265 0.018884 0.225117 0.102757
H39   H     H_    0.542545 0.178626 0.254112 0.162414
C52   C     C_3   0.387185 0.144273 0.143498 -0.813539
H40   H     H_    0.348093 0.238415 0.155567 0.248313
H41   H     H_    0.445254 0.141261 0.073921 0.181218
H42   H     H_    0.310241 0.077408 0.127974 0.255740

loop_
_geom_bond_atom_site_label_1
_geom_bond_atom_site_label_2
_ccdc_geom_bond_type
O10   C47   S    
C13   O9    S    
C8    H20   S    
Cu1   O1    S    
C47   H29   S    
O11   C49   S    
C5    C36   S    
Cu2   O6    S    
C27   H8    S    
C39   C41   A    
Cu1   Cu2   S    
C3    C43   A    
C1    O1    A    
C28   C29   S    
C35   C37   A    
C16   H4    S    
C14   O10   S    
C48   H31   S    
C20   C25   A    
C49   C50   S    
C40   H16   S    
C6    C35   S    
C15   C17   A    
C19   C26   A    
C46   H25   S    
C7    C17   A    
C49   H34   S    
C43   O11   S    
C52   H40   S    
C31   C33   A    
Cu1   O8    S    
Cu2   O2    S    
C2    O4    A    
C40   C42   A    
C1    C22   S    
C27   C30   S    
C52   H41   S    
C3    C24   S    
C45   C46   S    
C2    O2    A    
C51   H39   S    
C51   H38   S    
C44   O12   S    
C39   H15   S    
Cu1   N1    S    
C4    C6    A    
C23   O5    A    
C48   H30   S    
C4    C23   S    
C24   O6    A    
C4    C44   A    
C11   C26   S    
C8    C18   A    
Cu1   O4    S    
C32   C34   A    
C9    H21   S    
C7    H19   S    
C50   H35   S    
C47   C48   S    
C49   H33   S    
C50   H37   S    
C2    C21   S    
C41   H1    S    
C16   C18   A    
C42   H2    S    
C23   O7    A    
C9    C11   A    
C51   C52   S    
C37   H13   S    
C10   C12   A    
C38   H14   S    
C45   H24   S    
C46   H26   S    
C5    C44   A    
C12   C14   A    
C6    C43   A    
C13   C15   A    
C52   H42   S    
C14   C16   A    
O12   C51   S    
C30   N1    T    
C29   N2    T    
C24   O8    A    
C7    C9    A    
C21   C25   A    
C33   H11   S    
C31   C41   A    
C50   H36   S    
C20   C22   A    
C45   H23   S    
C3    C5    A    
Cu2   O7    S    
C28   H7    S    
C10   H22   S    
C12   C25   S    
Cu1   O5    S    
C1    O3    A    
C36   C38   A    
C20   H6    S    
C17   H17   S    
C48   H32   S    
C38   C40   A    
C11   C13   A    
C18   H18   S    
C33   C35   A    
C34   C36   A    
C15   H3    S    
Cu2   N2    S    
O9    C45   S    
C19   H5    S    
C37   C39   A    
C46   H27   S    
C47   H28   S    
C8    C10   A    
C22   C26   A    
C27   C28   D    
C34   H12   S    
C32   C42   A    
C31   H9    S    
C32   H10   S    
Cu2   O3    S    
C19   C21   A    
