data_mof_unit_17066.cif
_audit_creation_date              2012-12-10T17:19:02-0500
_audit_creation_method            fapswitch 2.2
_symmetry_space_group_name_H-M    P1
_symmetry_Int_Tables_number       1
_space_group_crystal_system       triclinic
_cell_length_a                    10.200514
_cell_length_b                    10.849593
_cell_length_c                    13.658825
_cell_angle_alpha                 93.340306
_cell_angle_beta                  100.2888
_cell_angle_gamma                 96.431293
_cell_volume                      1473.23071075

loop_
_atom_site_label
_atom_site_type_symbol
_atom_type_description
_atom_site_fract_x
_atom_site_fract_y
_atom_site_fract_z
_atom_type_partial_charge
C1    C     C_R   0.056290 0.732327 0.499435 0.944784
C2    C     C_2   0.993105 0.057024 0.483058 0.157406
C3    C     C_2   0.430983 0.516567 0.503512 -0.152076
C4    C     C_2   0.568659 0.488752 0.490474 -0.126419
C5    C     C_R   0.095788 0.519067 0.686337 0.908424
C6    C     C_R   0.906510 0.485771 0.314077 0.892894
C7    C     C_R   0.149861 0.538751 0.795049 -0.177773
C8    C     C_R   0.853824 0.464018 0.206716 -0.169014
C9    C     C_R   0.136697 0.613458 0.965707 0.108640
C10   C     C_R   0.815868 0.324129 0.055404 0.083255
C11   C     C_R   0.075849 0.587999 0.863734 0.145135
C12   C     C_R   0.945215 0.267370 0.503925 0.959884
C13   C     C_R   0.894810 0.368329 0.148600 0.143674
C14   C     C_R   0.281395 0.512974 0.831171 0.094730
C15   C     C_R   0.743888 0.523878 0.166882 0.122009
C16   C     C_R   0.324720 0.508034 0.933318 0.023424
C17   C     C_R   0.648970 0.460873 0.086955 0.010019
C18   C     C_R   0.262201 0.572838 0.000683 0.039451
C19   C     C_R   0.689250 0.365079 0.027216 0.020863
C20   C     C_R   0.440981 0.453124 0.968034 0.107155
C21   C     C_R   0.516475 0.492394 0.062918 0.099846
C22   C     C_3   0.715836 0.741956 0.133829 -0.670437
C23   C     C_R   0.454810 0.557741 0.130884 -0.207296
C24   C     C_3   0.439084 0.645622 0.757278 -0.723191
C25   C     C_3   0.135361 0.373751 0.169605 -0.639106
C26   C     C_3   0.836246 0.529736 0.838397 -0.664001
C27   C     C_R   0.480668 0.357236 0.910466 -0.194265
C28   C     C_R   0.329222 0.596593 0.100354 -0.212714
C29   C     C_R   0.601653 0.312344 0.940527 -0.173782
C30   C     C_2   0.088879 0.863612 0.494958 -0.383180
C31   C     C_2   0.918566 0.137060 0.518193 -0.378313
C32   C     C_2   0.013919 0.941951 0.531534 0.162777
H1    H     H_    0.287535 0.646921 0.155522 0.190776
H2    H     H_    0.334586 0.369087 0.417254 0.186246
H3    H     H_    0.794997 0.682354 0.271150 0.248676
H4    H     H_    0.623821 0.785131 0.140162 0.243271
H5    H     H_    0.707677 0.703022 0.055561 0.252415
H6    H     H_    0.802592 0.816391 0.150855 0.264433
H7    H     H_    0.378512 0.452906 0.714321 0.254717
H8    H     H_    0.529214 0.641629 0.722878 0.212269
H9    H     H_    0.470562 0.700935 0.830491 0.252707
H10   H     H_    0.364164 0.692324 0.708205 0.241301
H11   H     H_    0.000122 0.216787 0.167917 0.278815
H12   H     H_    0.625475 0.237437 0.893868 0.191393
H13   H     H_    0.137626 0.368385 0.088523 0.246980
H14   H     H_    0.220069 0.328537 0.208657 0.231664
H15   H     H_    0.148546 0.472512 0.199275 0.252100
H16   H     H_    0.932654 0.710761 0.852694 0.273955
H17   H     H_    0.832173 0.521445 0.918312 0.249201
H18   H     H_    0.848332 0.437803 0.803131 0.256662
H19   H     H_    0.740012 0.558220 0.800640 0.229319
H20   H     H_    0.500655 0.576126 0.208817 0.186027
H21   H     H_    0.416121 0.313885 0.842778 0.158033
H22   H     H_    0.856862 0.113507 0.572824 0.174379
H23   H     H_    0.156178 0.890546 0.444887 0.177314
H24   H     H_    0.577119 0.411865 0.438429 0.168559
H25   H     H_    0.422056 0.598287 0.550026 0.173920
H26   H     H_    0.665792 0.626599 0.587354 0.181344
I1    I     I_    0.038085 0.712618 0.064948 -0.436819
I2    I     I_    0.889307 0.193600 0.960296 -0.396759
I3    I     I_    0.070096 0.088919 0.348177 -0.392136
I4    I     I_    0.933409 0.902306 0.663972 -0.361828
N1    N     N_2   0.322180 0.446120 0.460900 -0.185869
N2    N     N_2   0.677820 0.553880 0.539100 -0.182130
N3    N     N_2   0.732859 0.647904 0.205008 -0.312544
N4    N     N_2   0.382664 0.520906 0.771026 -0.301147
N5    N     N_2   0.010023 0.311015 0.186788 -0.270721
N6    N     N_2   0.945918 0.622023 0.828589 -0.271701
O1    O     O_R   0.935190 0.693030 0.507870 -0.574651
O2    O     O_R   0.064810 0.306970 0.492130 -0.567696
O3    O     O_R   0.142080 0.658430 0.482770 -0.616254
O4    O     O_R   0.857920 0.341570 0.517230 -0.612821
O5    O     O_R   0.969700 0.527180 0.651960 -0.571394
O6    O     O_R   0.030300 0.472820 0.348040 -0.572009
O7    O     O_R   0.176600 0.492580 0.626860 -0.619227
O8    O     O_R   0.823400 0.507420 0.373140 -0.622666
Zn1   Zn    Zn3+2 0.861850 0.523100 0.516760 0.972894
Zn2   Zn    Zn3+2 0.138150 0.476900 0.483240 0.966196

loop_
_geom_bond_atom_site_label_1
_geom_bond_atom_site_label_2
_ccdc_geom_bond_type
C8    C13   A    
C27   C29   A    
C24   H10   S    
N2    Zn1   S    
O1    Zn1   S    
C25   N5    S    
C7    C11   A    
C1    O3    A    
C26   H18   S    
O2    Zn2   S    
H3    N3    S    
C22   H6    S    
C2    C32   S    
H2    N1    S    
C17   C19   A    
C7    C14   A    
C25   H15   S    
C2    I3    S    
C24   N4    S    
C12   O4    A    
C4    H24   S    
C24   H9    S    
C6    O6    A    
H26   N2    S    
C18   C28   A    
O8    Zn1   S    
C26   H17   S    
C5    C7    S    
C6    C8    S    
C22   H5    S    
C1    O1    A    
C2    C31   D    
C9    I1    S    
C5    O7    A    
C10   I2    S    
C22   N3    S    
O4    Zn1   S    
C10   C19   A    
C16   C20   A    
C14   N4    S    
C23   C28   A    
H16   N6    S    
C9    C11   A    
C3    H25   S    
C16   C18   A    
C28   H1    S    
C8    C15   A    
C21   C23   A    
C29   H12   S    
H7    N4    S    
C14   C16   A    
C3    C4    S    
C19   C29   A    
C25   H13   S    
C11   N6    S    
C13   N5    S    
C15   C17   A    
C12   O2    A    
C10   C13   A    
C27   H21   S    
C6    O8    A    
C20   C27   A    
C3    N1    D    
C22   H4    S    
C30   H23   S    
C4    N2    D    
C26   N6    S    
C32   I4    S    
C12   C31   S    
C26   H19   S    
C30   C32   D    
C23   H20   S    
C1    C30   S    
C24   H8    S    
C31   H22   S    
C5    O5    A    
O7    Zn2   S    
C17   C21   A    
C9    C18   A    
C20   C21   A    
H11   N5    S    
O6    Zn2   S    
O5    Zn1   S    
C25   H14   S    
O3    Zn2   S    
N1    Zn2   S    
C15   N3    S    
