data_mof_unit_55898.cif
_audit_creation_date              2012-12-11T14:23:02-0500
_audit_creation_method            fapswitch 2.2
_symmetry_space_group_name_H-M    P1
_symmetry_Int_Tables_number       1
_space_group_crystal_system       triclinic
_cell_length_a                    11.088648
_cell_length_b                    11.11636
_cell_length_c                    18.706257
_cell_angle_alpha                 89.612176
_cell_angle_beta                  89.966951
_cell_angle_gamma                 59.258333
_cell_volume                      1981.76368279

loop_
_atom_site_label
_atom_site_type_symbol
_atom_type_description
_atom_site_fract_x
_atom_site_fract_y
_atom_site_fract_z
_atom_type_partial_charge
C1    C     C_R   0.234210 0.646010 0.608677 0.545286
C2    C     C_3   0.711414 0.527959 0.801028 -0.243564
C3    C     C_3   0.693565 0.672740 0.814237 0.071601
C4    C     C_3   0.665826 0.644237 0.678227 0.040573
C5    C     C_3   0.793210 0.662118 0.689678 -0.256801
C6    C     C_3   0.685950 0.515045 0.721754 -0.218479
C7    C     C_R   0.697429 0.131755 0.817775 0.000734
C8    C     C_R   0.800194 0.147692 0.780786 0.018892
C9    C     C_R   0.800970 0.144324 0.704807 0.022551
C10   C     C_R   0.597659 0.117144 0.705196 -0.160284
C11   C     C_R   0.599795 0.114371 0.778006 -0.148266
C12   C     C_R   0.651584 0.618865 0.602381 0.555951
C13   C     C_R   0.901049 0.167805 0.816112 -0.124775
C14   C     C_R   0.008739 0.168498 0.777903 -0.160220
C15   C     C_R   0.017274 0.150447 0.704208 -0.149743
C16   C     C_R   0.914590 0.138628 0.667811 -0.103056
C17   C     C_R   0.687486 0.146850 0.668188 -0.006066
C18   C     C_R   0.165836 0.677414 0.831505 -0.010801
C19   C     C_R   0.202263 0.549319 0.798484 0.014976
C20   C     C_R   0.195173 0.544741 0.722872 0.020986
C21   C     C_R   0.146128 0.784475 0.716216 -0.168577
C22   C     C_R   0.136705 0.793410 0.789227 -0.162059
C23   C     C_R   0.632789 0.222172 0.600456 0.539094
C24   C     C_R   0.241967 0.426858 0.839007 -0.084389
C25   C     C_R   0.256923 0.307936 0.806762 -0.131931
C26   C     C_R   0.237066 0.307143 0.733601 -0.137015
C27   C     C_R   0.204411 0.424357 0.691994 -0.085259
C28   C     C_R   0.179291 0.660865 0.681711 -0.011428
C29   C     C_R   0.700010 0.702219 0.181260 -0.015460
C30   C     C_R   0.803371 0.593021 0.222839 0.020767
C31   C     C_R   0.762394 0.533457 0.275817 0.034994
C32   C     C_R   0.534342 0.745188 0.276116 -0.148928
C33   C     C_R   0.564870 0.781642 0.209607 -0.140999
C34   C     C_R   0.283772 0.623366 0.391827 0.544515
C35   C     C_R   0.945970 0.547706 0.217511 -0.086517
C36   C     C_R   0.043209 0.435783 0.259259 -0.128040
C37   C     C_R   0.002756 0.361328 0.301166 -0.136770
C38   C     C_R   0.863720 0.401452 0.302673 -0.096128
C39   C     C_R   0.632672 0.619486 0.309717 -0.006270
C40   C     C_R   0.650784 0.155498 0.179436 0.005486
C41   C     C_R   0.552141 0.141374 0.221454 0.018209
C42   C     C_R   0.577353 0.112223 0.294947 0.025729
C43   C     C_R   0.768539 0.154899 0.288562 -0.143012
C44   C     C_R   0.755056 0.171724 0.214165 -0.016493
C45   C     C_R   0.616849 0.591020 0.385134 0.539170
C46   C     C_R   0.424565 0.163058 0.193870 -0.113360
C47   C     C_R   0.333799 0.144837 0.237102 -0.160702
C48   C     C_R   0.372761 0.090418 0.305839 -0.122188
C49   C     C_R   0.497360 0.069075 0.334017 -0.066828
C50   C     C_R   0.668994 0.144067 0.329362 -0.019776
C51   C     C_R   0.219926 0.642680 0.163932 -0.012242
C52   C     C_R   0.249154 0.736768 0.197932 0.052019
C53   C     C_R   0.226730 0.752247 0.272058 0.027301
C54   C     C_R   0.294810 0.508669 0.274317 -0.165344
C55   C     C_R   0.262010 0.518307 0.200386 -0.182646
C56   C     C_R   0.622248 0.221970 0.397260 0.519948
C57   C     C_R   0.262784 0.836687 0.158661 -0.077922
C58   C     C_R   0.204565 0.969657 0.185638 -0.130200
C59   C     C_R   0.151498 0.996407 0.255051 -0.160052
C60   C     C_R   0.164818 0.889176 0.298887 -0.109279
C61   C     C_R   0.260031 0.631067 0.312955 -0.011537
C62   C     C_R   0.704047 0.096972 0.894315 0.534626
C63   C     C_R   0.720702 0.686927 0.889596 0.546891
C64   C     C_R   0.115975 0.707472 0.905285 0.528254
C65   C     C_R   0.675345 0.104175 0.105262 0.533636
C66   C     C_R   0.730977 0.716065 0.106306 0.560642
C67   C     C_3   0.545247 0.790813 0.788083 -0.113256
C68   C     C_R   0.114636 0.698737 0.103835 0.522789
C69   C     C_3   0.531885 0.776367 0.706847 -0.212207
C70   C     C_3   0.806641 0.684235 0.769579 -0.231549
Cr1   Cr    Cr6+3 0.392940 0.397950 0.502230 0.999293
Cr2   Cr    Cr6+3 0.398400 0.708500 0.501260 0.989087
Cr3   Cr    Cr6+3 0.708640 0.393530 0.496460 0.985068
Cr4   Cr    Cr6+3 0.937880 0.938320 0.007620 0.971579
Cr5   Cr    Cr6+3 0.625560 0.937220 0.994510 0.984003
Cr6   Cr    Cr6+3 0.938080 0.625010 0.001190 0.973798
H1    H     H_    0.536405 0.893301 0.796902 0.141817
H2    H     H_    0.777217 0.417825 0.701249 0.168560
H3    H     H_    0.914223 0.604619 0.787706 0.156406
H4    H     H_    0.890699 0.567466 0.671041 0.137258
H5    H     H_    0.515768 0.108817 0.678257 0.134418
H6    H     H_    0.897150 0.186357 0.872808 0.132100
H7    H     H_    0.522519 0.097049 0.802933 0.141121
H8    H     H_    0.086960 0.180603 0.805949 0.113973
H9    H     H_    0.103668 0.144499 0.674623 0.104444
H10   H     H_    0.928225 0.119659 0.610947 0.134444
H11   H     H_    0.133338 0.873860 0.686630 0.153255
H12   H     H_    0.263050 0.421340 0.895743 0.126678
H13   H     H_    0.105717 0.893357 0.812726 0.167368
H14   H     H_    0.284347 0.215856 0.838739 0.098598
H15   H     H_    0.250404 0.213909 0.708715 0.092427
H16   H     H_    0.181294 0.419918 0.636428 0.140160
H17   H     H_    0.435689 0.814515 0.301477 0.155607
H18   H     H_    0.978138 0.609417 0.189200 0.153460
H19   H     H_    0.485587 0.872766 0.181272 0.161913
H20   H     H_    0.150185 0.402854 0.260479 0.131859
H21   H     H_    0.077672 0.276863 0.334881 0.103504
H22   H     H_    0.437170 0.769465 0.694981 0.157715
H23   H     H_    0.835734 0.339970 0.334688 0.150159
H24   H     H_    0.856690 0.149669 0.315447 0.104730
H25   H     H_    0.386612 0.206876 0.141325 0.134410
H26   H     H_    0.230671 0.179623 0.217395 0.112998
H27   H     H_    0.304297 0.071244 0.338866 0.107348
H28   H     H_    0.524555 0.031182 0.388571 0.134766
H29   H     H_    0.334154 0.409995 0.302268 0.157770
H30   H     H_    0.294581 0.819195 0.103057 0.121980
H31   H     H_    0.260809 0.434666 0.172536 0.112457
H32   H     H_    0.517349 0.871507 0.678718 0.100007
H33   H     H_    0.190755 0.052471 0.149882 0.093596
H34   H     H_    0.099592 0.099880 0.275658 0.092307
H35   H     H_    0.116123 0.919374 0.350616 0.152656
H36   H     H_    0.795241 0.788822 0.777329 0.126911
H37   H     H_    0.780494 0.753359 0.658293 0.118098
H38   H     H_    0.819984 0.445368 0.815547 0.145959
H39   H     H_    0.639256 0.510515 0.834900 0.109755
H40   H     H_    0.591842 0.504448 0.715866 0.124895
O1    O     O_R   0.507340 0.255690 0.581430 -0.519520
O2    O     O_R   0.524510 0.695820 0.424050 -0.510677
O3    O     O_R   0.736370 0.504260 0.414810 -0.512132
O4    O     O_R   0.691220 0.277270 0.422180 -0.535349
O5    O     O_3   0.499990 0.499990 0.499980 -0.279628
O6    O     O_R   0.089570 0.825450 0.930590 -0.533522
O7    O     O_R   0.818700 0.054260 0.929860 -0.511502
O8    O     O_R   0.606310 0.077010 0.915520 -0.533821
O9    O     O_R   0.646730 0.806540 0.917560 -0.510710
O10   O     O_R   0.837290 0.593240 0.915240 -0.534954
O11   O     O_R   0.065320 0.635310 0.931580 -0.510884
O12   O     O_R   0.280360 0.527380 0.578910 -0.503421
O13   O     O_R   0.068470 0.828620 0.091850 -0.521379
O14   O     O_R   0.799150 0.057200 0.079350 -0.502078
O15   O     O_R   0.585220 0.080180 0.076770 -0.539849
O16   O     O_R   0.627170 0.809480 0.067050 -0.508065
O17   O     O_R   0.816200 0.596410 0.076500 -0.532132
O18   O     O_R   0.045770 0.638240 0.081070 -0.532388
O19   O     O_3   0.833840 0.833520 0.001110 -0.255244
O20   O     O_R   0.260600 0.739610 0.584580 -0.529158
O21   O     O_R   0.532370 0.695050 0.573830 -0.507104
O22   O     O_R   0.744850 0.503430 0.576380 -0.520037
O23   O     O_R   0.699080 0.276500 0.571950 -0.514876
O24   O     O_R   0.498860 0.256520 0.419860 -0.531879
O25   O     O_R   0.272490 0.528150 0.429140 -0.487860
O26   O     O_R   0.252110 0.740440 0.423010 -0.539650
C71   C     C_3   0.422712 0.794432 0.828735 -0.420484
H41   H     H_    0.415796 0.700651 0.816595 0.147226
H42   H     H_    0.433063 0.799573 0.887372 0.156912
H43   H     H_    0.323422 0.889596 0.812244 0.120745
C72   C     C_3   0.856731 0.200216 0.173170 -0.235882
C73   C     C_3   0.786808 0.318900 0.117015 -0.269542
C74   C     C_3   0.891089 0.299848 0.058357 -0.406246
H44   H     H_    0.979077 0.308032 0.081209 0.149022
H45   H     H_    0.933966 0.196126 0.032634 0.145686
H46   H     H_    0.837365 0.381164 0.016289 0.174985
H47   H     H_    0.694284 0.324358 0.091233 0.158496
H48   H     H_    0.747607 0.421106 0.143293 0.180784
H49   H     H_    0.915593 0.228319 0.209137 0.126089
H50   H     H_    0.938816 0.101672 0.149072 0.204114

loop_
_geom_bond_atom_site_label_1
_geom_bond_atom_site_label_2
_ccdc_geom_bond_type
C45   O2    A    
C71   H43   S    
C21   H11   S    
C34   O25   A    
C8    C13   A    
Cr3   O3    S    
Cr2   O5    S    
C58   H33   S    
Cr6   O10   S    
C41   C42   A    
C19   C20   A    
C67   H1    S    
C1    O12   A    
C14   H8    S    
C67   C71   S    
C59   H34   S    
C49   H28   S    
C37   H21   S    
C65   O14   A    
C7    C8    A    
Cr5   O16   S    
Cr2   O26   S    
C26   C27   A    
C17   C23   S    
C30   C35   A    
C64   O6    A    
C23   O23   A    
C36   C37   A    
C9    C16   A    
C74   H45   S    
C30   C31   A    
C56   O24   A    
Cr5   O19   S    
C6    H2    S    
Cr3   O22   S    
C10   C17   A    
C15   C16   A    
C29   C33   A    
C44   C72   S    
C18   C19   A    
C32   C39   A    
C4    C69   S    
C72   C73   S    
C54   C55   A    
C53   C61   A    
C69   H32   S    
C35   C36   A    
C8    C9    A    
C1    C28   S    
C41   C46   A    
C4    C12   S    
C1    O20   A    
C72   H49   S    
C39   C45   S    
C69   H22   S    
C45   O3    A    
Cr4   O7    S    
C59   C60   A    
Cr3   O4    S    
C21   C22   A    
C16   H10   S    
C56   O4    A    
C2    C6    S    
C73   H48   S    
C33   H19   S    
C62   O8    A    
C62   O7    A    
C65   O15   A    
Cr6   O19   S    
Cr5   O15   S    
C54   C61   A    
C66   O16   A    
Cr2   O21   S    
C46   H25   S    
Cr1   O1    S    
Cr5   O8    S    
C3    C70   S    
C24   C25   A    
C4    C6    S    
C10   C11   A    
C74   H46   S    
Cr6   O18   S    
C38   H23   S    
Cr3   O23   S    
C11   H7    S    
C26   H15   S    
C48   H27   S    
C13   H6    S    
C34   C61   S    
C50   C56   S    
C15   H9    S    
C51   C52   A    
C55   H31   S    
C67   C69   S    
C7    C11   A    
C43   C44   A    
C7    C62   S    
C37   C38   A    
C66   O17   A    
C2    H39   S    
C36   H20   S    
C47   C48   A    
C14   C15   A    
C64   O11   A    
C32   H17   S    
Cr4   O19   S    
C53   C60   A    
C25   H14   S    
C27   H16   S    
C43   H24   S    
C5    H4    S    
C72   H50   S    
C24   H12   S    
C6    H40   S    
C63   O9    A    
C70   H36   S    
C42   C50   A    
C9    C17   A    
C40   C41   A    
Cr4   O6    S    
C21   C28   A    
Cr3   O5    S    
C40   C65   S    
Cr4   O14   S    
C12   O22   A    
Cr1   O12   S    
C58   C59   A    
C73   H47   S    
C52   C53   A    
C35   H18   S    
C71   H42   S    
C46   C47   A    
C34   O26   A    
C54   H29   S    
C5    H37   S    
C70   H3    S    
C18   C22   A    
C19   C24   A    
Cr1   O5    S    
C3    C67   S    
C4    C5    S    
C5    C70   S    
C23   O1    A    
Cr6   O17   S    
C43   C50   A    
Cr1   O24   S    
C20   C27   A    
C3    C63   S    
C20   C28   A    
C10   H5    S    
C31   C38   A    
Cr1   O25   S    
C32   C33   A    
C68   O18   A    
C2    C3    S    
C25   C26   A    
C60   H35   S    
C74   H44   S    
C2    H38   S    
C18   C64   S    
C57   C58   A    
C48   C49   A    
C22   H13   S    
C31   C39   A    
C57   H30   S    
C51   C55   A    
C73   C74   S    
C68   O13   A    
C63   O10   A    
Cr2   O20   S    
C52   C57   A    
C42   C49   A    
C29   C30   A    
C29   C66   S    
C40   C44   A    
C51   C68   S    
Cr4   O13   S    
Cr2   O2    S    
C47   H26   S    
Cr6   O11   S    
C12   O21   A    
Cr5   O9    S    
C13   C14   A    
C71   H41   S    
