data_mof_unit_65926.cif
_audit_creation_date              2012-12-11T15:45:10-0500
_audit_creation_method            fapswitch 2.2
_symmetry_space_group_name_H-M    P1
_symmetry_Int_Tables_number       1
_space_group_crystal_system       triclinic
_cell_length_a                    22.708036
_cell_length_b                    30.615786
_cell_length_c                    19.073702
_cell_angle_alpha                 89.999363
_cell_angle_beta                  124.130563
_cell_angle_gamma                 89.999812
_cell_volume                      10976.5288778

loop_
_atom_site_label
_atom_site_type_symbol
_atom_type_description
_atom_site_fract_x
_atom_site_fract_y
_atom_site_fract_z
_atom_type_partial_charge
C1    C     C_R   0.118867 0.384226 0.065920 0.519010
C2    C     C_R   0.945554 0.387760 0.075324 0.488248
C3    C     C_R   0.743393 0.999994 0.213542 0.001366
C4    C     C_R   0.017003 0.463533 0.224172 -0.075118
C5    C     C_R   0.017004 0.536466 0.224172 -0.074801
C6    C     C_R   0.517003 0.963533 0.224172 -0.074595
C7    C     C_R   0.517004 0.036466 0.224172 -0.074328
C8    C     C_R   0.808405 0.535399 0.768684 0.474990
C9    C     C_R   0.808404 0.464603 0.768682 0.474672
C10   C     C_R   0.308424 0.035400 0.768673 0.475048
C11   C     C_R   0.308422 0.964603 0.768671 0.475061
C12   C     C_R   0.445551 0.112238 0.075323 0.488198
C13   C     C_R   0.445553 0.887760 0.075323 0.488131
C14   C     C_R   0.012259 0.499999 0.263733 -0.000708
C15   C     C_R   0.512259 0.999999 0.263733 -0.000703
C16   C     C_R   0.769946 0.500002 0.722050 -0.164957
C17   C     C_R   0.269986 0.000003 0.722028 -0.164850
C18   C     C_R   0.884574 0.367348 0.007522 -0.252590
C19   C     C_R   0.884569 0.632649 0.007521 -0.252630
C20   C     C_R   0.384571 0.867349 0.007521 -0.252606
C21   C     C_R   0.118869 0.615772 0.065919 0.518013
C22   C     C_R   0.384567 0.132648 0.007520 -0.252599
C23   C     C_3   0.466574 0.528152 0.438256 0.353747
C24   C     C_3   0.503809 0.518563 0.334824 0.325098
C25   C     C_3   0.967735 0.031365 0.435205 0.394149
C26   C     C_3   0.004282 0.014489 0.332946 0.296438
C27   C     C_3   0.582368 0.521826 0.413230 -0.405278
C28   C     C_3   0.544595 0.525612 0.514921 -0.577842
C29   C     C_3   0.083631 0.015328 0.409974 -0.415890
C30   C     C_3   0.046734 0.031333 0.509915 -0.537142
C31   C     C_1   0.714487 0.500004 0.635204 0.155073
C32   C     C_R   0.618860 0.884222 0.065919 0.518723
C33   C     C_1   0.214541 0.000006 0.635185 0.156448
C34   C     C_3   0.456365 0.499948 0.363826 -0.039412
C35   C     C_3   0.956310 0.999867 0.363939 -0.046382
C36   C     C_3   0.589749 0.499943 0.491167 0.178281
C37   C     C_3   0.089738 0.999938 0.491257 0.172674
C38   C     C_R   0.056484 0.611463 0.927199 -0.161579
C39   C     C_R   0.056482 0.388535 0.927201 -0.161322
C40   C     C_R   0.556482 0.111464 0.927199 -0.161586
C41   C     C_R   0.556478 0.888533 0.927200 -0.161784
C42   C     C_3   0.562229 0.452321 0.468425 -0.621640
C43   C     C_R   0.618865 0.115775 0.065918 0.517625
C44   C     C_3   0.058982 0.953190 0.477433 -0.618714
C45   C     C_3   0.481292 0.451785 0.395425 0.833935
C46   C     C_3   0.978820 0.952542 0.402252 0.834696
C47   C     C_1   0.661664 0.500005 0.565716 0.016017
C48   C     C_1   0.161706 0.000003 0.565716 0.012411
C49   C     C_1   0.380994 0.499989 0.297949 0.107946
C50   C     C_1   0.880966 0.999943 0.297941 0.102481
C51   C     C_1   0.317797 0.499995 0.255024 0.020296
C52   C     C_1   0.817775 0.999979 0.254941 0.027693
C53   C     C_1   0.149604 0.671903 0.993575 -0.009962
C54   C     C_R   0.870951 0.387166 0.934185 0.476694
C55   C     C_1   0.149597 0.328092 0.993578 -0.008528
C56   C     C_1   0.649598 0.171907 0.993575 -0.009930
C57   C     C_1   0.649589 0.828087 0.993577 -0.008788
C58   C     C_1   0.184938 0.702145 0.995652 0.019877
C59   C     C_1   0.184929 0.297849 0.995654 0.020859
C60   C     C_1   0.684934 0.202148 0.995652 0.019912
C61   C     C_1   0.684923 0.797845 0.995654 0.020851
C62   C     C_1   0.228495 0.736936 0.000438 0.009730
C63   C     C_1   0.228484 0.263057 0.000440 0.010026
C64   C     C_1   0.728491 0.236938 0.000439 0.009793
C65   C     C_R   0.870947 0.612832 0.934184 0.476789
C66   C     C_1   0.728481 0.763055 0.000441 0.010213
C67   C     C_1   0.766161 0.266349 0.004965 0.008105
C68   C     C_1   0.766151 0.733645 0.004966 0.008083
C69   C     C_1   0.266163 0.766348 0.004964 0.008019
C70   C     C_1   0.266153 0.233646 0.004965 0.007940
C71   C     C_1   0.809852 0.300929 0.009313 0.020648
C72   C     C_1   0.809843 0.699066 0.009312 0.020434
C73   C     C_1   0.309852 0.800929 0.009312 0.020576
C74   C     C_1   0.309843 0.199066 0.009311 0.020386
C75   C     C_R   0.974116 0.463532 0.771016 0.465455
C76   C     C_R   0.370948 0.887168 0.934184 0.476896
C77   C     C_R   0.974116 0.536469 0.771016 0.465242
C78   C     C_R   0.474119 0.963532 0.771017 0.465239
C79   C     C_R   0.474118 0.036469 0.771017 0.465127
C80   C     C_1   0.845438 0.330795 0.010625 -0.014047
C81   C     C_1   0.845431 0.669200 0.010624 -0.014208
C82   C     C_1   0.345436 0.830796 0.010624 -0.014087
C83   C     C_1   0.345429 0.169199 0.010623 -0.014142
C84   C     C_1   0.007246 0.499999 0.335884 -0.010641
C85   C     C_1   0.507248 0.999999 0.335886 -0.010309
C86   C     C_1   0.001357 0.499999 0.395083 0.018428
C87   C     C_R   0.370945 0.112830 0.934184 0.476960
C88   C     C_1   0.501361 0.999999 0.395085 0.018548
C89   C     C_1   0.993511 0.500000 0.463781 0.007250
C90   C     C_1   0.493516 1.000000 0.463785 0.007222
C91   C     C_1   0.986955 0.500000 0.522468 0.005857
C92   C     C_1   0.486961 0.000000 0.522472 0.005741
C93   C     C_1   0.980369 0.500001 0.592119 0.019594
C94   C     C_1   0.480375 0.000001 0.592123 0.019400
C95   C     C_1   0.976679 0.500001 0.652942 -0.018932
C96   C     C_1   0.476684 0.000001 0.652945 -0.019114
C97   C     C_R   0.200843 0.535747 0.193370 -0.090533
C98   C     C_R   0.945552 0.612239 0.075323 0.488253
C99   C     C_R   0.200842 0.464251 0.193371 -0.083681
C100  C     C_R   0.700837 0.035745 0.193310 -0.090505
C101  C     C_R   0.700832 0.964249 0.193312 -0.082260
C102  C     C_R   0.111089 0.365313 0.995318 -0.106774
C103  C     C_R   0.111093 0.634684 0.995316 -0.107518
C104  C     C_R   0.611082 0.865309 0.995317 -0.106890
C105  C     C_R   0.611088 0.134687 0.995316 -0.107593
C106  C     C_R   0.975760 0.500000 0.728182 -0.218602
C107  C     C_R   0.475764 0.000000 0.728184 -0.218648
C108  C     C_R   0.243413 0.499998 0.213653 0.001593
H1    H     H_    0.572036 0.434942 0.525342 0.193993
H2    H     H_    0.176916 0.660733 0.146458 0.321758
H3    H     H_    0.676897 0.839258 0.146459 0.321908
H4    H     H_    0.676908 0.160736 0.146458 0.321763
H5    H     H_    0.481799 0.588598 0.415887 0.373819
H6    H     H_    0.438870 0.554562 0.237029 0.323074
H7    H     H_    0.977991 0.090670 0.402785 0.374451
H8    H     H_    0.941273 0.051709 0.236305 0.325280
H9    H     H_    0.502675 0.495651 0.288586 0.113841
H10   H     H_    0.432777 0.514681 0.458390 0.113843
H11   H     H_    0.999311 0.990700 0.285728 0.067792
H12   H     H_    0.593460 0.434444 0.448803 0.204816
H13   H     H_    0.936566 0.018885 0.459805 0.151015
H14   H     H_    0.618205 0.505498 0.398834 0.150018
H15   H     H_    0.546704 0.508931 0.568230 0.167111
H16   H     H_    0.115749 0.993577 0.397034 0.142638
H17   H     H_    0.050763 0.020782 0.568404 0.174197
H18   H     H_    0.457942 0.443528 0.480122 0.290952
H19   H     H_    0.482232 0.395754 0.347416 0.349171
H20   H     H_    0.948251 0.908706 0.449791 0.350483
H21   H     H_    0.004869 0.923622 0.330372 0.291136
H22   H     H_    0.030431 0.620901 0.861993 0.209369
H23   H     H_    0.064930 0.941704 0.536539 0.206886
H24   H     H_    0.030427 0.379097 0.861995 0.209410
H25   H     H_    0.530428 0.120903 0.861993 0.209473
H26   H     H_    0.530423 0.879095 0.861994 0.209458
H27   H     H_    0.954468 0.420661 0.686416 0.332563
H28   H     H_    0.954466 0.579340 0.686415 0.332561
H29   H     H_    0.454474 0.920661 0.686419 0.332417
H30   H     H_    0.454472 0.079340 0.686417 0.332661
H31   H     H_    0.217911 0.569219 0.203732 0.178917
H32   H     H_    0.217909 0.430779 0.203735 0.179305
H33   H     H_    0.717911 0.069215 0.203675 0.178878
H34   H     H_    0.090901 0.930266 0.466186 0.187366
H35   H     H_    0.717898 0.930777 0.203681 0.178503
H36   H     H_    0.854726 0.587729 0.768944 0.374794
H37   H     H_    0.854723 0.412272 0.768939 0.374773
H38   H     H_    0.354754 0.087735 0.768971 0.374800
H39   H     H_    0.354747 0.912267 0.768962 0.374731
H40   H     H_    0.793723 0.349734 0.853712 0.331761
H41   H     H_    0.793711 0.650260 0.853711 0.332039
H42   H     H_    0.293709 0.849743 0.853710 0.331709
H43   H     H_    0.293700 0.150254 0.853709 0.332140
H44   H     H_    0.964118 0.654507 0.160375 0.326140
H45   H     H_    0.024055 0.430621 0.247286 0.184024
H46   H     H_    0.964125 0.345490 0.160377 0.326498
H47   H     H_    0.464117 0.154507 0.160374 0.325962
H48   H     H_    0.464122 0.845490 0.160376 0.326501
H49   H     H_    0.567153 0.558862 0.538221 0.211026
H50   H     H_    0.599228 0.556613 0.427964 0.211137
H51   H     H_    0.069941 0.064758 0.522897 0.201183
H52   H     H_    0.105943 0.048857 0.419763 0.218209
H53   H     H_    0.024057 0.569378 0.247288 0.183946
H54   H     H_    0.524056 0.930621 0.247286 0.184003
H55   H     H_    0.524057 0.069378 0.247287 0.183921
H56   H     H_    0.176915 0.339265 0.146463 0.321893
N1    N     N_R   0.075400 0.419050 0.040930 -0.080500
N2    N     N_R   0.976800 0.523070 0.840160 -0.112703
N3    N     N_R   0.476800 0.976930 0.840160 -0.112727
N4    N     N_R   0.476800 0.023070 0.840160 -0.112776
N5    N     N_R   0.134210 0.520980 0.157560 -0.047439
N6    N     N_R   0.134210 0.479020 0.157560 -0.048376
N7    N     N_R   0.634210 0.020980 0.157560 -0.047378
N8    N     N_R   0.634210 0.979020 0.157560 -0.048393
N9    N     N_R   0.020160 0.476910 0.158980 -0.052051
N10   N     N_R   0.020160 0.523090 0.158980 -0.051967
N11   N     N_R   0.520160 0.976910 0.158980 -0.052072
N12   N     N_R   0.075400 0.580950 0.040930 -0.080143
N13   N     N_R   0.520160 0.023090 0.158980 -0.051982
N14   N     N_R   0.864590 0.520950 0.843300 -0.144684
N15   N     N_R   0.864590 0.479050 0.843300 -0.144696
N16   N     N_R   0.364590 0.020950 0.843300 -0.144708
N17   N     N_R   0.364590 0.979050 0.843300 -0.144701
N18   N     N_R   0.919150 0.419020 0.955970 -0.118174
N19   N     N_R   0.919150 0.580980 0.955970 -0.118206
N20   N     N_R   0.419150 0.919020 0.955970 -0.118155
N21   N     N_R   0.419150 0.080980 0.955970 -0.118211
N22   N     N_R   0.965610 0.578840 0.046310 -0.105641
N23   N     N_R   0.575400 0.919050 0.040930 -0.080641
N24   N     N_R   0.965610 0.421160 0.046310 -0.105706
N25   N     N_R   0.465610 0.078840 0.046310 -0.105640
N26   N     N_R   0.465610 0.921160 0.046310 -0.105698
N27   N     N_R   0.575400 0.080950 0.040930 -0.080231
N28   N     N_R   0.035610 0.578860 0.956800 -0.079891
N29   N     N_R   0.035610 0.421140 0.956800 -0.079944
N30   N     N_R   0.535610 0.078860 0.956800 -0.079969
N31   N     N_R   0.535610 0.921140 0.956800 -0.079960
N32   N     N_R   0.976800 0.476930 0.840160 -0.112688
Ni1   Ni    Ni4+2 0.047340 0.448440 0.099050 0.282941
Ni2   Ni    Ni4+2 0.047340 0.551560 0.099050 0.283022
Ni3   Ni    Ni4+2 0.547340 0.948440 0.099050 0.283021
Ni4   Ni    Ni4+2 0.547340 0.051560 0.099050 0.283205
Ni5   Ni    Ni4+2 0.950540 0.549450 0.900950 0.227989
Ni6   Ni    Ni4+2 0.950540 0.450550 0.900950 0.228012
Ni7   Ni    Ni4+2 0.450540 0.049450 0.900950 0.227900
Ni8   Ni    Ni4+2 0.450540 0.950550 0.900950 0.227831
O1    O     O_3   0.151965 0.366056 0.145424 -0.751242
O2    O     O_3   0.471171 0.426541 0.327723 -0.764623
O3    O     O_3   0.937712 0.939940 0.433223 -0.762313
O4    O     O_3   0.965813 0.922166 0.339105 -0.754369
O5    O     O_3   0.957542 0.421545 0.740296 -0.771538
O6    O     O_3   0.957541 0.578456 0.740295 -0.771589
O7    O     O_3   0.457546 0.921545 0.740298 -0.771664
O8    O     O_3   0.457545 0.078456 0.740297 -0.771439
O9    O     O_3   0.807123 0.574246 0.731751 -0.680224
O10   O     O_3   0.807120 0.425756 0.731747 -0.680145
O11   O     O_3   0.307156 0.074250 0.731754 -0.679976
O12   O     O_3   0.151966 0.633942 0.145421 -0.751373
O13   O     O_3   0.307150 0.925755 0.731748 -0.680339
O14   O     O_3   0.821493 0.374265 0.852358 -0.727049
O15   O     O_3   0.821485 0.625732 0.852357 -0.726698
O16   O     O_3   0.321483 0.874271 0.852357 -0.727019
O17   O     O_3   0.321476 0.125726 0.852356 -0.726549
O18   O     O_3   0.988354 0.628811 0.155916 -0.751564
O19   O     O_3   0.988358 0.371187 0.155918 -0.751256
O20   O     O_3   0.488353 0.128812 0.155915 -0.751570
O21   O     O_3   0.488357 0.871187 0.155917 -0.751284
O22   O     O_3   0.651952 0.866052 0.145422 -0.751579
O23   O     O_3   0.651961 0.133944 0.145422 -0.751176
O24   O     O_3   0.443473 0.571622 0.413345 -0.697082
O25   O     O_3   0.480095 0.559704 0.296035 -0.726319
O26   O     O_3   0.941665 0.073830 0.404708 -0.715351
O27   O     O_3   0.984636 0.055827 0.294242 -0.721867
O28   O     O_3   0.440364 0.432849 0.422473 -0.750143

loop_
_geom_bond_atom_site_label_1
_geom_bond_atom_site_label_2
_ccdc_geom_bond_type
H48   O21   S    
C58   C62   S    
C66   C68   T    
N7    N8    A    
C45   O2    S    
N20   Ni8   S    
C20   C82   S    
C2    C18   A    
C5    N10   A    
C36   C42   S    
C11   N17   A    
C24   C27   S    
C14   C84   S    
C74   C83   T    
N16   Ni7   S    
C42   H12   S    
C23   H10   S    
H43   O17   S    
C23   O24   S    
C28   H15   S    
C87   N21   A    
C99   N6    A    
C40   N30   A    
N9    N10   A    
C27   H50   S    
C46   O4    S    
C12   N25   A    
C39   N29   A    
C55   C102  S    
C20   C76   A    
C24   H9    S    
N7    Ni4   S    
H29   O7    S    
H39   O13   S    
C87   O17   S    
C77   C106  A    
H19   O2    S    
C84   C86   T    
C32   O22   S    
C55   C59   T    
H56   O1    S    
C32   N23   A    
H41   O15   S    
H36   O9    S    
C3    C52   S    
C10   O11   S    
N12   N28   A    
C6    N11   A    
C10   C17   A    
C29   H16   S    
C12   C22   A    
C97   N5    A    
C7    N13   A    
C101  N8    A    
C43   C105  A    
H46   O19   S    
C12   O20   S    
H7    O26   S    
C6    C15   A    
C97   C108  A    
C3    C100  A    
C27   H14   S    
C75   O5    S    
C75   C106  A    
C6    H54   S    
C44   C46   S    
C51   C108  S    
C49   C51   T    
N13   Ni4   S    
C70   C74   S    
C50   C52   T    
N28   Ni5   S    
C54   N18   A    
C69   C73   S    
C45   O28   S    
C42   H1    S    
C79   N4    A    
C89   C91   T    
C1    O1    S    
C11   O13   S    
H38   O11   S    
C9    N15   A    
C15   C85   S    
C75   N32   A    
C21   N12   A    
C7    C15   A    
C4    H45   S    
C30   H17   S    
C43   N27   A    
C8    C16   A    
H4    O23   S    
C31   C47   T    
C53   C103  S    
C100  N7    A    
H47   O20   S    
C79   O8    S    
C17   C33   S    
H6    O25   S    
C61   C66   S    
C28   H49   S    
C41   H26   S    
C19   C98   A    
C43   O23   S    
N26   Ni3   S    
C54   O14   S    
C29   H52   S    
C30   H51   S    
C56   C105  S    
C25   O26   S    
N10   Ni2   S    
C63   C70   T    
N9    Ni1   S    
N19   Ni5   S    
N5    N6    A    
N14   N15   A    
C28   C36   S    
C26   H11   S    
N11   N13   A    
C8    O9    S    
N19   N22   A    
N3    N4    A    
C65   O15   S    
H21   O4    S    
C18   C54   A    
H2    O12   S    
H5    O24   S    
N31   Ni8   S    
C77   N2    A    
C23   C28   S    
C7    H55   S    
C24   C34   S    
C13   N26   A    
C56   C60   T    
C62   C69   T    
N23   Ni3   S    
C78   C107  A    
C16   C31   S    
N2    Ni5   S    
C5    H53   S    
H18   O28   S    
C64   C67   T    
C38   C103  A    
C99   C108  A    
C95   C106  S    
N1    Ni1   S    
C91   C93   S    
C90   C92   T    
N15   Ni6   S    
C1    N1    A    
C68   C72   S    
C23   C34   S    
C35   C50   S    
C92   C94   S    
C78   N3    A    
C21   O12   S    
C79   C107  A    
N21   N25   A    
C34   C45   S    
N18   N24   A    
N3    Ni8   S    
N27   Ni4   S    
C37   C48   S    
C94   C96   T    
N11   Ni3   S    
C5    C14   A    
C77   O6    S    
C25   C35   S    
H28   O6    S    
N25   Ni4   S    
C18   C80   S    
H27   O5    S    
C96   C107  S    
C88   C90   S    
C24   O25   S    
C38   N28   A    
C4    N9    A    
H8    O27   S    
C26   O27   S    
N20   N26   A    
C36   C47   S    
C40   C105  A    
N17   Ni8   S    
N1    N29   A    
N32   Ni6   S    
N2    N32   A    
C38   H22   S    
C73   C82   T    
C32   C104  A    
N16   N17   A    
C39   C102  A    
C65   N19   A    
C85   C88   T    
C25   C30   S    
C57   C104  S    
C11   C17   A    
C34   C49   S    
C13   C20   A    
N23   N31   A    
N18   Ni6   S    
H3    O22   S    
C9    C16   A    
C72   C81   T    
N12   Ni2   S    
C86   C89   S    
C22   C87   A    
C71   C80   T    
C53   C58   T    
C41   C104  A    
C57   C61   T    
H20   O3    S    
C9    O10   S    
C40   H25   S    
C59   C63   S    
N4    Ni7   S    
C60   C64   S    
C27   C36   S    
C10   N16   A    
C22   C83   S    
N21   Ni7   S    
C37   C44   S    
C100  H33   S    
N27   N30   A    
C98   N22   A    
C76   N20   A    
C13   O21   S    
C101  H35   S    
C3    C101  A    
C93   C95   T    
C25   H13   S    
N24   Ni1   S    
C76   O16   S    
N30   Ni7   S    
C98   O18   S    
H30   O8    S    
C2    O19   S    
C97   H31   S    
C19   C65   A    
C67   C71   S    
C4    C14   A    
C99   H32   S    
C2    N24   A    
N8    Ni3   S    
C1    C102  A    
C44   H23   S    
N29   Ni6   S    
H37   O10   S    
C21   C103  A    
C8    N14   A    
C26   C35   S    
C30   C37   S    
C26   C29   S    
C44   H34   S    
C39   H24   S    
N14   Ni5   S    
C29   C37   S    
C33   C48   T    
H42   O16   S    
N22   Ni2   S    
C46   O3    S    
C41   N31   A    
H44   O18   S    
C19   C81   S    
C35   C46   S    
H40   O14   S    
C78   O7    S    
C42   C45   S    
N6    Ni1   S    
N5    Ni2   S    
