data_mof_unit_57780.cif
_audit_creation_date              2012-12-10T17:57:27-0500
_audit_creation_method            fapswitch 2.2
_symmetry_space_group_name_H-M    P1
_symmetry_Int_Tables_number       1
_space_group_crystal_system       triclinic
_cell_length_a                    9.509801
_cell_length_b                    10.834371
_cell_length_c                    13.472347
_cell_angle_alpha                 90.093569
_cell_angle_beta                  72.557092
_cell_angle_gamma                 90.226899
_cell_volume                      1324.25203635

loop_
_atom_site_label
_atom_site_type_symbol
_atom_type_description
_atom_site_fract_x
_atom_site_fract_y
_atom_site_fract_z
_atom_type_partial_charge
C1    C     C_R   0.500133 0.737745 0.500304 0.817968
C2    C     C_R   0.469353 0.450792 0.961871 0.035886
C3    C     C_R   0.465050 0.518028 0.872636 -0.011810
C4    C     C_R   0.555528 0.495568 0.024005 -0.003436
C5    C     C_R   0.665858 0.585537 0.981079 0.090021
C6    C     C_R   0.664316 0.651267 0.891473 0.064303
C7    C     C_R   0.554008 0.625870 0.843683 0.214924
C8    C     C_R   0.527818 0.462935 0.130589 0.123310
C9    C     C_R   0.749011 0.574302 0.134286 -0.275691
C10   C     C_R   0.375678 0.472821 0.812418 -0.163893
C11   C     C_R   0.611629 0.936806 0.524909 -0.192307
C12   C     C_R   0.420920 0.496845 0.699935 0.880939
C13   C     C_R   0.610567 0.064474 0.524171 -0.243730
C14   C     C_R   0.498594 0.127759 0.497601 -0.025753
C15   C     C_R   0.386894 0.061428 0.470909 0.159476
C16   C     C_R   0.388346 0.933435 0.472919 -0.239754
C17   C     C_R   0.500233 0.871180 0.499608 -0.046326
C18   C     C_R   0.898930 0.577634 0.563748 -0.013186
C19   C     C_R   0.047691 0.577379 0.564000 -0.042032
C20   C     C_R   0.101072 0.422329 0.436202 -0.004179
C21   C     C_R   0.952207 0.422375 0.436196 -0.036220
C22   C     C_R   0.499879 0.261957 0.498771 0.804995
C23   C     C_R   0.578480 0.498578 0.299822 0.824487
C24   C     C_R   0.768618 0.615943 0.033651 -0.147412
C25   C     C_R   0.622952 0.506727 0.185714 -0.051388
C26   C     C_R   0.276217 0.373967 0.850598 0.243993
C27   C     C_R   0.290919 0.304204 0.933335 -0.163126
C28   C     C_R   0.393719 0.337048 0.982828 -0.247163
Cu1   Cu    Cu3+1 0.359340 0.499980 0.500000 0.954758
Cu2   Cu    Cu3+1 0.640660 0.500020 0.500000 0.944764
H1    H     H_    0.823972 0.606469 0.175565 0.166039
H2    H     H_    0.696897 0.113577 0.545263 0.161596
H3    H     H_    0.302648 0.883034 0.452022 0.153188
H4    H     H_    0.821581 0.640004 0.614404 0.108046
H5    H     H_    0.082404 0.639352 0.615270 0.118687
H6    H     H_    0.178419 0.359979 0.385254 0.152371
H7    H     H_    0.917404 0.360226 0.385099 0.121626
H8    H     H_    0.859525 0.678442 0.999997 0.175031
H9    H     H_    0.413638 0.271339 0.036773 0.150841
H10   H     H_    0.225497 0.221327 0.957301 0.155787
H11   H     H_    0.698574 0.889626 0.546238 0.145874
N1    N     N_R   0.147940 0.499970 0.499970 -0.159286
N2    N     N_R   0.852060 0.500060 0.499990 -0.156671
O1    O     O_R   0.381250 0.680340 0.500010 -0.591294
O2    O     O_R   0.618820 0.680370 0.500010 -0.587154
O3    O     O_R   0.323240 0.499950 0.650980 -0.593786
O4    O     O_R   0.560810 0.499980 0.650980 -0.566782
O5    O     O_R   0.381180 0.319630 0.499990 -0.557479
O6    O     O_R   0.618750 0.319660 0.499990 -0.599659
O7    O     O_R   0.439190 0.500020 0.349020 -0.545150
O8    O     O_R   0.676760 0.500050 0.349020 -0.596103
N3    N     N_3   0.273642 0.122778 0.439754 -0.596572
H12   H     H_    0.278900 0.092749 0.364927 0.204271
H13   H     H_    0.171500 0.095945 0.490298 0.207930
N4    N     N_3   0.766420 0.751386 0.855781 -0.624285
H14   H     H_    0.828130 0.734521 0.778688 0.197099
H15   H     H_    0.707529 0.833416 0.859541 0.229299
N5    N     N_3   0.391950 0.404996 0.189417 -0.598682
H16   H     H_    0.404469 0.309573 0.193270 0.201998
H17   H     H_    0.302101 0.432073 0.165207 0.232564
N6    N     N_2   0.166627 0.338589 0.803445 -0.430292
H18   H     H_    0.114421 0.407193 0.775135 0.270329
C29   C     C_3   0.184462 0.221047 0.749735 -0.671616
H19   H     H_    0.185607 0.235166 0.667974 0.246640
H20   H     H_    0.090044 0.160072 0.788515 0.225742
H21   H     H_    0.288601 0.174430 0.749468 0.217689
N7    N     N_2   0.528882 0.710478 0.769520 -0.428982
H22   H     H_    0.619497 0.758801 0.725452 0.243934
C30   C     C_3   0.400563 0.787822 0.809004 -0.724370
H23   H     H_    0.384981 0.844978 0.744784 0.229505
H24   H     H_    0.415505 0.849967 0.870796 0.226356
H25   H     H_    0.299980 0.730602 0.840934 0.233307

loop_
_geom_bond_atom_site_label_1
_geom_bond_atom_site_label_2
_ccdc_geom_bond_type
C30   H25   S    
C22   O5    A    
N4    H14   S    
C29   H20   S    
C9    C24   A    
C6    C7    A    
C16   H3    S    
C11   C13   A    
Cu1   O3    S    
C13   H2    S    
C23   O8    A    
C19   N1    A    
C27   H10   S    
C4    C8    A    
C1    O1    A    
C1    O2    A    
C10   C26   A    
C12   O4    A    
C2    C3    A    
C29   H21   S    
C9    C25   A    
C3    C10   A    
C19   H5    S    
C13   C14   A    
N3    H12   S    
C8    C25   A    
C18   H4    S    
C14   C22   S    
C26   C27   A    
Cu1   Cu2   S    
C5    C24   A    
C10   C12   S    
C6    N4    S    
C5    C6    A    
C2    C4    A    
C29   H19   S    
C26   N6    S    
N3    H13   S    
C11   H11   S    
C3    C7    A    
Cu1   O7    S    
N4    H15   S    
Cu1   O1    S    
N6    H18   S    
Cu1   N1    S    
C30   H23   S    
Cu2   N2    S    
C20   N1    A    
C30   H24   S    
C15   C16   A    
C9    H1    S    
Cu1   O5    S    
N5    H17   S    
C24   H8    S    
Cu2   O8    S    
Cu2   O4    S    
C4    C5    A    
C23   C25   S    
C21   H7    S    
C20   C21   A    
C12   O3    A    
C18   C19   A    
C18   N2    A    
C27   C28   A    
N6    C29   S    
C14   C15   A    
C11   C17   A    
C23   O7    A    
C2    C28   A    
Cu2   O2    S    
C28   H9    S    
C8    N5    S    
N5    H16   S    
C15   N3    S    
C7    N7    S    
Cu2   O6    S    
C1    C17   S    
C21   N2    A    
C22   O6    A    
N7    H22   S    
C16   C17   A    
N7    C30   S    
C20   H6    S    
