data_mof_unit_18490.cif
_audit_creation_date              2012-12-11T15:35:22-0500
_audit_creation_method            fapswitch 2.2
_symmetry_space_group_name_H-M    P1
_symmetry_Int_Tables_number       1
_space_group_crystal_system       triclinic
_cell_length_a                    17.558344
_cell_length_b                    24.49833
_cell_length_c                    14.915199
_cell_angle_alpha                 89.979966
_cell_angle_beta                  125.070527
_cell_angle_gamma                 89.977764
_cell_volume                      5250.95933544

loop_
_atom_site_label
_atom_site_type_symbol
_atom_type_description
_atom_site_fract_x
_atom_site_fract_y
_atom_site_fract_z
_atom_type_partial_charge
C1    C     C_R   0.347308 0.150010 0.906183 0.417408
C2    C     C_R   0.346759 0.850197 0.906285 0.422010
C3    C     C_R   0.853669 0.651566 0.906332 0.421383
C4    C     C_R   0.853587 0.348490 0.906320 0.428698
C5    C     C_R   0.673224 0.138818 0.094124 -0.068946
C6    C     C_R   0.671757 0.860126 0.094245 -0.057229
C7    C     C_R   0.186184 0.625945 0.091734 -0.094074
C8    C     C_R   0.186119 0.373863 0.091733 -0.083828
C9    C     C_R   0.577939 0.855900 0.910845 -0.078904
C10   C     C_R   0.579273 0.143237 0.910683 -0.074808
C11   C     C_R   0.095429 0.373458 0.907892 -0.088030
C12   C     C_R   0.095283 0.626723 0.907860 -0.079551
C13   C     C_R   0.555493 0.999948 0.733459 0.094611
C14   C     C_R   0.939951 0.500065 0.634581 0.137343
C15   C     C_R   0.812780 0.999771 0.349015 0.092325
C16   C     C_R   0.304276 0.499740 0.362016 0.105016
C17   C     C_R   0.658896 0.162932 0.003063 0.114113
C18   C     C_R   0.656551 0.835364 0.003374 0.108796
C19   C     C_R   0.181137 0.640952 0.999370 0.158214
C20   C     C_R   0.181252 0.359097 0.999419 0.159312
C21   C     C_3   0.027952 0.947210 0.615472 0.343180
C22   C     C_3   0.026150 0.051909 0.619150 0.377544
C23   C     C_3   0.527075 0.446979 0.621579 0.352917
C24   C     C_3   0.525267 0.551664 0.626554 0.382501
C25   C     C_3   0.924223 0.952773 0.525198 -0.401988
C26   C     C_3   0.929874 0.054027 0.510573 -0.480619
C27   C     C_3   0.422076 0.452367 0.535849 -0.421793
C28   C     C_3   0.426133 0.553709 0.521700 -0.487465
C29   C     C_3   0.080022 0.002384 0.512542 0.616761
C30   C     C_3   0.571533 0.502877 0.512024 0.615527
C31   C     C_3   0.079919 0.000405 0.620039 -0.232864
C32   C     C_3   0.577326 0.500396 0.623012 -0.232327
C33   C     C_3   0.909303 0.999770 0.445875 0.004895
C34   C     C_3   0.402921 0.499751 0.455607 0.013729
C35   C     C_R   0.435207 0.849269 0.088717 0.490810
C36   C     C_R   0.435456 0.150913 0.088508 0.488326
C37   C     C_R   0.948341 0.345612 0.087609 0.516245
C38   C     C_R   0.947838 0.654257 0.087655 0.515611
C39   C     C_3   0.976866 0.993175 0.408708 -0.248286
C40   C     C_3   0.466574 0.493710 0.412265 -0.231014
C41   C     C_R   0.349209 0.722896 0.984647 -0.172248
C42   C     C_R   0.354439 0.277654 0.993539 -0.171240
C43   C     C_R   0.841375 0.222287 0.985374 -0.133732
C44   C     C_R   0.842443 0.777402 0.990679 -0.135986
C45   C     C_R   0.784810 0.184263 0.987321 0.481871
C46   C     C_R   0.785721 0.815042 0.993290 0.481269
C47   C     C_R   0.303302 0.678000 0.987214 0.501573
C48   C     C_R   0.308340 0.322423 0.996299 0.501147
C49   C     C_R   0.717817 0.202119 0.003696 -0.168786
C50   C     C_R   0.715908 0.796452 0.004166 -0.168040
C51   C     C_R   0.230587 0.686351 0.998699 -0.173819
C52   C     C_R   0.230875 0.313781 0.998687 -0.174946
C53   C     C_R   0.705367 0.257219 0.016693 -0.179584
C54   C     C_R   0.701423 0.741061 0.012136 -0.176758
C55   C     C_R   0.201879 0.738956 0.005773 -0.201097
C56   C     C_R   0.198312 0.261068 0.997754 -0.196911
C57   C     C_R   0.248920 0.783641 0.004317 0.492675
C58   C     C_R   0.245140 0.216473 0.995427 0.482772
C59   C     C_R   0.759502 0.295465 0.009770 0.486154
C60   C     C_R   0.756377 0.703276 0.005531 0.476503
C61   C     C_R   0.322612 0.774722 0.994765 -0.015260
C62   C     C_R   0.323087 0.225625 0.994124 -0.012140
C63   C     C_R   0.828611 0.277084 0.996807 -0.061646
C64   C     C_R   0.827500 0.722335 0.996716 -0.059101
C65   C     C_R   0.600760 0.950750 0.629125 -0.203967
C66   C     C_R   0.600819 0.049045 0.629094 -0.198533
C67   C     C_R   0.891349 0.450833 0.463763 -0.207462
C68   C     C_R   0.891219 0.549292 0.463427 -0.209209
C69   C     C_R   0.573827 0.950141 0.522216 0.514581
C70   C     C_R   0.573673 0.049666 0.522108 0.513823
C71   C     C_R   0.884108 0.451035 0.366142 0.541723
C72   C     C_R   0.883855 0.548929 0.365671 0.542013
C73   C     C_R   0.567736 0.999913 0.469793 -0.133966
C74   C     C_R   0.902285 0.499947 0.332082 -0.120606
C75   C     C_R   0.550162 0.044701 0.304629 0.551262
C76   C     C_R   0.550292 0.955236 0.304667 0.551206
C77   C     C_R   0.989745 0.545450 0.259969 0.502321
C78   C     C_R   0.989638 0.454455 0.259763 0.502080
C79   C     C_R   0.599260 0.999904 0.674880 0.036700
C80   C     C_R   0.906757 0.500083 0.519594 0.001517
C81   C     C_R   0.232219 0.954358 0.751598 0.040347
C82   C     C_R   0.232487 0.046046 0.751207 0.019521
C83   C     C_R   0.731913 0.454251 0.750058 0.054113
C84   C     C_R   0.732147 0.546117 0.749814 0.030158
C85   C     C_R   0.372724 0.179831 0.996181 -0.163177
C86   C     C_R   0.371983 0.820520 0.996458 -0.164800
C87   C     C_R   0.886988 0.684052 0.995518 -0.144664
C88   C     C_R   0.887425 0.315862 0.995486 -0.147304
C89   C     C_R   0.548468 0.999944 0.359809 -0.174792
C90   C     C_R   0.954245 0.499937 0.281040 -0.163905
C91   C     C_R   0.176379 0.000376 0.718346 0.133907
C92   C     C_R   0.675968 0.500345 0.717390 0.136526
C93   C     C_R   0.520513 0.045257 0.753898 -0.034229
C94   C     C_R   0.520836 0.954668 0.754364 -0.031944
C95   C     C_R   0.953932 0.545340 0.697624 -0.067561
C96   C     C_R   0.953903 0.454739 0.697614 -0.064548
C97   C     C_R   0.762246 0.953822 0.292842 -0.060089
C98   C     C_R   0.761828 0.045913 0.293778 -0.075026
C99   C     C_R   0.255893 0.454110 0.301841 -0.106942
C100  C     C_R   0.255574 0.545589 0.302422 -0.116050
H1    H     H_    0.884299 0.961862 0.560423 0.264828
H2    H     H_    0.875398 0.061898 0.525235 0.256713
H3    H     H_    0.385619 0.460884 0.575558 0.260221
H4    H     H_    0.374770 0.561048 0.541527 0.245242
H5    H     H_    0.899572 0.912520 0.484392 0.166137
H6    H     H_    0.928493 0.089036 0.462100 0.175074
H7    H     H_    0.396015 0.412343 0.494318 0.162793
H8    H     H_    0.421387 0.589002 0.471752 0.176454
H9    H     H_    0.405230 0.717649 0.975009 0.190754
H10   H     H_    0.414294 0.283161 0.991167 0.189717
H11   H     H_    0.894306 0.209358 0.974051 0.205191
H12   H     H_    0.897371 0.790848 0.983272 0.204940
H13   H     H_    0.603115 0.912222 0.665961 0.180938
H14   H     H_    0.603244 0.087571 0.665932 0.182016
H15   H     H_    0.886669 0.412334 0.495686 0.183626
H16   H     H_    0.886540 0.587837 0.495191 0.183793
H17   H     H_    0.209625 0.912629 0.734440 0.179166
H18   H     H_    0.211236 0.087960 0.736198 0.175502
H19   H     H_    0.709704 0.412356 0.733782 0.177890
H20   H     H_    0.711094 0.588167 0.735464 0.174927
H21   H     H_    0.525512 0.087047 0.736769 0.111674
H22   H     H_    0.526533 0.912809 0.738235 0.110604
H23   H     H_    0.936948 0.587214 0.670421 0.129657
H24   H     H_    0.936890 0.412886 0.670429 0.129272
H25   H     H_    0.778995 0.911598 0.316360 0.131799
H26   H     H_    0.778161 0.088004 0.318962 0.142976
H27   H     H_    0.270087 0.411862 0.326705 0.131438
H28   H     H_    0.269523 0.587711 0.328400 0.139262
H29   H     H_    0.725198 0.148820 0.178882 0.127985
H30   H     H_    0.723316 0.849876 0.179008 0.126673
H31   H     H_    0.240528 0.635733 0.175859 0.132724
H32   H     H_    0.240278 0.363784 0.175756 0.130735
H33   H     H_    0.542346 0.840121 0.828503 0.141234
H34   H     H_    0.543883 0.159197 0.828468 0.141894
H35   H     H_    0.066493 0.363673 0.823393 0.137069
H36   H     H_    0.066257 0.636635 0.823367 0.137753
H37   H     H_    0.054457 0.912234 0.593300 0.111204
H38   H     H_    0.061599 0.090272 0.623870 0.132532
H39   H     H_    0.551629 0.412181 0.596560 0.111204
H40   H     H_    0.559508 0.590097 0.628787 0.130559
N1    N     N_R   0.392140 0.102630 0.941800 -0.125864
N2    N     N_R   0.392140 0.897370 0.941800 -0.126236
N3    N     N_R   0.892140 0.602630 0.941800 -0.119512
N4    N     N_R   0.892140 0.397370 0.941800 -0.120076
N5    N     N_R   0.450890 0.896450 0.057150 -0.122829
N6    N     N_R   0.450890 0.103550 0.057150 -0.122017
N7    N     N_R   0.950890 0.396450 0.057150 -0.120872
N8    N     N_R   0.950890 0.603550 0.057150 -0.120568
N9    N     N_R   0.525160 0.027960 0.206160 -0.131894
N10   N     N_R   0.525160 0.972040 0.206160 -0.132060
N11   N     N_R   0.025160 0.527960 0.206160 -0.123969
N12   N     N_R   0.025160 0.472040 0.206160 -0.124211
N13   N     N_R   0.317870 0.971120 0.792790 -0.052325
N14   N     N_R   0.317870 0.028880 0.792790 -0.051356
N15   N     N_R   0.817870 0.471120 0.792790 -0.058328
N16   N     N_R   0.817870 0.528880 0.792790 -0.057045
N17   N     N_R   0.473480 0.027920 0.793480 -0.046994
N18   N     N_R   0.473480 0.972080 0.793480 -0.046379
N19   N     N_R   0.973480 0.527920 0.793480 -0.055750
N20   N     N_R   0.973480 0.472080 0.793480 -0.055664
N21   N     N_R   0.681610 0.971120 0.207570 -0.050772
N22   N     N_R   0.681610 0.028880 0.207570 -0.050685
N23   N     N_R   0.181610 0.471120 0.207570 -0.050092
N24   N     N_R   0.181610 0.528880 0.207570 -0.050240
N25   N     N_R   0.605410 0.102620 0.056870 -0.061577
N26   N     N_R   0.605410 0.897380 0.056870 -0.062077
N27   N     N_R   0.105410 0.602620 0.056870 -0.060836
N28   N     N_R   0.105410 0.397380 0.056870 -0.061348
N29   N     N_R   0.549680 0.896430 0.944180 -0.063695
N30   N     N_R   0.549680 0.103570 0.944180 -0.064095
N31   N     N_R   0.049680 0.396430 0.944180 -0.067289
N32   N     N_R   0.049680 0.603570 0.944180 -0.067271
Ni1   Ni    Ni4+2 0.433410 0.064680 0.868830 0.313038
Ni2   Ni    Ni4+2 0.433410 0.935320 0.868830 0.311534
Ni3   Ni    Ni4+2 0.933410 0.564680 0.868830 0.294093
Ni4   Ni    Ni4+2 0.933410 0.435320 0.868830 0.292739
Ni5   Ni    Ni4+2 0.565650 0.934380 0.131170 0.297977
Ni6   Ni    Ni4+2 0.565650 0.065620 0.131170 0.297179
Ni7   Ni    Ni4+2 0.065650 0.434380 0.131170 0.302399
Ni8   Ni    Ni4+2 0.065650 0.565620 0.131170 0.301244
Cl1   Cl    Cl    0.304099 0.178658 0.777186 -0.574979
Cl2   Cl    Cl    0.302583 0.821613 0.777049 -0.585852
Cl3   Cl    Cl    0.811398 0.677477 0.775762 -0.579791
Cl4   Cl    Cl    0.810474 0.322853 0.775382 -0.589297
Cl5   Cl    Cl    0.045100 0.927615 0.742163 -0.441257
Cl6   Cl    Cl    0.018306 0.055904 0.733793 -0.431185
Cl7   Cl    Cl    0.550476 0.427089 0.751287 -0.441079
Cl8   Cl    Cl    0.524906 0.555356 0.746502 -0.428795
Cl9   Cl    Cl    0.158900 0.953323 0.515403 -0.544582
Cl10  Cl    Cl    0.127154 0.066967 0.505188 -0.555108
Cl11  Cl    Cl    0.648158 0.454116 0.509359 -0.578036
Cl12  Cl    Cl    0.616637 0.567621 0.501787 -0.575196
C101  C     C_1   0.963788 0.938078 0.359976 0.216413
N33   N     N_1   0.953362 0.895218 0.321812 -0.000410
C102  C     C_1   0.951952 0.031644 0.318578 0.296418
N34   N     N_1   0.932250 0.061546 0.248185 0.020630
C103  C     C_1   0.452182 0.438799 0.362422 0.210773
N35   N     N_1   0.440909 0.396075 0.323460 -0.008729
C104  C     C_1   0.438100 0.532383 0.321289 0.288402
N36   N     N_1   0.415768 0.562422 0.250214 0.003376
Cl13  Cl    Cl    0.799478 0.114764 0.969512 -0.562516
Cl14  Cl    Cl    0.803718 0.885002 0.983176 -0.561863
Cl15  Cl    Cl    0.337734 0.612270 0.975790 -0.508644
Cl16  Cl    Cl    0.348688 0.388374 0.996939 -0.510657
C105  C     C_1   0.638304 0.274442 0.038039 0.341624
N37   N     N_1   0.585349 0.288349 0.055930 -0.014891
C106  C     C_1   0.631734 0.723070 0.028557 0.339601
N38   N     N_1   0.576653 0.708508 0.042480 -0.014250
C107  C     C_1   0.123663 0.747332 0.012748 0.333630
N39   N     N_1   0.061177 0.754129 0.018060 -0.018750
C108  C     C_1   0.117128 0.252585 0.998875 0.331683
N40   N     N_1   0.052338 0.245793 0.999665 -0.021647
Cl17  Cl    Cl    0.215237 0.850673 0.013345 -0.500274
Cl18  Cl    Cl    0.206528 0.149295 0.994257 -0.517258
Cl19  Cl    Cl    0.738598 0.366035 0.013837 -0.506027
Cl20  Cl    Cl    0.734616 0.632502 0.005960 -0.524110
Cl21  Cl    Cl    0.499340 0.821268 0.220439 -0.471527
Cl22  Cl    Cl    0.499215 0.178802 0.220235 -0.476973
Cl23  Cl    Cl    0.044424 0.313368 0.202073 -0.524335
Cl24  Cl    Cl    0.043182 0.686435 0.202843 -0.528949
Cl25  Cl    Cl    0.516420 0.889418 0.450898 -0.449871
Cl26  Cl    Cl    0.515723 0.110315 0.450607 -0.452565
Cl27  Cl    Cl    0.839792 0.392327 0.283205 -0.466653
Cl28  Cl    Cl    0.839488 0.607512 0.282015 -0.468317
Cl29  Cl    Cl    0.642697 0.091797 0.375838 -0.544953
Cl30  Cl    Cl    0.643168 0.908257 0.375825 -0.543121
Cl31  Cl    Cl    0.043168 0.599729 0.353226 -0.486595
Cl32  Cl    Cl    0.042472 0.399713 0.352088 -0.485199

loop_
_geom_bond_atom_site_label_1
_geom_bond_atom_site_label_2
_ccdc_geom_bond_type
N15   Ni4   S    
C68   C80   A    
C38   C87   A    
C30   C32   S    
C13   C79   S    
N16   Ni3   S    
C58   C62   A    
N17   N18   A    
C65   C79   A    
C63   C88   S    
C37   C88   A    
C9    N29   A    
N23   N24   A    
C21   H37   S    
C6    H30   S    
C77   N11   A    
C6    N26   A    
N21   N22   A    
C53   C59   A    
C78   N12   A    
N2    Ni2   S    
C54   C60   A    
C105  N37   T    
C44   C64   A    
C11   N31   A    
C83   C92   A    
C21   C31   S    
C8    C20   A    
C95   N19   A    
C23   H39   S    
C93   H21   S    
C35   N5    A    
C35   C86   A    
C65   C69   A    
C97   H25   S    
C83   N15   A    
C40   C103  S    
C10   C17   A    
C95   H23   S    
C72   Cl28  S    
C81   H17   S    
N25   N30   A    
C81   N13   A    
N6    Ni6   S    
C2    Cl2   S    
C83   H19   S    
C57   C61   A    
C67   H15   S    
C7    N27   A    
C8    N28   A    
C16   C34   S    
N18   Ni2   S    
N28   N31   A    
N19   N20   A    
C8    H32   S    
C53   C105  S    
N11   N12   A    
N7    Ni7   S    
C69   C73   A    
C23   C27   S    
C41   C61   A    
C24   C28   S    
C42   C62   A    
C64   C87   S    
C51   C55   A    
N24   Ni8   S    
N32   Ni3   S    
C84   H20   S    
C76   C89   A    
C5    H29   S    
N27   Ni8   S    
C46   Cl14  S    
C28   C34   S    
C104  N36   T    
C94   N18   A    
C45   Cl13  S    
N19   Ni3   S    
N1    Ni1   S    
N25   Ni6   S    
N20   Ni4   S    
N2    N5    A    
C26   H6    S    
C43   H11   S    
C15   C97   A    
N4    N7    A    
C35   Cl21  S    
C14   C96   A    
C98   N22   A    
C44   C46   A    
C46   C50   A    
C27   C34   S    
C78   Cl32  S    
N3    N8    A    
C6    C18   A    
C62   C85   S    
C77   C90   A    
C71   Cl27  S    
C22   C31   S    
C96   H24   S    
C25   H5    S    
C106  N38   T    
C38   Cl24  S    
C75   Cl29  S    
C3    N3    A    
C27   H7    S    
C56   C108  S    
C12   N32   A    
C17   C49   S    
C1    Cl1   S    
C16   C100  A    
C99   H27   S    
C3    C87   A    
C11   C20   A    
C78   C90   A    
C82   C91   A    
C13   C93   A    
C81   C91   A    
C22   Cl6   S    
N29   Ni2   S    
C24   C32   S    
C59   Cl19  S    
C66   C79   A    
C11   H35   S    
C55   C107  S    
C39   C101  S    
C28   H4    S    
C26   C33   S    
C108  N40   T    
C76   N10   A    
C68   C72   A    
N4    Ni4   S    
C70   C73   A    
C107  N39   T    
C41   C47   A    
C47   Cl15  S    
C100  N24   A    
N26   Ni5   S    
C33   C39   S    
C30   Cl11  S    
C37   N7    A    
C93   N17   A    
C43   C45   A    
C38   N8    A    
C22   C26   S    
N1    N6    A    
C68   H16   S    
C76   Cl30  S    
C99   N23   A    
C58   Cl18  S    
C72   C74   A    
C96   N20   A    
C57   Cl17  S    
C3    Cl3   S    
C77   Cl31  S    
C42   C48   A    
C30   Cl12  S    
C14   C80   S    
N10   Ni5   S    
N23   Ni7   S    
C2    N2    A    
C29   Cl9   S    
C1    C85   A    
C65   H13   S    
C37   Cl23  S    
C15   C98   A    
C36   Cl22  S    
C24   H40   S    
C94   H22   S    
C14   C95   A    
C50   C54   A    
C18   C50   S    
N17   Ni1   S    
C12   H36   S    
C98   H26   S    
C36   N6    A    
C29   C39   S    
C21   C25   S    
N22   Ni6   S    
C66   H14   S    
N14   Ni1   S    
C100  H28   S    
C59   C63   A    
C67   C80   A    
C10   H34   S    
C31   C91   S    
C4    N4    A    
C71   C74   A    
C47   C51   A    
C16   C99   A    
C21   Cl5   S    
N27   N32   A    
C4    C88   A    
C40   C104  S    
C36   C85   A    
C10   N30   A    
N28   Ni7   S    
C20   C52   S    
N31   Ni4   S    
C48   Cl16  S    
C44   H12   S    
C7    C19   A    
C75   N9    A    
C24   Cl8   S    
C13   C94   A    
C60   C64   A    
C23   C32   S    
C74   C90   S    
N12   Ni7   S    
C55   C57   A    
C60   Cl20  S    
C73   C89   S    
C30   C40   S    
C29   C31   S    
N9    N10   A    
C26   H2    S    
C23   Cl7   S    
C84   N16   A    
C25   H1    S    
C22   H38   S    
C66   C70   A    
C39   C102  S    
C28   H8    S    
C49   C53   A    
N3    Ni3   S    
N13   Ni2   S    
C12   C19   A    
C27   H3    S    
N9    Ni6   S    
C70   Cl26  S    
C56   C58   A    
C45   C49   A    
C2    C86   A    
C67   C71   A    
C5    N25   A    
C42   H10   S    
C103  N35   T    
C4    Cl4   S    
C1    N1    A    
C61   C86   S    
C32   C92   S    
N11   Ni8   S    
C102  N34   T    
C82   N14   A    
C19   C51   S    
C9    C18   A    
C48   C52   A    
C5    C17   A    
N26   N29   A    
N8    Ni8   S    
C54   C106  S    
C43   C63   A    
C75   C89   A    
N5    Ni5   S    
N15   N16   A    
C82   H18   S    
C29   Cl10  S    
C34   C40   S    
C41   H9    S    
C84   C92   A    
C69   Cl25  S    
N13   N14   A    
N21   Ni5   S    
C15   C33   S    
C7    H31   S    
C52   C56   A    
C97   N21   A    
C25   C33   S    
C101  N33   T    
N30   Ni1   S    
C9    H33   S    
