data_mof_unit_53147.cif
_audit_creation_date              2012-12-10T20:12:29-0500
_audit_creation_method            fapswitch 2.2
_symmetry_space_group_name_H-M    P1
_symmetry_Int_Tables_number       1
_space_group_crystal_system       triclinic
_cell_length_a                    15.987756
_cell_length_b                    15.987884
_cell_length_c                    59.837324
_cell_angle_alpha                 89.643252
_cell_angle_beta                  89.644168
_cell_angle_gamma                 90.0094
_cell_volume                      15294.449875

loop_
_atom_site_label
_atom_site_type_symbol
_atom_type_description
_atom_site_fract_x
_atom_site_fract_y
_atom_site_fract_z
_atom_type_partial_charge
C1    C     C_R   0.499184 0.999635 0.810359 0.795408
C2    C     C_R   0.494619 0.850213 0.455641 0.023640
C3    C     C_1   0.223331 0.723556 0.749962 -0.154673
C4    C     C_1   0.276543 0.223457 0.250000 -0.154196
C5    C     C_1   0.723457 0.776543 0.750000 -0.153983
C6    C     C_1   0.223554 0.723333 0.249961 -0.154804
C7    C     C_1   0.776444 0.276669 0.750038 -0.154670
C8    C     C_R   0.473373 0.082882 0.582576 0.494694
C9    C     C_R   0.500822 0.922962 0.418579 0.481930
C10   C     C_R   0.928077 0.504193 0.583147 0.484944
C11   C     C_R   0.046165 0.452146 0.416623 0.491663
C12   C     C_R   0.547818 0.953757 0.583377 0.491659
C13   C     C_R   0.844727 0.488506 0.548405 0.021112
C14   C     C_R   0.495716 0.071892 0.416854 0.484955
C15   C     C_R   0.077011 0.499139 0.581419 0.481931
C16   C     C_R   0.917138 0.526763 0.417426 0.494674
C17   C     C_R   0.973330 0.583038 0.082571 0.494690
C18   C     C_R   0.000911 0.423040 0.918586 0.481943
C19   C     C_R   0.428025 0.004257 0.083149 0.484919
C20   C     C_R   0.546218 0.952263 0.916626 0.491665
C21   C     C_R   0.047889 0.453979 0.083380 0.491646
C22   C     C_R   0.995829 0.571971 0.916849 0.484942
C23   C     C_R   0.576964 0.999350 0.081422 0.481919
C24   C     C_R   0.122975 0.423913 0.451985 0.012521
C25   C     C_R   0.416975 0.026506 0.917421 0.494718
C26   C     C_R   0.430187 0.004401 0.629329 -0.119125
C27   C     C_R   0.422555 0.994908 0.370674 -0.120967
C28   C     C_R   0.005736 0.426017 0.629342 -0.128075
C29   C     C_R   0.973424 0.420021 0.369588 -0.106767
C30   C     C_R   0.580030 0.026460 0.630414 -0.106681
C31   C     C_R   0.573914 0.993362 0.370660 -0.128056
C32   C     C_R   0.005961 0.577384 0.629321 -0.121096
C33   C     C_R   0.995672 0.569836 0.370669 -0.119008
C34   C     C_R   0.930187 0.504489 0.129327 -0.119084
C35   C     C_R   0.576031 0.876951 0.548013 0.012513
C36   C     C_R   0.922637 0.493954 0.870681 -0.121101
C37   C     C_R   0.504791 0.926054 0.129336 -0.128077
C38   C     C_R   0.473598 0.919932 0.869585 -0.106616
C39   C     C_R   0.080009 0.526682 0.130417 -0.106709
C40   C     C_R   0.074004 0.494384 0.870657 -0.128096
C41   C     C_R   0.506807 0.077409 0.129328 -0.121166
C42   C     C_R   0.495428 0.069807 0.870671 -0.119226
C43   C     C_R   0.427873 0.998908 0.652641 -0.216541
C44   C     C_R   0.423035 0.996804 0.347270 -0.209034
C45   C     C_R   0.003840 0.425387 0.652737 -0.208660
C46   C     C_R   0.511411 0.155230 0.451597 0.021101
C47   C     C_R   0.979557 0.422067 0.346338 -0.213457
C48   C     C_R   0.577967 0.020338 0.653664 -0.213468
C49   C     C_R   0.574573 0.995287 0.347265 -0.208796
C50   C     C_R   0.004049 0.576933 0.652726 -0.209025
C51   C     C_R   0.001172 0.572133 0.347357 -0.216569
C52   C     C_R   0.927876 0.498938 0.152638 -0.216557
C53   C     C_R   0.923080 0.495858 0.847276 -0.209023
C54   C     C_R   0.502937 0.925407 0.152731 -0.208543
C55   C     C_R   0.479742 0.922004 0.846336 -0.213468
C56   C     C_R   0.077949 0.520497 0.153666 -0.213416
C57   C     C_R   0.149745 0.505344 0.544355 0.023710
C58   C     C_R   0.074625 0.496267 0.847262 -0.208653
C59   C     C_R   0.504890 0.076941 0.152733 -0.209014
C60   C     C_R   0.500948 0.072128 0.847360 -0.216517
C61   C     C_R   0.506331 0.017841 0.618111 0.318716
C62   C     C_R   0.497966 0.993315 0.382479 0.338957
C63   C     C_R   0.006667 0.501956 0.617520 0.339192
C64   C     C_R   0.982132 0.493714 0.381889 0.318640
C65   C     C_R   0.006320 0.518025 0.118111 0.318653
C66   C     C_R   0.998070 0.493356 0.882481 0.339201
C67   C     C_R   0.506609 0.001996 0.117520 0.339420
C68   C     C_R   0.846801 0.555849 0.453966 0.014327
C69   C     C_R   0.482089 0.993644 0.881889 0.318773
C70   C     C_R   0.510549 0.015439 0.547552 -0.080214
C71   C     C_R   0.502038 0.002787 0.453077 -0.076124
C72   C     C_R   0.997171 0.497905 0.546923 -0.076113
C73   C     C_R   0.984504 0.489434 0.452449 -0.080200
C74   C     C_R   0.010630 0.515636 0.047551 -0.080199
C75   C     C_R   0.002143 0.502908 0.953077 -0.076117
C76   C     C_R   0.497132 0.998076 0.046924 -0.076079
C77   C     C_R   0.484487 0.989495 0.952449 -0.080232
C78   C     C_R   0.475968 0.085096 0.558869 -0.059697
C79   C     C_R   0.944214 0.653334 0.046027 0.014309
C80   C     C_R   0.498548 0.924151 0.442263 -0.070700
C81   C     C_R   0.922374 0.496887 0.559646 -0.071545
C82   C     C_R   0.052296 0.454811 0.440186 -0.059046
C83   C     C_R   0.545153 0.947635 0.559814 -0.059049
C84   C     C_R   0.503034 0.077587 0.440355 -0.071510
C85   C     C_R   0.075812 0.501411 0.557735 -0.070676
C86   C     C_R   0.914871 0.524072 0.441132 -0.059665
C87   C     C_R   0.975999 0.585278 0.058864 -0.059689
C88   C     C_R   0.998640 0.424257 0.942270 -0.070651
C89   C     C_R   0.422330 0.996988 0.059646 -0.071532
C90   C     C_R   0.994715 0.350334 0.955654 0.023773
C91   C     C_R   0.552323 0.954935 0.940190 -0.059047
C92   C     C_R   0.045242 0.447845 0.059817 -0.059046
C93   C     C_R   0.003151 0.577694 0.940349 -0.071559
C94   C     C_R   0.575768 0.001646 0.057737 -0.070694
C95   C     C_R   0.414797 0.023992 0.941128 -0.059721
C96   C     C_R   0.396552 0.222301 0.556246 0.176340
C97   C     C_R   0.309340 0.215727 0.558516 -0.137881
C98   C     C_R   0.264987 0.274748 0.571004 -0.137823
C99   C     C_R   0.307628 0.339797 0.581462 -0.060304
C100  C     C_R   0.394156 0.347738 0.578784 -0.124445
C101  C     C_R   0.344690 0.988585 0.048403 0.021054
C102  C     C_R   0.438546 0.289974 0.565879 -0.113794
C103  C     C_R   0.466794 0.767510 0.447192 0.178630
C104  C     C_R   0.392670 0.760634 0.434762 -0.064355
C105  C     C_R   0.363196 0.682131 0.428315 -0.132760
C106  C     C_R   0.405846 0.609849 0.434813 -0.131438
C107  C     C_R   0.477508 0.615738 0.447880 -0.154216
C108  C     C_R   0.508303 0.694022 0.453906 -0.168124
C109  C     C_R   0.767973 0.458626 0.560030 0.183206
C110  C     C_R   0.770673 0.385084 0.573069 -0.077495
C111  C     C_R   0.700163 0.358725 0.585060 -0.117102
C112  C     C_R   0.500427 0.000262 0.189550 0.792318
C113  C     C_R   0.623022 0.924112 0.951995 0.012495
C114  C     C_R   0.626130 0.404643 0.583854 -0.119704
C115  C     C_R   0.621618 0.475311 0.570061 -0.160412
C116  C     C_R   0.692026 0.501949 0.557995 -0.168125
C117  C     C_R   0.193857 0.381053 0.440942 0.183444
C118  C     C_R   0.200808 0.293638 0.442284 -0.150658
C119  C     C_R   0.263555 0.252245 0.430301 -0.140060
C120  C     C_R   0.319196 0.297860 0.416871 -0.079890
C121  C     C_R   0.313920 0.385080 0.415949 -0.142013
C122  C     C_R   0.252128 0.426789 0.428190 -0.089164
C123  C     C_R   0.618908 0.806072 0.559053 0.183457
C124  C     C_R   0.076146 0.377164 0.048020 0.012516
C125  C     C_R   0.706323 0.799131 0.557706 -0.150758
C126  C     C_R   0.747730 0.736367 0.569680 -0.140047
C127  C     C_R   0.702129 0.680701 0.583106 -0.079911
C128  C     C_R   0.614910 0.685968 0.584033 -0.142051
C129  C     C_R   0.573187 0.747780 0.571802 -0.089081
C130  C     C_R   0.541258 0.231996 0.439972 0.183180
C131  C     C_R   0.614799 0.229331 0.426933 -0.077408
C132  C     C_R   0.641121 0.299853 0.414942 -0.117191
C133  C     C_R   0.595164 0.373862 0.416147 -0.119767
C134  C     C_R   0.524498 0.378340 0.429940 -0.160226
C135  C     C_R   0.011545 0.655351 0.951585 0.021132
C136  C     C_R   0.497897 0.307920 0.442007 -0.168098
C137  C     C_R   0.232452 0.533183 0.552799 0.178688
C138  C     C_R   0.239325 0.607294 0.565234 -0.064427
C139  C     C_R   0.317831 0.636789 0.571673 -0.132768
C140  C     C_R   0.390116 0.594183 0.565158 -0.131456
C141  C     C_R   0.384230 0.522547 0.552082 -0.154415
C142  C     C_R   0.305945 0.491712 0.546072 -0.168046
C143  C     C_R   0.777633 0.603449 0.443761 0.176283
C144  C     C_R   0.783991 0.690713 0.441601 -0.138293
C145  C     C_R   0.724983 0.735117 0.429121 -0.138106
C146  C     C_R   0.649702 0.005646 0.044360 0.023646
C147  C     C_R   0.660159 0.692481 0.418565 -0.060454
C148  C     C_R   0.652398 0.605898 0.421143 -0.124241
C149  C     C_R   0.710153 0.561444 0.434036 -0.113273
C150  C     C_R   0.896571 0.722479 0.056228 0.176347
C151  C     C_R   0.809327 0.716008 0.058422 -0.138121
C152  C     C_R   0.764902 0.775027 0.070892 -0.138001
C153  C     C_R   0.807500 0.839973 0.081406 -0.060461
C154  C     C_R   0.894064 0.847829 0.078799 -0.124420
C155  C     C_R   0.938534 0.790064 0.065913 -0.113462
C156  C     C_R   0.966866 0.267618 0.947217 0.178721
C157  C     C_R   0.346730 0.055785 0.953958 0.014357
C158  C     C_R   0.892761 0.260741 0.934779 -0.064483
C159  C     C_R   0.863229 0.182229 0.928359 -0.132822
C160  C     C_R   0.905785 0.109942 0.934897 -0.131545
C161  C     C_R   0.977411 0.115834 0.947976 -0.154513
C162  C     C_R   0.008297 0.194124 0.953964 -0.167952
C163  C     C_R   0.267922 0.958742 0.060027 0.183208
C164  C     C_R   0.270575 0.885191 0.073063 -0.077493
C165  C     C_R   0.200058 0.858892 0.085060 -0.117151
C166  C     C_R   0.126065 0.904879 0.083863 -0.119694
C167  C     C_R   0.121594 0.975552 0.070072 -0.160297
C168  C     C_R   0.501922 0.006172 0.665014 -0.013714
C169  C     C_R   0.192009 0.002131 0.057999 -0.168105
C170  C     C_R   0.693907 0.881223 0.940962 0.183448
C171  C     C_R   0.700831 0.793807 0.942310 -0.150771
C172  C     C_R   0.763608 0.752390 0.930344 -0.140035
C173  C     C_R   0.819306 0.797983 0.916925 -0.079991
C174  C     C_R   0.814053 0.885203 0.915997 -0.142063
C175  C     C_R   0.752224 0.926934 0.928219 -0.089022
C176  C     C_R   0.119017 0.306289 0.059064 0.183485
C177  C     C_R   0.206429 0.299324 0.057710 -0.150751
C178  C     C_R   0.247833 0.236551 0.069682 -0.140054
C179  C     C_R   0.499106 0.997359 0.335277 -0.016585
C180  C     C_R   0.202232 0.180899 0.083111 -0.079901
C181  C     C_R   0.115015 0.186191 0.084045 -0.142047
C182  C     C_R   0.073294 0.248011 0.071817 -0.089083
C183  C     C_R   0.041450 0.732086 0.939953 0.183218
C184  C     C_R   0.114974 0.729338 0.926908 -0.077553
C185  C     C_R   0.141362 0.799826 0.914913 -0.116999
C186  C     C_R   0.095494 0.873889 0.916121 -0.119667
C187  C     C_R   0.024848 0.878453 0.929920 -0.160602
C188  C     C_R   0.998179 0.808063 0.941990 -0.168170
C189  C     C_R   0.732395 0.033501 0.052811 0.178660
C190  C     C_R   0.002635 0.500875 0.664722 -0.016584
C191  C     C_R   0.739241 0.107603 0.065250 -0.064428
C192  C     C_R   0.817732 0.137080 0.071708 -0.132710
C193  C     C_R   0.890030 0.094461 0.065209 -0.131348
C194  C     C_R   0.884172 0.022834 0.052129 -0.154337
C195  C     C_R   0.805900 0.992028 0.046096 -0.168146
C196  C     C_R   0.277596 0.103397 0.943743 0.176347
C197  C     C_R   0.284317 0.190570 0.941393 -0.137678
C198  C     C_R   0.225296 0.234875 0.928892 -0.137602
C199  C     C_R   0.160105 0.192221 0.918500 -0.060092
C200  C     C_R   0.152037 0.105737 0.921254 -0.124567
C201  C     C_R   0.993820 0.498089 0.334986 -0.013706
C202  C     C_R   0.209797 0.061402 0.934174 -0.114154
C203  C     C_R   0.001918 0.506232 0.165014 -0.013716
C204  C     C_R   0.999741 0.499570 0.810451 0.792324
C205  C     C_R   0.999132 0.497369 0.835278 -0.016580
C206  C     C_R   0.502616 0.000885 0.164722 -0.016581
C207  C     C_R   0.493809 0.998069 0.834986 -0.013732
C208  C     C_R   0.996809 0.584350 0.987726 0.037926
C209  C     C_R   0.030759 0.438782 0.012651 0.041212
C210  C     C_R   0.414807 0.012470 0.988626 0.040438
C211  C     C_R   0.566904 0.983669 0.010632 0.036453
C212  C     C_R   0.016631 0.433192 0.989374 0.036459
C213  C     C_R   0.987667 0.585279 0.011367 0.040426
C214  C     C_R   0.561348 0.969518 0.987355 0.041202
C215  C     C_R   0.000363 0.500820 0.189641 0.795381
C216  C     C_R   0.415725 0.003354 0.012267 0.037942
C217  C     C_R   0.496695 0.084190 0.487733 0.037942
C218  C     C_R   0.530637 0.938596 0.512648 0.041207
C219  C     C_R   0.914844 0.512402 0.488629 0.040437
C220  C     C_R   0.066916 0.483430 0.510629 0.036456
C221  C     C_R   0.516514 0.933028 0.489370 0.036457
C222  C     C_R   0.487562 0.085101 0.511373 0.040445
C223  C     C_R   0.061341 0.469305 0.487351 0.041211
C224  C     C_R   0.915757 0.503252 0.512269 0.037931
C225  C     C_R   0.005211 0.506845 0.976731 0.072052
C226  C     C_R   0.999186 0.499638 0.310359 0.795384
C227  C     C_R   0.009920 0.513363 0.023855 0.074153
C228  C     C_R   0.486753 0.990264 0.976145 0.074136
C229  C     C_R   0.493225 0.995019 0.023270 0.072044
C230  C     C_R   0.505099 0.006696 0.476731 0.072048
C231  C     C_R   0.509814 0.013174 0.523856 0.074135
C232  C     C_R   0.986766 0.490146 0.476145 0.074152
C233  C     C_R   0.993253 0.494846 0.523269 0.072053
C234  C     C_R   0.002043 0.658173 0.974893 -0.272303
C235  C     C_R   0.066062 0.372491 0.024900 -0.277741
C236  C     C_R   0.345754 0.046053 0.977229 -0.276701
C237  C     C_R   0.000430 0.500260 0.689549 0.792323
C238  C     C_R   0.644171 0.991821 0.021309 -0.269950
C239  C     C_R   0.008546 0.355907 0.978704 -0.269934
C240  C     C_R   0.954008 0.654308 0.022757 -0.276702
C241  C     C_R   0.627679 0.934254 0.975114 -0.277734
C242  C     C_R   0.341891 0.998081 0.025095 -0.272320
C243  C     C_R   0.501921 0.158026 0.474905 -0.272340
C244  C     C_R   0.565931 0.872290 0.524893 -0.277732
C245  C     C_R   0.845819 0.546060 0.477236 -0.276720
C246  C     C_R   0.144193 0.491513 0.521305 -0.269940
C247  C     C_R   0.508441 0.855754 0.478692 -0.269960
C248  C     C_R   0.499738 0.999570 0.310450 0.792343
C249  C     C_R   0.453921 0.154131 0.522767 -0.276706
C250  C     C_R   0.127641 0.434003 0.475106 -0.277743
C251  C     C_R   0.841923 0.498015 0.525097 -0.272328
C252  C     C_R   0.660397 0.839603 0.750000 0.855850
C253  C     C_R   0.339603 0.160397 0.250000 0.855459
C254  C     C_R   0.160246 0.660431 0.749973 0.851735
C255  C     C_R   0.839753 0.339570 0.250027 0.851109
C256  C     C_R   0.339717 0.160283 0.750000 0.849239
C257  C     C_R   0.660283 0.839717 0.250000 0.848986
C258  C     C_R   0.839569 0.339755 0.750026 0.851723
C259  C     C_R   0.500363 0.000813 0.689641 0.795404
C260  C     C_R   0.160430 0.660246 0.249973 0.851101
C261  C     C_R   0.660246 0.160431 0.249973 0.851730
C262  C     C_R   0.339753 0.839570 0.750027 0.851121
C263  C     C_R   0.160397 0.339603 0.250000 0.855849
C264  C     C_R   0.839603 0.660397 0.750000 0.855465
C265  C     C_R   0.339569 0.839754 0.250026 0.851725
C266  C     C_R   0.660430 0.160246 0.749973 0.851113
C267  C     C_R   0.839717 0.660282 0.250000 0.849237
C268  C     C_R   0.160283 0.339717 0.750000 0.848985
C269  C     C_1   0.723554 0.223332 0.749961 -0.154804
C270  C     C_R   0.444166 0.153155 0.546037 0.014330
C271  C     C_1   0.276444 0.776669 0.250038 -0.154668
C272  C     C_1   0.776543 0.723457 0.750000 -0.154197
C273  C     C_1   0.223457 0.276543 0.250000 -0.153980
C274  C     C_1   0.276667 0.776446 0.750039 -0.154806
C275  C     C_1   0.723332 0.223556 0.249962 -0.154672
C276  C     C_1   0.223431 0.276569 0.750000 -0.151885
C277  C     C_1   0.776569 0.723431 0.250000 -0.151461
C278  C     C_1   0.723431 0.776569 0.250000 -0.151874
C279  C     C_1   0.276569 0.223431 0.750000 -0.151475
C280  C     C_1   0.776667 0.276446 0.250039 -0.154808
H1    H     H_    0.635957 0.026893 0.662744 0.168043
H2    H     H_    0.134222 0.497279 0.838569 0.166450
H3    H     H_    0.203044 0.803372 0.095468 0.131268
H4    H     H_    0.072284 0.885483 0.093616 0.131507
H5    H     H_    0.063974 0.010502 0.069022 0.122410
H6    H     H_    0.188008 0.057717 0.047624 0.133315
H7    H     H_    0.656553 0.757804 0.952201 0.127997
H8    H     H_    0.768374 0.684918 0.931219 0.141391
H9    H     H_    0.866983 0.765836 0.907378 0.190975
H10   H     H_    0.857363 0.920349 0.905620 0.133129
H11   H     H_    0.746901 0.994294 0.926953 0.116701
H12   H     H_    0.242440 0.343565 0.047810 0.128020
H13   H     H_    0.504829 0.136127 0.161430 0.166550
H14   H     H_    0.315303 0.231750 0.068802 0.141407
H15   H     H_    0.234370 0.133222 0.092662 0.190993
H16   H     H_    0.079862 0.142915 0.094431 0.133102
H17   H     H_    0.005934 0.253348 0.073082 0.116669
H18   H     H_    0.150741 0.672001 0.925650 0.111086
H19   H     H_    0.196865 0.796769 0.904501 0.131364
H20   H     H_    0.114973 0.927653 0.906373 0.131855
H21   H     H_    0.989996 0.936131 0.930981 0.122436
H22   H     H_    0.942619 0.812141 0.952373 0.133301
H23   H     H_    0.683894 0.142775 0.069822 0.118991
H24   H     H_    0.511564 0.131594 0.839056 0.166625
H25   H     H_    0.822564 0.193472 0.081532 0.129021
H26   H     H_    0.950627 0.117002 0.070188 0.115497
H27   H     H_    0.940202 0.990521 0.046784 0.130122
H28   H     H_    0.802711 0.935750 0.036148 0.131992
H29   H     H_    0.336587 0.223642 0.948641 0.124699
H30   H     H_    0.231038 0.301959 0.926877 0.138653
H31   H     H_    0.115409 0.226110 0.908442 0.190651
H32   H     H_    0.100937 0.073322 0.913319 0.129686
H33   H     H_    0.204273 0.994221 0.935892 0.126916
H34   H     H_    0.868435 0.488168 0.160941 0.166614
H35   H     H_    0.863880 0.496542 0.838585 0.166547
H36   H     H_    0.501310 0.865812 0.161418 0.166421
H37   H     H_    0.473284 0.864004 0.837255 0.168057
H38   H     H_    0.639120 0.036896 0.621901 0.142605
H39   H     H_    0.632516 0.992753 0.379634 0.127749
H40   H     H_    0.006064 0.636382 0.620338 0.129165
H41   H     H_    0.634183 0.995531 0.338575 0.166487
H42   H     H_    0.003028 0.627030 0.380054 0.140367
H43   H     H_    0.372986 0.997118 0.619943 0.140275
H44   H     H_    0.363555 0.995492 0.379654 0.129330
H45   H     H_    0.005652 0.367413 0.620370 0.127544
H46   H     H_    0.962911 0.360948 0.378102 0.142611
H47   H     H_    0.139091 0.537187 0.121907 0.142597
H48   H     H_    0.132611 0.494553 0.879629 0.127505
H49   H     H_    0.507604 0.136411 0.120349 0.129028
H50   H     H_    0.502613 0.127018 0.880058 0.140210
H51   H     H_    0.872995 0.497170 0.119939 0.140325
H52   H     H_    0.003281 0.636130 0.661417 0.166559
H53   H     H_    0.863642 0.493775 0.879665 0.129147
H54   H     H_    0.504005 0.867472 0.120357 0.127383
H55   H     H_    0.463243 0.860827 0.878098 0.142596
H56   H     H_    0.007138 0.718152 0.983062 0.143808
H57   H     H_    0.089706 0.317528 0.016475 0.143592
H58   H     H_    0.292642 0.070453 0.986414 0.143207
H59   H     H_    0.700757 0.995728 0.011352 0.145713
H60   H     H_    0.004675 0.299336 0.988667 0.145694
H61   H     H_    0.929603 0.707404 0.013566 0.143231
H62   H     H_    0.682655 0.910669 0.983543 0.143596
H63   H     H_    0.011945 0.631567 0.339050 0.166629
H64   H     H_    0.281921 0.992963 0.016921 0.143816
H65   H     H_    0.507012 0.217998 0.483078 0.143818
H66   H     H_    0.589563 0.817328 0.516466 0.143578
H67   H     H_    0.792715 0.570460 0.486424 0.143221
H68   H     H_    0.200776 0.495378 0.511346 0.145699
H69   H     H_    0.504580 0.799163 0.488647 0.145709
H70   H     H_    0.429505 0.207232 0.513580 0.143216
H71   H     H_    0.182601 0.410365 0.483532 0.143585
H72   H     H_    0.781950 0.492927 0.516925 0.143816
H73   H     H_    0.276265 0.163567 0.551213 0.124783
H74   H     H_    0.368423 0.988213 0.660946 0.166622
H75   H     H_    0.197870 0.269117 0.572956 0.138688
H76   H     H_    0.273696 0.384488 0.591510 0.190741
H77   H     H_    0.426559 0.398736 0.586767 0.129679
H78   H     H_    0.505757 0.295388 0.564224 0.126809
H79   H     H_    0.357472 0.815966 0.430193 0.119101
H80   H     H_    0.306780 0.677274 0.418502 0.129057
H81   H     H_    0.383296 0.549245 0.429845 0.115502
H82   H     H_    0.509849 0.559721 0.453222 0.130156
H83   H     H_    0.564598 0.697236 0.463847 0.131991
H84   H     H_    0.827990 0.349283 0.574326 0.111098
H85   H     H_    0.363849 0.998265 0.338577 0.166593
H86   H     H_    0.703182 0.303208 0.595468 0.131325
H87   H     H_    0.572351 0.385195 0.593600 0.131631
H88   H     H_    0.563968 0.510209 0.569004 0.122429
H89   H     H_    0.687989 0.557527 0.547618 0.133313
H90   H     H_    0.156568 0.257615 0.452181 0.127996
H91   H     H_    0.268342 0.184773 0.431171 0.141363
H92   H     H_    0.366850 0.265732 0.407310 0.190921
H93   H     H_    0.357187 0.420243 0.405563 0.133068
H94   H     H_    0.246802 0.494152 0.426932 0.116648
H95   H     H_    0.742334 0.843386 0.547810 0.128001
H96   H     H_    0.002906 0.365787 0.661429 0.166460
H97   H     H_    0.815202 0.731585 0.568805 0.141393
H98   H     H_    0.734269 0.633033 0.592659 0.190981
H99   H     H_    0.579758 0.642681 0.594415 0.133108
H100  H     H_    0.505827 0.753107 0.573065 0.116677
H101  H     H_    0.650627 0.172031 0.425676 0.111156
H102  H     H_    0.696636 0.296862 0.404533 0.131301
H103  H     H_    0.614575 0.427646 0.406398 0.131376
H104  H     H_    0.489570 0.435968 0.430995 0.122440
H105  H     H_    0.442317 0.311928 0.452383 0.133321
H106  H     H_    0.183988 0.642467 0.569814 0.119059
H107  H     H_    0.972932 0.364083 0.337259 0.168025
H108  H     H_    0.322684 0.693191 0.581493 0.129050
H109  H     H_    0.450725 0.616739 0.570120 0.115532
H110  H     H_    0.440253 0.490246 0.546725 0.130117
H111  H     H_    0.302737 0.435423 0.536129 0.131948
H112  H     H_    0.835979 0.723802 0.448984 0.124916
H113  H     H_    0.730449 0.802279 0.427253 0.138745
H114  H     H_    0.615487 0.726461 0.408521 0.190842
H115  H     H_    0.601554 0.573504 0.413089 0.129607
H116  H     H_    0.704905 0.494196 0.435609 0.126705
H117  H     H_    0.776272 0.663932 0.051072 0.124866
H118  H     H_    0.135933 0.527082 0.162748 0.168025
H119  H     H_    0.697755 0.769475 0.072786 0.138771
H120  H     H_    0.773505 0.884658 0.091441 0.190859
H121  H     H_    0.926433 0.898756 0.086823 0.129677
H122  H     H_    0.005768 0.795398 0.064314 0.126775
H123  H     H_    0.857615 0.316079 0.930186 0.119076
H124  H     H_    0.806833 0.177371 0.918536 0.129070
H125  H     H_    0.883201 0.049327 0.929950 0.115574
H126  H     H_    0.009669 0.059809 0.953350 0.130100
H127  H     H_    0.064586 0.197335 0.963907 0.131899
H128  H     H_    0.327865 0.849344 0.074315 0.111046
N1    N     N_R   0.509433 0.018484 0.594066 -0.350371
N2    N     N_R   0.497653 0.995898 0.406556 -0.345464
N3    N     N_R   0.004077 0.502283 0.593443 -0.345479
N4    N     N_R   0.981486 0.490617 0.405934 -0.350370
N5    N     N_R   0.009437 0.518674 0.094066 -0.350369
N6    N     N_R   0.997747 0.495963 0.906558 -0.345488
N7    N     N_R   0.504024 0.002388 0.093444 -0.345476
N8    N     N_R   0.481435 0.990542 0.905934 -0.350369
O1    O     O_3   0.500000 0.000000 0.750000 -0.480836
O2    O     O_R   0.500000 0.069020 0.200420 -0.644652
O3    O     O_R   0.069020 0.500000 0.799580 -0.643064
O4    O     O_R   0.930980 0.500000 0.200420 -0.643078
O5    O     O_R   0.000000 0.569020 0.299580 -0.643085
O6    O     O_R   0.000000 0.430980 0.700420 -0.643058
O7    O     O_R   0.430980 0.000000 0.299580 -0.644678
O8    O     O_R   0.569020 0.000000 0.700420 -0.646166
O9    O     O_R   1.000000 0.430980 0.299580 -0.646155
O10   O     O_R   0.000000 0.569020 0.700420 -0.644656
O11   O     O_R   0.569020 0.000000 0.299580 -0.643046
O12   O     O_3   0.500000 0.000000 0.250000 -0.480309
O13   O     O_R   0.430980 0.000000 0.700420 -0.643092
O14   O     O_R   0.597490 0.833170 0.762730 -0.636017
O15   O     O_R   0.402510 0.166830 0.237270 -0.636442
O16   O     O_R   0.166830 0.597490 0.762730 -0.635903
O17   O     O_R   0.833170 0.402510 0.237270 -0.636033
O18   O     O_R   0.402510 0.166830 0.762730 -0.635941
O19   O     O_R   0.597490 0.833170 0.237270 -0.636309
O20   O     O_R   0.833170 0.402510 0.762730 -0.637728
O21   O     O_R   0.166830 0.597490 0.237270 -0.638367
O22   O     O_R   0.597490 0.166830 0.237270 -0.637764
O23   O     O_3   0.000000 0.500000 0.750000 -0.480305
O24   O     O_R   0.402510 0.833170 0.762730 -0.638354
O25   O     O_R   0.166830 0.402510 0.237270 -0.635994
O26   O     O_R   0.833170 0.597490 0.762730 -0.636483
O27   O     O_R   0.402510 0.833170 0.237270 -0.635939
O28   O     O_R   0.597490 0.166830 0.762730 -0.636023
O29   O     O_R   0.833170 0.597490 0.237270 -0.635924
O30   O     O_R   0.166830 0.402510 0.762730 -0.636362
O31   O     O_R   0.097490 0.333170 0.262730 -0.636015
O32   O     O_R   0.902510 0.666830 0.737270 -0.636489
O33   O     O_R   0.666830 0.097490 0.262730 -0.635856
O34   O     O_3   0.000000 0.500000 0.250000 -0.480842
O35   O     O_R   0.333170 0.902510 0.737270 -0.636027
O36   O     O_R   0.902510 0.666830 0.262730 -0.635936
O37   O     O_R   0.097490 0.333170 0.737270 -0.636357
O38   O     O_R   0.333170 0.902510 0.262730 -0.637679
O39   O     O_R   0.666830 0.097490 0.737270 -0.638355
O40   O     O_R   0.097490 0.666830 0.737270 -0.637721
O41   O     O_R   0.902510 0.333170 0.262730 -0.638350
O42   O     O_R   0.666830 0.902510 0.737270 -0.636008
O43   O     O_R   0.333170 0.097490 0.262730 -0.636533
O44   O     O_R   0.902510 0.333170 0.737270 -0.635896
O45   O     O_R   0.500000 0.069020 0.799580 -0.643093
O46   O     O_R   0.097490 0.666830 0.262730 -0.636018
O47   O     O_R   0.333170 0.097490 0.737270 -0.635933
O48   O     O_R   0.666830 0.902510 0.262730 -0.636402
O49   O     O_2   0.436467 0.144586 0.594279 -0.557553
O50   O     O_2   0.508210 0.850082 0.407563 -0.590989
O51   O     O_2   0.858579 0.514874 0.595693 -0.577585
O52   O     O_2   0.104198 0.412224 0.404234 -0.558082
O53   O     O_2   0.587658 0.895668 0.595767 -0.558108
O54   O     O_2   0.485019 0.141394 0.404311 -0.577662
O55   O     O_2   0.149895 0.491749 0.592434 -0.590921
O56   O     O_R   0.500000 0.930980 0.200420 -0.643051
O57   O     O_2   0.855547 0.563866 0.405724 -0.557588
O58   O     O_2   0.936295 0.644676 0.094270 -0.557557
O59   O     O_2   0.008322 0.350148 0.907576 -0.590937
O60   O     O_2   0.358523 0.014884 0.095696 -0.577508
O61   O     O_2   0.604381 0.912522 0.904238 -0.558129
O62   O     O_2   0.087778 0.395929 0.095772 -0.558087
O63   O     O_2   0.985123 0.641458 0.904300 -0.577535
O64   O     O_2   0.649850 0.992017 0.092438 -0.590867
O65   O     O_2   0.355168 0.063221 0.905714 -0.557548
O66   O     O_R   0.930980 0.500000 0.799580 -0.644648
O67   O     O_R   0.069020 0.500000 0.200420 -0.646152
O68   O     O_R   0.500000 0.930980 0.799580 -0.646176
Zn1   Zn    Zn3+2 0.599000 0.000000 0.730930 0.979984
Zn2   Zn    Zn3+2 0.901000 0.500000 0.769070 0.980735
Zn3   Zn    Zn3+2 0.500000 0.099000 0.230930 0.980738
Zn4   Zn    Zn3+2 0.500000 0.901000 0.769070 0.979978
Zn5   Zn    Zn3+2 0.901000 0.500000 0.230930 0.979950
Zn6   Zn    Zn3+2 0.099000 0.500000 0.769070 0.979921
Zn7   Zn    Zn3+2 0.500000 0.901000 0.230930 0.979940
Zn8   Zn    Zn3+2 0.500000 0.099000 0.769070 0.979935
Zn9   Zn    Zn3+2 0.401000 0.000000 0.269070 0.980722
Zn10  Zn    Zn3+2 0.000000 0.599000 0.730930 0.980737
Zn11  Zn    Zn3+2 0.000000 0.401000 0.269070 0.979983
Zn12  Zn    Zn3+2 0.401000 0.000000 0.730930 0.979944
Zn13  Zn    Zn3+2 0.599000 0.000000 0.269070 0.979931
Zn14  Zn    Zn3+2 0.000000 0.401000 0.730930 0.979927
Zn15  Zn    Zn3+2 0.000000 0.599000 0.269070 0.979942
Zn16  Zn    Zn3+2 0.099000 0.500000 0.230930 0.979988

loop_
_geom_bond_atom_site_label_1
_geom_bond_atom_site_label_2
_ccdc_geom_bond_type
C126  C127  A    
C18   N6    A    
C96   C102  A    
C181  H16   S    
C219  C232  A    
C25   N8    A    
C79   C87   A    
C114  C115  A    
C41   C67   A    
C43   C168  A    
O35   Zn12  S    
C176  C182  A    
C75   C93   A    
O34   Zn16  S    
C79   C240  A    
C203  C215  S    
O23   Zn10  S    
C234  H56   S    
C36   C66   A    
C106  C107  A    
C244  H66   S    
C143  C144  A    
C255  O17   A    
C217  C222  A    
C68   C143  S    
C74   C92   A    
C257  O48   A    
C110  C111  A    
C71   C80   A    
C36   C53   A    
C40   H48   S    
C224  C251  A    
C76   C94   A    
O16   Zn6   S    
C38   C55   A    
C118  H90   S    
C236  H58   S    
C268  O37   A    
C138  H106  S    
O34   Zn11  S    
C194  H27   S    
C15   C85   A    
C19   N7    A    
C29   C64   A    
C199  C200  A    
C216  C242  A    
C192  H25   S    
C39   C65   A    
C182  H17   S    
C190  C237  S    
C119  H91   S    
C46   C243  A    
C60   H24   S    
C55   H37   S    
C44   C179  A    
C104  C105  A    
O12   Zn3   S    
C215  O4    A    
C140  H109  S    
C112  O56   A    
C140  C141  A    
C262  C274  S    
C108  H83   S    
C40   C58   A    
C41   H49   S    
C191  C192  A    
C199  H31   S    
C10   O51   S    
C101  C163  S    
C267  O36   A    
C200  H32   S    
O19   Zn7   S    
C56   C203  A    
C116  H89   S    
C144  C145  A    
O17   Zn5   S    
C221  C247  A    
C58   C205  A    
C267  O29   A    
C224  C233  A    
C209  C235  A    
O1    Zn4   S    
C178  C180  A    
C39   C56   A    
C43   H74   S    
C20   O61   S    
C53   H35   S    
C258  O44   A    
C154  C155  A    
C155  H122  S    
C46   C84   A    
C212  C225  A    
C59   C206  A    
C110  H84   S    
C25   C95   A    
C180  H15   S    
C158  C159  A    
O6    Zn14  S    
C38   H55   S    
C105  H80   S    
C1    O45   A    
C223  C232  A    
C14   O54   S    
C3    C274  T    
O12   Zn7   S    
C77   C91   A    
C104  H79   S    
C89   C101  A    
C17   C87   A    
C210  C228  A    
C249  C270  A    
C198  H30   S    
O45   Zn8   S    
C248  O7    A    
C196  C197  A    
C187  H21   S    
C139  C140  A    
C60   C207  A    
C260  O46   A    
C113  C170  S    
C268  O30   A    
C202  H33   S    
C56   H118  S    
C52   C203  A    
C156  C158  A    
C275  C280  T    
C161  C162  A    
C183  C188  A    
O1    Zn8   S    
C12   O53   S    
C18   O59   S    
C57   C85   A    
C130  C131  A    
C161  H126  S    
O39   Zn1   S    
C115  H88   S    
C125  H95   S    
C212  C239  A    
C21   O62   S    
C28   C63   A    
O22   Zn3   S    
C143  C149  A    
C77   C228  A    
C65   N5    S    
C98   C99   A    
C30   C61   A    
C51   H63   S    
C22   N6    A    
C186  C187  A    
O27   Zn7   S    
C49   C179  A    
C21   C92   A    
C137  C142  A    
C208  C213  A    
C256  O47   A    
C147  C148  A    
C135  C183  S    
C162  H127  S    
C128  C129  A    
C72   C85   A    
C129  H100  S    
C16   O57   S    
C167  C169  A    
O20   Zn2   S    
C11   N4    A    
C29   C47   A    
C4    C273  T    
C30   C48   A    
C168  C259  S    
C9    N2    A    
C30   H38   S    
C172  H8    S    
C170  C171  A    
C204  O66   A    
C8    O49   S    
C184  C185  A    
C29   H46   S    
C189  C191  A    
C70   C231  A    
C13   C109  S    
C184  H18   S    
C219  C224  A    
C27   C44   A    
C259  O13   A    
C146  C238  A    
C252  O42   A    
C61   N1    S    
C221  C230  A    
C154  H121  S    
C97   H73   S    
C249  H70   S    
O30   Zn6   S    
C218  C244  A    
C74   C87   A    
O2    Zn3   S    
O28   Zn8   S    
C122  H94   S    
C76   C89   A    
O12   Zn9   S    
O10   Zn10  S    
C277  C278  T    
C255  O41   A    
C5    C252  S    
C241  H62   S    
C163  C169  A    
C159  H124  S    
C259  O8    A    
O41   Zn11  S    
C11   C82   A    
O31   Zn11  S    
C13   C251  A    
C256  O18   A    
C253  O15   A    
C220  C233  A    
C75   C225  A    
C254  O16   A    
C237  O10   A    
C152  H119  S    
C54   C206  A    
C18   C88   A    
C262  O24   A    
C117  C122  A    
C27   C62   A    
C217  C230  A    
O32   Zn10  S    
C28   H45   S    
C12   N1    A    
C268  C276  S    
C121  H93   S    
C216  C229  A    
C135  C234  A    
C57   C137  S    
C54   H36   S    
C101  C242  A    
C49   H41   S    
C147  H114  S    
O1    Zn1   S    
C223  C250  A    
C200  C202  A    
O12   Zn13  S    
C193  C194  A    
C210  C236  A    
C150  C155  A    
C90   C156  S    
C261  O22   A    
C76   C229  A    
C69   N8    S    
C265  O38   A    
C77   C95   A    
C218  C221  A    
C251  H72   S    
C102  H78   S    
C5    C272  T    
C27   H44   S    
O4    Zn5   S    
C95   C157  A    
C57   C246  A    
C93   C135  A    
C266  C269  S    
C46   C130  S    
C48   H1    S    
C124  C176  S    
C139  H108  S    
C55   C207  A    
C34   H51   S    
C175  H11   S    
C133  H103  S    
C35   C123  S    
C158  H123  S    
C117  C118  A    
O18   Zn8   S    
C257  O19   A    
C37   C67   A    
C148  H115  S    
C245  H67   S    
C197  C198  A    
C38   C69   A    
C51   C201  A    
C45   C190  A    
C211  C214  A    
C152  C153  A    
C150  C151  A    
C48   C168  A    
C220  C223  A    
C160  H125  S    
C62   N2    S    
C94   C146  A    
C50   H52   S    
C255  C280  S    
C256  C279  S    
C99   H76   S    
C31   C62   A    
C14   C84   A    
C213  C240  A    
C179  C248  S    
O13   Zn12  S    
C134  H104  S    
O1    Zn12  S    
C181  C182  A    
C120  C121  A    
C24   C117  S    
C52   H34   S    
C90   C239  A    
C45   H96   S    
C164  C165  A    
C26   C61   A    
C171  H7    S    
C195  H28   S    
C92   C124  A    
C123  C125  A    
C128  H99   S    
C13   C81   A    
C66   N6    S    
C209  C212  A    
C72   C233  A    
C6    C260  S    
C109  C116  A    
C21   N5    A    
C107  H82   S    
O46   Zn15  S    
C114  H87   S    
C263  C273  S    
C151  C152  A    
C146  C189  S    
C235  H57   S    
O23   Zn14  S    
C132  H102  S    
C260  O21   A    
C112  O2    A    
C22   O63   S    
C64   N4    S    
C72   C81   A    
O21   Zn16  S    
C194  C195  A    
C6    C271  T    
C63   N3    S    
C264  C272  S    
C40   C66   A    
C16   C86   A    
C31   C49   A    
C25   O65   S    
C145  C147  A    
C97   C98   A    
O25   Zn16  S    
C170  C175  A    
C201  C226  S    
C20   C91   A    
O37   Zn14  S    
O34   Zn15  S    
O36   Zn15  S    
O15   Zn3   S    
O48   Zn13  S    
C254  O40   A    
O67   Zn16  S    
C35   C83   A    
C67   N7    S    
C265  O27   A    
O66   Zn2   S    
C169  H6    S    
C12   C83   A    
C213  C227  A    
O38   Zn9   S    
C242  H64   S    
C188  H22   S    
C189  C195  A    
C159  C160  A    
C276  C279  T    
C211  C238  A    
C23   O64   S    
C70   C83   A    
O23   Zn2   S    
O24   Zn4   S    
C121  C122  A    
O47   Zn12  S    
C79   C150  S    
O26   Zn2   S    
C88   C90   A    
C250  H71   S    
C246  H68   S    
C125  C126  A    
C226  O5    A    
C237  O6    A    
C131  C132  A    
C73   C82   A    
C180  C181  A    
C137  C138  A    
C136  H105  S    
C173  H9    S    
C145  H113  S    
C211  C229  A    
O33   Zn13  S    
C263  O25   A    
C253  O43   A    
O44   Zn14  S    
C119  C120  A    
C157  C236  A    
C68   C245  A    
C33   C51   A    
C58   H2    S    
C105  C106  A    
C10   C81   A    
C34   C52   A    
C265  C271  S    
C3    C254  S    
C112  C206  S    
C187  C188  A    
O3    Zn6   S    
C109  C110  A    
C167  H5    S    
C185  C186  A    
C2    C103  S    
C264  O32   A    
C210  C216  A    
C24   C250  A    
C33   H42   S    
C111  C114  A    
C78   C270  A    
C50   C190  A    
O43   Zn9   S    
C138  C139  A    
O23   Zn6   S    
O7    Zn9   S    
C15   O55   S    
C177  C178  A    
C103  C104  A    
O56   Zn7   S    
C7    C258  S    
C209  C227  A    
C226  O9    A    
O14   Zn4   S    
C115  C116  A    
C47   H107  S    
C262  O35   A    
C171  C172  A    
C131  H101  S    
C165  C166  A    
C11   O52   S    
C70   C78   A    
C157  C196  S    
C68   C86   A    
C165  H3    S    
C163  C164  A    
C166  H4    S    
C9    O50   S    
C2    C247  A    
C266  O39   A    
C173  C174  A    
C8    N1    A    
O68   Zn4   S    
C214  C241  A    
C1    O68   A    
C111  H86   S    
C96   C270  S    
C17   N5    A    
C47   C201  A    
C24   C82   A    
C118  C119  A    
C164  H128  S    
O8    Zn1   S    
C174  C175  A    
C124  C235  A    
C132  C133  A    
C10   N3    A    
C178  H14   S    
C266  O28   A    
C219  C245  A    
C103  C108  A    
O5    Zn15  S    
C106  H81   S    
O29   Zn5   S    
C37   H54   S    
C156  C162  A    
C35   C244  A    
C123  C129  A    
C8    C78   A    
C263  O31   A    
C258  O20   A    
C4    C253  S    
C126  H97   S    
C34   C65   A    
C100  H77   S    
C26   C43   A    
C215  O67   A    
C73   C86   A    
C28   C45   A    
C153  H120  S    
C192  C193  A    
C144  H112  S    
C238  H59   S    
C7    C269  T    
C252  O14   A    
C148  C149  A    
C41   C59   A    
C98   H75   S    
C20   N8    A    
C42   C60   A    
C39   H47   S    
C243  H65   S    
C134  C136  A    
C19   O60   S    
C204  O3    A    
C264  O26   A    
C267  C277  S    
C42   C69   A    
C17   O58   S    
C91   C113  A    
C197  H29   S    
C185  H19   S    
C9    C80   A    
C186  H20   S    
C217  C243  A    
C248  O11   A    
C74   C227  A    
C19   C89   A    
C208  C225  A    
C53   C205  A    
C99   C100  A    
C59   H13   S    
C107  C108  A    
C127  H98   S    
C96   C97   A    
C100  C102  A    
C240  H61   S    
C204  C205  S    
C32   C50   A    
C198  C199  A    
C37   C54   A    
C176  C177  A    
C222  C231  A    
C113  C241  A    
C36   H53   S    
O42   Zn1   S    
C174  H10   S    
C166  C167  A    
C22   C93   A    
C193  H26   S    
C26   H43   S    
O34   Zn5   S    
C196  C202  A    
C208  C234  A    
C247  H69   S    
C214  C228  A    
C172  C173  A    
C261  O33   A    
C71   C84   A    
C220  C246  A    
C239  H60   S    
C151  H117  S    
C177  H12   S    
C149  H116  S    
C130  C136  A    
C32   C63   A    
C23   N7    A    
C16   N4    A    
C191  H23   S    
C261  C275  S    
C141  H110  S    
C15   N3    A    
C23   C94   A    
C44   H85   S    
C141  C142  A    
C14   N2    A    
C183  C184  A    
C133  C134  A    
C33   C64   A    
C71   C230  A    
C1    C207  S    
C160  C161  A    
O40   Zn10  S    
C218  C231  A    
C42   H50   S    
C2    C80   A    
C142  H111  S    
C222  C249  A    
C31   H39   S    
C75   C88   A    
C257  C278  S    
C32   H40   S    
O9    Zn11  S    
C120  H92   S    
C153  C154  A    
C73   C232  A    
O11   Zn13  S    
C127  C128  A    
