data_mof_unit_39779.cif
_audit_creation_date              2013-03-05T16:15:41-0500
_audit_creation_method            fapswitch 2.2
_symmetry_space_group_name_H-M    P1
_symmetry_Int_Tables_number       1
_space_group_crystal_system       triclinic
_cell_length_a                    34.441893
_cell_length_b                    24.372897
_cell_length_c                    24.355849
_cell_angle_alpha                 89.987336
_cell_angle_beta                  90.02189
_cell_angle_gamma                 90.080076
_cell_volume                      20445.4640812

loop_
_atom_site_label
_atom_site_type_symbol
_atom_site_description
_atom_site_fract_x
_atom_site_fract_y
_atom_site_fract_z
_atom_type_partial_charge
Zn1   Zn    Zn3+2 0.782760 0.500000 0.564970 0.953045
Zn2   Zn    Zn3+2 0.217240 0.500000 0.435030 0.968117
Zn3   Zn    Zn3+2 0.782760 0.500000 0.435030 0.958406
Zn4   Zn    Zn3+2 0.217240 0.500000 0.564970 0.968918
Zn5   Zn    Zn3+2 0.282760 1.000000 0.064970 0.954904
Zn6   Zn    Zn3+2 0.717240 1.000000 0.935030 0.965607
Zn7   Zn    Zn3+2 0.282760 1.000000 0.935030 0.959815
Zn8   Zn    Zn3+2 0.717240 1.000000 0.064970 0.963144
Zn9   Zn    Zn3+2 0.717260 0.564980 0.500000 0.969410
Zn10  Zn    Zn3+2 0.282740 0.435020 0.500000 0.959474
Zn11  Zn    Zn3+2 0.717260 0.435020 0.500000 0.965862
Zn12  Zn    Zn3+2 0.282740 0.564980 0.500000 0.968743
Zn13  Zn    Zn3+2 0.217260 0.064980 0.000000 0.966838
Zn14  Zn    Zn3+2 0.782740 0.935020 0.000000 0.966902
Zn15  Zn    Zn3+2 0.217260 0.935020 0.000000 0.973183
Zn16  Zn    Zn3+2 0.782740 0.064980 0.000000 0.964561
O1    O     O_3   0.750010 0.500000 0.500000 -0.486678
O2    O     O_3   0.249990 0.500000 0.500000 -0.489551
O3    O     O_3   0.250010 0.000000 0.000000 -0.484747
O4    O     O_3   0.749990 0.000000 0.000000 -0.492458
O5    O     O_R   0.772930 0.563990 0.390540 -0.655184
O6    O     O_R   0.227070 0.436010 0.609460 -0.642618
O7    O     O_R   0.772930 0.436010 0.609460 -0.659826
O8    O     O_R   0.227070 0.563990 0.390540 -0.642038
O9    O     O_R   0.227070 0.436010 0.390540 -0.646057
O10   O     O_R   0.772930 0.563990 0.609460 -0.644379
O11   O     O_R   0.227070 0.563990 0.609460 -0.649330
O12   O     O_R   0.772930 0.436010 0.390540 -0.646393
O13   O     O_R   0.272930 0.063990 0.890540 -0.649507
O14   O     O_R   0.727070 0.936010 0.109460 -0.637322
O15   O     O_R   0.272930 0.936010 0.109460 -0.659871
O16   O     O_R   0.727070 0.063990 0.890540 -0.640800
O17   O     O_R   0.727070 0.936010 0.890540 -0.647655
O18   O     O_R   0.272930 0.063990 0.109460 -0.647721
O19   O     O_R   0.727070 0.063990 0.109460 -0.651837
O20   O     O_R   0.272930 0.936010 0.890540 -0.649339
O21   O     O_R   0.727090 0.609470 0.563990 -0.654587
O22   O     O_R   0.272910 0.390530 0.436010 -0.656397
O23   O     O_R   0.727090 0.390530 0.436010 -0.658313
O24   O     O_R   0.272910 0.609470 0.563990 -0.645491
O25   O     O_R   0.272910 0.390530 0.563990 -0.650240
O26   O     O_R   0.727090 0.609470 0.436010 -0.635091
O27   O     O_R   0.272910 0.609470 0.436010 -0.651552
O28   O     O_R   0.727090 0.390530 0.563990 -0.639769
O29   O     O_R   0.227090 0.109470 0.063990 -0.646878
O30   O     O_R   0.772910 0.890530 0.936010 -0.635653
O31   O     O_R   0.227090 0.890530 0.936010 -0.649079
O32   O     O_R   0.772910 0.109470 0.063990 -0.640835
O33   O     O_R   0.772910 0.890530 0.063990 -0.654976
O34   O     O_R   0.227090 0.109470 0.936010 -0.653231
O35   O     O_R   0.772910 0.109470 0.936010 -0.656909
O36   O     O_R   0.227090 0.890530 0.063990 -0.643573
O37   O     O_R   0.662570 0.545500 0.500000 -0.618719
O38   O     O_R   0.337430 0.454500 0.500000 -0.642021
O39   O     O_R   0.662570 0.454500 0.500000 -0.603058
O40   O     O_R   0.337430 0.545500 0.500000 -0.633100
O41   O     O_R   0.162570 0.045500 0.000000 -0.644971
O42   O     O_R   0.837430 0.954500 0.000000 -0.616568
O43   O     O_R   0.162570 0.954500 0.000000 -0.635788
O44   O     O_R   0.837430 0.045500 0.000000 -0.599374
O45   O     O_R   0.837440 0.500000 0.454520 -0.653443
O46   O     O_R   0.162560 0.500000 0.545480 -0.648543
O47   O     O_R   0.837440 0.500000 0.545480 -0.665161
O48   O     O_R   0.162560 0.500000 0.454520 -0.648709
O49   O     O_R   0.337440 0.000000 0.954520 -0.651110
O50   O     O_R   0.662560 1.000000 0.045480 -0.646294
O51   O     O_R   0.337440 1.000000 0.045480 -0.666160
O52   O     O_R   0.662560 0.000000 0.954520 -0.642894
C1    C     C_R   0.750028 0.605139 0.394844 0.849832
C2    C     C_R   0.249882 0.394815 0.605037 0.850307
C3    C     C_R   0.749957 0.394883 0.605187 0.850174
C4    C     C_R   0.250013 0.605085 0.394890 0.849078
C5    C     C_R   0.249893 0.394816 0.394942 0.844825
C6    C     C_R   0.749948 0.605062 0.605201 0.843084
C7    C     C_R   0.249891 0.605234 0.604997 0.854641
C8    C     C_R   0.749978 0.394960 0.394888 0.846208
C9    C     C_R   0.249817 0.104908 0.894750 0.850989
C10   C     C_R   0.749995 0.894910 0.105094 0.838004
C11   C     C_R   0.249947 0.894968 0.105173 0.857676
C12   C     C_R   0.749964 0.105076 0.894900 0.842651
C13   C     C_R   0.749881 0.894836 0.894921 0.844368
C14   C     C_R   0.250064 0.105104 0.105091 0.851765
C15   C     C_R   0.749906 0.105211 0.105049 0.841131
C16   C     C_R   0.249893 0.895008 0.894760 0.849841
C17   C     C_R   0.644035 0.499957 0.500679 0.839536
C18   C     C_R   0.355588 0.500022 0.499826 0.912937
C19   C     C_R   0.144442 0.999946 0.999926 0.917600
C20   C     C_R   0.855971 0.000053 0.000576 0.834121
C21   C     C_R   0.855879 0.499468 0.500120 0.936596
C22   C     C_R   0.144293 0.500340 0.500054 0.951608
C23   C     C_R   0.355889 0.999364 0.000102 0.932365
C24   C     C_R   0.644298 0.000291 0.000017 0.926399
C25   C     C_R   0.082194 0.550262 0.495209 0.336773
C26   C     C_R   0.918493 0.453356 0.521497 0.349592
C27   C     C_R   0.082198 0.451452 0.509024 0.324830
C28   C     C_R   0.918774 0.545730 0.483708 0.330556
C29   C     C_R   0.582046 0.049183 0.987931 0.361026
C30   C     C_R   0.418609 0.956511 0.027301 0.348896
C31   C     C_R   0.582220 0.953040 0.014965 0.335417
C32   C     C_R   0.418781 0.042182 0.975871 0.333156
C33   C     C_R   0.102022 0.500642 0.500605 -0.234890
C34   C     C_R   0.898408 0.499137 0.500951 -0.263527
C35   C     C_R   0.602038 0.000816 0.000481 -0.250882
C36   C     C_R   0.398430 0.999084 0.000755 -0.266514
C37   C     C_R   0.041553 0.452020 0.517442 -0.056183
C38   C     C_R   0.959178 0.549215 0.493121 -0.045806
C39   C     C_R   0.041142 0.550290 0.491472 -0.029018
C40   C     C_R   0.959456 0.450955 0.516461 -0.017383
C41   C     C_R   0.541562 0.954578 0.022925 -0.060194
C42   C     C_R   0.459201 0.047075 0.984345 -0.048391
C43   C     C_R   0.541127 0.047902 0.982890 -0.020517
C44   C     C_R   0.459517 0.953350 0.022094 -0.017651
C45   C     C_R   0.020848 0.500968 0.504904 -0.083312
C46   C     C_R   0.979877 0.500398 0.505085 -0.090859
C47   C     C_R   0.520850 0.001168 0.003460 -0.088891
C48   C     C_R   0.479898 0.000636 0.003651 -0.089981
C49   C     C_R   0.020950 0.404437 0.534651 0.117798
C50   C     C_R   0.979480 0.599492 0.488052 0.126787
C51   C     C_R   0.019747 0.598224 0.476993 0.162946
C52   C     C_R   0.980598 0.401378 0.524040 0.170310
C53   C     C_R   0.520985 0.909566 0.046055 0.119110
C54   C     C_R   0.479548 0.095793 0.970857 0.119554
C55   C     C_R   0.519787 0.092522 0.960187 0.169018
C56   C     C_R   0.480665 0.905146 0.035865 0.172427
C57   C     C_R   0.759567 0.326512 0.742890 0.483597
C58   C     C_R   0.215092 0.699393 0.283680 0.477265
C59   C     C_R   0.758669 0.672993 0.256740 0.471186
C60   C     C_R   0.212651 0.300115 0.714718 0.495684
C61   C     C_R   0.235665 0.678012 0.739465 0.463923
C62   C     C_R   0.783278 0.300875 0.282492 0.469689
C63   C     C_R   0.236880 0.323301 0.259530 0.461915
C64   C     C_R   0.783375 0.700490 0.717033 0.478129
C65   C     C_R   0.260310 0.826602 0.242557 0.471194
C66   C     C_R   0.712893 0.203466 0.788183 0.486002
C67   C     C_R   0.256223 0.170614 0.755724 0.481849
C68   C     C_R   0.713480 0.795013 0.211023 0.483524
C69   C     C_R   0.735485 0.176828 0.240118 0.475615
C70   C     C_R   0.281921 0.803642 0.779348 0.475106
C71   C     C_R   0.742698 0.825791 0.756977 0.473104
C72   C     C_R   0.283379 0.198563 0.218476 0.473133
C73   C     C_R   0.761775 0.365689 0.701285 -0.327744
C74   C     C_R   0.216048 0.657592 0.322626 -0.307226
C75   C     C_R   0.760679 0.633769 0.298407 -0.332660
C76   C     C_R   0.215024 0.343167 0.677254 -0.308887
C77   C     C_R   0.235699 0.637182 0.699431 -0.313753
C78   C     C_R   0.783264 0.341796 0.322432 -0.307744
C79   C     C_R   0.236519 0.363727 0.299971 -0.312804
C80   C     C_R   0.783404 0.659058 0.677398 -0.319759
C81   C     C_R   0.261729 0.865944 0.201120 -0.315361
C82   C     C_R   0.714417 0.160539 0.826488 -0.338338
C83   C     C_R   0.259076 0.132206 0.797842 -0.307488
C84   C     C_R   0.714615 0.837919 0.172644 -0.335171
C85   C     C_R   0.735309 0.136519 0.199555 -0.313142
C86   C     C_R   0.282224 0.843771 0.820044 -0.313222
C87   C     C_R   0.741749 0.866112 0.798043 -0.343600
C88   C     C_R   0.283369 0.157942 0.178165 -0.303352
H1    H     H_    0.772262 0.406464 0.711079 0.185601
H2    H     H_    0.189922 0.633967 0.330277 0.189084
H3    H     H_    0.769691 0.592398 0.288348 0.182020
H4    H     H_    0.189871 0.369138 0.671179 0.191643
H5    H     H_    0.225917 0.596321 0.710270 0.188732
H6    H     H_    0.810008 0.363570 0.331227 0.182693
H7    H     H_    0.227199 0.404796 0.289235 0.186259
H8    H     H_    0.810159 0.637440 0.668615 0.179322
H9    H     H_    0.271583 0.907006 0.211047 0.184924
H10   H     H_    0.688321 0.137856 0.836517 0.174479
H11   H     H_    0.268539 0.090940 0.788164 0.184983
H12   H     H_    0.688200 0.859517 0.162052 0.174232
H13   H     H_    0.724922 0.095790 0.209763 0.188854
H14   H     H_    0.308880 0.866029 0.828130 0.183028
H15   H     H_    0.735893 0.908382 0.787184 0.169773
H16   H     H_    0.309991 0.135837 0.169770 0.183181
C89   C     C_R   0.749271 0.352957 0.648087 -0.136031
C90   C     C_R   0.249862 0.647562 0.352729 -0.138842
C91   C     C_R   0.749748 0.647233 0.352053 -0.118957
C92   C     C_R   0.248748 0.351480 0.646401 -0.146242
C93   C     C_R   0.249120 0.648480 0.646423 -0.134232
C94   C     C_R   0.749489 0.353232 0.352061 -0.125997
C95   C     C_R   0.249188 0.351802 0.353213 -0.118550
C96   C     C_R   0.749510 0.647116 0.647941 -0.124092
C97   C     C_R   0.249581 0.853004 0.147858 -0.134982
C98   C     C_R   0.749251 0.147844 0.853070 -0.116280
C99   C     C_R   0.248486 0.146134 0.851411 -0.145398
C100  C     C_R   0.749534 0.852029 0.146885 -0.115288
C101  C     C_R   0.749326 0.148105 0.146905 -0.139766
C102  C     C_R   0.248984 0.853757 0.851337 -0.142467
C103  C     C_R   0.749399 0.852236 0.852747 -0.108781
C104  C     C_R   0.249697 0.146947 0.147914 -0.137269
C105  C     C_R   0.735216 0.300333 0.636280 -0.303621
C106  C     C_R   0.283387 0.678448 0.342724 -0.306398
C107  C     C_R   0.738175 0.700850 0.364551 -0.329662
C108  C     C_R   0.281013 0.317712 0.654501 -0.308652
C109  C     C_R   0.261304 0.701512 0.632739 -0.308426
C110  C     C_R   0.715098 0.325103 0.340342 -0.337980
C111  C     C_R   0.260636 0.298433 0.366789 -0.357300
C112  C     C_R   0.715145 0.675610 0.659360 -0.327359
C113  C     C_R   0.236949 0.799898 0.135496 -0.316114
C114  C     C_R   0.783151 0.176560 0.840202 -0.327280
C115  C     C_R   0.235632 0.199179 0.863243 -0.324891
C116  C     C_R   0.783849 0.824609 0.160621 -0.322462
C117  C     C_R   0.762389 0.200963 0.134167 -0.304158
C118  C     C_R   0.214664 0.825057 0.840332 -0.305148
C119  C     C_R   0.756268 0.797548 0.867151 -0.326441
C120  C     C_R   0.215378 0.175252 0.159429 -0.319388
H17   H     H_    0.725061 0.290204 0.595399 0.186118
H18   H     H_    0.309653 0.671042 0.366072 0.184531
H19   H     H_    0.729254 0.710935 0.405943 0.172489
H20   H     H_    0.307214 0.323709 0.630609 0.185272
H21   H     H_    0.271460 0.710768 0.591659 0.186407
H22   H     H_    0.688898 0.334026 0.363126 0.180215
H23   H     H_    0.270608 0.289375 0.407956 0.177073
H24   H     H_    0.688763 0.666559 0.636835 0.166721
H25   H     H_    0.227450 0.789528 0.094358 0.184166
H26   H     H_    0.810054 0.167024 0.860965 0.182153
H27   H     H_    0.226728 0.209985 0.904516 0.190474
H28   H     H_    0.810972 0.835269 0.140748 0.164816
H29   H     H_    0.773121 0.210440 0.093432 0.188682
H30   H     H_    0.188738 0.832877 0.864265 0.186539
H31   H     H_    0.762302 0.786916 0.909475 0.171915
H32   H     H_    0.189031 0.166416 0.136735 0.182487
C121  C     C_R   0.734937 0.259749 0.676646 0.470548
C122  C     C_R   0.283757 0.718182 0.301598 0.471335
C123  C     C_R   0.738807 0.741805 0.323996 0.475522
C124  C     C_R   0.280364 0.276993 0.694633 0.473399
C125  C     C_R   0.259370 0.743670 0.671184 0.478563
C126  C     C_R   0.713878 0.286529 0.298047 0.482111
C127  C     C_R   0.258525 0.256313 0.327721 0.481271
C128  C     C_R   0.714232 0.714831 0.701171 0.479275
C129  C     C_R   0.237626 0.759057 0.175481 0.475980
C130  C     C_R   0.782911 0.216522 0.799314 0.465033
C131  C     C_R   0.235496 0.239496 0.822735 0.485921
C132  C     C_R   0.783702 0.784648 0.201627 0.473753
C133  C     C_R   0.760735 0.242655 0.173201 0.476934
C134  C     C_R   0.212807 0.787630 0.797137 0.502366
C135  C     C_R   0.754282 0.756156 0.827301 0.472979
C136  C     C_R   0.214203 0.213436 0.201976 0.485985
C137  C     C_R   0.747056 0.272819 0.730414 -0.068192
C138  C     C_R   0.249245 0.729482 0.272218 -0.101000
C139  C     C_R   0.748240 0.727259 0.269694 -0.030377
C140  C     C_R   0.245858 0.267441 0.724802 -0.117517
C141  C     C_R   0.247207 0.731893 0.725372 -0.109606
C142  C     C_R   0.748311 0.273328 0.269618 -0.094294
C143  C     C_R   0.247886 0.269269 0.273403 -0.069084
C144  C     C_R   0.748581 0.727887 0.729544 -0.030839
C145  C     C_R   0.248818 0.772382 0.229688 -0.098318
C146  C     C_R   0.747621 0.230154 0.773147 -0.066240
C147  C     C_R   0.245291 0.225190 0.768087 -0.116119
C148  C     C_R   0.748419 0.769532 0.226635 -0.033191
C149  C     C_R   0.747860 0.230560 0.226962 -0.087999
C150  C     C_R   0.247043 0.775454 0.767234 -0.113405
C151  C     C_R   0.748324 0.770667 0.772049 -0.019535
C152  C     C_R   0.248485 0.226379 0.230888 -0.075513
C153  C     C_R   0.540368 0.549233 0.500190 -0.274402
C154  C     C_R   0.458062 0.464800 0.464776 -0.285020
C155  C     C_R   0.540342 0.450006 0.503037 -0.299874
C156  C     C_R   0.458006 0.534412 0.536103 -0.289590
C157  C     C_R   0.041929 0.032222 0.962885 -0.284183
C158  C     C_R   0.959605 0.950654 0.005245 -0.273708
C159  C     C_R   0.042250 0.967929 0.039091 -0.286747
C160  C     C_R   0.959756 0.049744 0.999636 -0.298103
H33   H     H_    0.524710 0.587697 0.497819 0.159316
H34   H     H_    0.473777 0.439192 0.436028 0.152656
H35   H     H_    0.524483 0.411696 0.505979 0.152775
H36   H     H_    0.473687 0.560036 0.564925 0.150949
H37   H     H_    0.026100 0.055427 0.932253 0.151571
H38   H     H_    0.975185 0.912069 0.006366 0.160244
H39   H     H_    0.026692 0.944285 0.069655 0.150596
H40   H     H_    0.975625 0.088165 0.999414 0.154462
C161  C     C_R   0.580596 0.550015 0.503106 0.433369
C162  C     C_R   0.417649 0.463901 0.464957 0.392320
C163  C     C_R   0.580790 0.449395 0.502088 0.421442
C164  C     C_R   0.417592 0.536094 0.534957 0.409768
C165  C     C_R   0.082364 0.033182 0.962773 0.390713
C166  C     C_R   0.919338 0.950211 0.007622 0.435013
C167  C     C_R   0.082661 0.966192 0.037775 0.408022
C168  C     C_R   0.919331 0.050357 0.997926 0.421725
C169  C     C_R   0.601383 0.499807 0.502177 -0.244934
C170  C     C_R   0.397563 0.500012 0.499907 -0.201670
C171  C     C_R   0.102523 0.999841 0.000239 -0.197756
C172  C     C_R   0.898629 0.000216 0.002201 -0.245587
C173  C     C_R   0.520301 0.499564 0.500942 0.038631
C174  C     C_R   0.478124 0.499501 0.500643 0.050964
C175  C     C_R   0.021975 0.000257 0.001393 0.051249
C176  C     C_R   0.979763 0.000180 0.001913 0.037039
O53   O     O_3   0.103724 0.598215 0.493929 -0.653585
C177  C     C_3   0.107936 0.618124 0.548190 0.054380
H41   H     H_    0.117255 0.585187 0.577133 0.158047
H42   H     H_    0.079889 0.635498 0.562785 0.141743
C178  C     C_3   0.138872 0.663190 0.548677 -0.310987
H43   H     H_    0.166686 0.646241 0.532937 0.215891
H44   H     H_    0.129690 0.697204 0.521193 0.214548
C179  C     C_3   0.145452 0.685751 0.606439 -0.978260
H45   H     H_    0.118237 0.703930 0.622732 0.260181
H46   H     H_    0.168149 0.718138 0.605236 0.252948
H47   H     H_    0.155350 0.652594 0.634419 0.281102
O54   O     O_3   0.897827 0.410876 0.545594 -0.662240
C180  C     C_3   0.889123 0.423972 0.601073 0.130448
H48   H     H_    0.858161 0.413409 0.608425 0.187127
H49   H     H_    0.892597 0.468383 0.611519 0.142532
C181  C     C_3   0.914062 0.389945 0.640142 -0.421830
H50   H     H_    0.909236 0.345578 0.632162 0.230024
H51   H     H_    0.945055 0.399846 0.632968 0.233767
C182  C     C_3   0.904287 0.402315 0.699972 -0.930252
H52   H     H_    0.910915 0.445873 0.709635 0.267813
H53   H     H_    0.921945 0.375677 0.727241 0.268495
H54   H     H_    0.873049 0.394319 0.708085 0.268930
O55   O     O_3   0.103318 0.403142 0.508660 -0.670543
C183  C     C_3   0.105376 0.382895 0.454419 0.070175
H55   H     H_    0.112131 0.415935 0.424128 0.152935
H56   H     H_    0.077222 0.363419 0.443150 0.142928
C184  C     C_3   0.137666 0.340014 0.451560 -0.315549
H57   H     H_    0.165512 0.358815 0.465084 0.217799
H58   H     H_    0.130654 0.305484 0.479713 0.217212
C185  C     C_3   0.142597 0.317882 0.393424 -0.973403
H59   H     H_    0.114910 0.299534 0.378987 0.268873
H60   H     H_    0.165478 0.285819 0.392973 0.259145
H61   H     H_    0.151354 0.351362 0.365032 0.280443
O56   O     O_3   0.898951 0.587781 0.457596 -0.671400
C186  C     C_3   0.897508 0.577881 0.400238 0.138899
H62   H     H_    0.866512 0.578306 0.387563 0.186388
H63   H     H_    0.909657 0.537377 0.387195 0.123670
C187  C     C_3   0.918761 0.623779 0.369677 -0.394628
H64   H     H_    0.906712 0.664132 0.382317 0.232182
H65   H     H_    0.950102 0.622743 0.380340 0.223984
C188  C     C_3   0.914569 0.617592 0.307617 -0.948471
H66   H     H_    0.927507 0.578204 0.293862 0.267860
H67   H     H_    0.929922 0.651834 0.286757 0.267800
H68   H     H_    0.883456 0.618694 0.295628 0.271039
O57   O     O_3   0.602846 0.097316 0.980165 -0.657125
C189  C     C_3   0.614814 0.119173 0.031504 0.081186
H69   H     H_    0.643749 0.138490 0.025564 0.153189
H70   H     H_    0.618492 0.087713 0.064374 0.142997
C190  C     C_3   0.586353 0.163094 0.051192 -0.376466
H71   H     H_    0.584439 0.196385 0.020166 0.217573
H72   H     H_    0.557166 0.144469 0.056542 0.228275
C191  C     C_3   0.599217 0.187850 0.105763 -0.953709
H73   H     H_    0.600751 0.155614 0.137938 0.268686
H74   H     H_    0.577844 0.219290 0.118758 0.272743
H75   H     H_    0.628118 0.207698 0.101482 0.262319
O58   O     O_3   0.398043 0.916942 0.056116 -0.659548
C192  C     C_3   0.389721 0.935702 0.110059 0.138713
H76   H     H_    0.358547 0.927260 0.118284 0.195375
H77   H     H_    0.394261 0.980723 0.116226 0.134691
C193  C     C_3   0.413760 0.904250 0.152281 -0.425368
H78   H     H_    0.409161 0.859462 0.146887 0.233093
H79   H     H_    0.444864 0.913921 0.145888 0.232117
C194  C     C_3   0.402542 0.919966 0.210795 -0.930728
H80   H     H_    0.407741 0.964410 0.217779 0.266454
H81   H     H_    0.420416 0.896198 0.240347 0.269414
H82   H     H_    0.371431 0.910529 0.218376 0.269985
O59   O     O_3   0.603213 0.904870 0.020008 -0.666813
C195  C     C_3   0.603883 0.877947 0.968692 0.067325
H83   H     H_    0.614762 0.905722 0.935672 0.153430
H84   H     H_    0.574218 0.863254 0.957755 0.141682
C196  C     C_3   0.631113 0.828642 0.972615 -0.316617
H85   H     H_    0.660342 0.842676 0.986101 0.218039
H86   H     H_    0.619712 0.799329 0.003687 0.215858
C197  C     C_3   0.634954 0.799393 0.917506 -0.988158
H87   H     H_    0.606018 0.785580 0.902799 0.272401
H88   H     H_    0.653946 0.762933 0.922256 0.257742
H89   H     H_    0.648139 0.827247 0.886540 0.271688
O60   O     O_3   0.398937 0.079324 0.943125 -0.666961
C198  C     C_3   0.397872 0.060400 0.888039 0.148903
H90   H     H_    0.367025 0.060069 0.874661 0.191574
H91   H     H_    0.409169 0.017809 0.882040 0.118266
C199  C     C_3   0.420325 0.099871 0.850922 -0.397708
H92   H     H_    0.409663 0.142356 0.857582 0.236967
H93   H     H_    0.451687 0.098313 0.861346 0.223201
C200  C     C_3   0.415372 0.085050 0.790466 -0.949514
H94   H     H_    0.426591 0.043083 0.782559 0.266471
H95   H     H_    0.431878 0.114597 0.764748 0.268901
H96   H     H_    0.384255 0.086980 0.778608 0.268723
C201  C     C_3   0.040901 0.359428 0.568471 -0.353072
C202  C     C_3   0.019191 0.345346 0.621490 -0.953214
H97   H     H_    0.013926 0.383164 0.645791 0.270378
H98   H     H_    0.991250 0.324430 0.613190 0.254442
H99   H     H_    0.037135 0.317058 0.646665 0.266430
H100  H     H_    0.045414 0.321984 0.543345 0.199584
H101  H     H_    0.069676 0.373067 0.583397 0.267818
C203  C     C_3   0.959617 0.653832 0.502319 -0.356872
C204  C     C_3   0.981034 0.684776 0.547924 -0.940658
H102  H     H_    0.984994 0.657764 0.584248 0.267301
H103  H     H_    0.009810 0.699616 0.533968 0.255030
H104  H     H_    0.963713 0.721049 0.560540 0.257082
H105  H     H_    0.956403 0.680289 0.465566 0.195024
H106  H     H_    0.930076 0.647035 0.518966 0.257744
C205  C     C_3   0.037776 0.645620 0.444520 -0.361481
C206  C     C_3   0.053268 0.626573 0.388843 -0.826456
H107  H     H_    0.077270 0.596690 0.393510 0.287122
H108  H     H_    0.029553 0.607252 0.364660 0.241878
H109  H     H_    0.064481 0.662456 0.365584 0.240599
H110  H     H_    0.016148 0.677751 0.434977 0.188201
H111  H     H_    0.060509 0.667295 0.468153 0.235552
C207  C     C_3   0.962257 0.345277 0.512796 -0.355099
C208  C     C_3   0.946337 0.341367 0.454280 -0.849921
H112  H     H_    0.921701 0.369895 0.447887 0.278226
H113  H     H_    0.969592 0.351008 0.424168 0.244240
H114  H     H_    0.935788 0.299002 0.446466 0.240855
H115  H     H_    0.983833 0.311839 0.516359 0.192570
H116  H     H_    0.939426 0.334933 0.542911 0.240982
C209  C     C_3   0.541001 0.869012 0.085032 -0.357664
C210  C     C_3   0.519216 0.861093 0.139231 -0.950038
H117  H     H_    0.513568 0.901486 0.158734 0.270851
H118  H     H_    0.491498 0.838805 0.133323 0.254652
H119  H     H_    0.537294 0.836399 0.167770 0.260226
H120  H     H_    0.545688 0.828898 0.064515 0.199608
H121  H     H_    0.569701 0.884572 0.098303 0.266446
C211  C     C_3   0.459663 0.151850 0.974808 -0.356183
C212  C     C_3   0.481139 0.191073 0.013388 -0.942422
H122  H     H_    0.485544 0.171488 0.054106 0.266626
H123  H     H_    0.509617 0.203450 0.996230 0.255344
H124  H     H_    0.463620 0.228847 0.019209 0.259563
H125  H     H_    0.456309 0.170922 0.933766 0.196912
H126  H     H_    0.430228 0.148235 0.992753 0.258500
C213  C     C_3   0.537735 0.132616 0.918974 -0.364707
C214  C     C_3   0.553442 0.102906 0.868349 -0.839237
H127  H     H_    0.577889 0.075369 0.879071 0.285624
H128  H     H_    0.530009 0.078346 0.848819 0.245348
H129  H     H_    0.564164 0.133479 0.838109 0.238718
H130  H     H_    0.516007 0.162092 0.903223 0.188419
H131  H     H_    0.560493 0.158518 0.937661 0.240835
C215  C     C_3   0.462513 0.848027 0.030945 -0.353867
C216  C     C_3   0.446826 0.837454 0.973140 -0.855108
H132  H     H_    0.422147 0.864965 0.963425 0.276947
H133  H     H_    0.470169 0.843772 0.942294 0.244029
H134  H     H_    0.436404 0.794423 0.970091 0.241823
H135  H     H_    0.484162 0.815337 0.038459 0.193189
H136  H     H_    0.439572 0.840991 0.061784 0.240593
O61   O     O_3   0.771205 0.340352 0.795400 -0.600769
C217  C     C_3   0.738483 0.358735 0.824999 0.067678
H137  H     H_    0.714322 0.328246 0.823245 0.129413
H138  H     H_    0.728208 0.398639 0.808073 0.136962
C218  C     C_3   0.749966 0.366688 0.885066 -0.291925
H139  H     H_    0.760655 0.327112 0.901991 0.230859
H140  H     H_    0.773822 0.397338 0.887765 0.230274
C219  C     C_3   0.715687 0.386388 0.919470 -0.992681
H141  H     H_    0.704927 0.426411 0.903858 0.267205
H142  H     H_    0.725045 0.391694 0.962781 0.272946
H143  H     H_    0.691744 0.355818 0.918185 0.262094
O62   O     O_3   0.181108 0.708191 0.254764 -0.591003
C220  C     C_3   0.159304 0.749121 0.281629 0.067486
H144  H     H_    0.174447 0.789342 0.278752 0.119809
H145  H     H_    0.154371 0.738413 0.325628 0.126759
C221  C     C_3   0.119972 0.754442 0.253206 -0.292131
H146  H     H_    0.124612 0.764584 0.209210 0.241584
H147  H     H_    0.104206 0.714691 0.255725 0.224474
C222  C     C_3   0.095313 0.799221 0.279592 -0.998391
H148  H     H_    0.089997 0.789620 0.323544 0.266532
H149  H     H_    0.066910 0.801889 0.258200 0.269604
H150  H     H_    0.110162 0.839581 0.276307 0.265690
O63   O     O_3   0.768602 0.658892 0.203604 -0.606391
C223  C     C_3   0.736465 0.632706 0.178862 0.061966
H151  H     H_    0.710854 0.660635 0.178147 0.131328
H152  H     H_    0.728755 0.594386 0.201389 0.136654
C224  C     C_3   0.746936 0.617566 0.119856 -0.291804
H153  H     H_    0.754362 0.655409 0.096599 0.227357
H154  H     H_    0.772728 0.590192 0.120018 0.232721
C225  C     C_3   0.713381 0.588280 0.091217 -0.996697
H155  H     H_    0.705265 0.550498 0.114034 0.271193
H156  H     H_    0.722327 0.576456 0.049082 0.268936
H157  H     H_    0.687754 0.615779 0.088468 0.264519
O64   O     O_3   0.178674 0.294021 0.744569 -0.597471
C226  C     C_3   0.156107 0.250544 0.722978 0.098143
H158  H     H_    0.134957 0.238371 0.755197 0.174514
H159  H     H_    0.173626 0.213352 0.714229 0.093626
C227  C     C_3   0.133405 0.268668 0.671820 -0.383587
H160  H     H_    0.116626 0.306418 0.681319 0.238970
H161  H     H_    0.153873 0.277937 0.637819 0.213125
C228  C     C_3   0.105513 0.223947 0.652605 -0.964928
H162  H     H_    0.121788 0.185973 0.642371 0.263822
H163  H     H_    0.089867 0.238096 0.615329 0.269257
H164  H     H_    0.083851 0.214745 0.685117 0.265473
O65   O     O_3   0.221561 0.665492 0.791143 -0.593393
C229  C     C_3   0.252888 0.651726 0.825837 0.071445
H165  H     H_    0.271194 0.688481 0.833800 0.121035
H166  H     H_    0.270999 0.618525 0.807505 0.124440
C230  C     C_3   0.236787 0.631625 0.880727 -0.280337
H167  H     H_    0.218209 0.664110 0.899011 0.237377
H168  H     H_    0.218610 0.594537 0.873823 0.224531
C231  C     C_3   0.269325 0.617629 0.920905 -0.996442
H169  H     H_    0.287947 0.584578 0.903883 0.266481
H170  H     H_    0.256618 0.603175 0.960243 0.273697
H171  H     H_    0.287414 0.654472 0.929244 0.264091
O66   O     O_3   0.817243 0.290444 0.254135 -0.592227
C232  C     C_3   0.837475 0.247754 0.280778 0.064029
H172  H     H_    0.821601 0.208325 0.275636 0.120871
H173  H     H_    0.841392 0.256653 0.325392 0.124854
C233  C     C_3   0.877486 0.241805 0.254470 -0.282042
H174  H     H_    0.874042 0.232903 0.209960 0.238006
H175  H     H_    0.893787 0.280954 0.258921 0.223207
C234  C     C_3   0.900651 0.195621 0.281189 -0.985271
H176  H     H_    0.905067 0.204184 0.325555 0.263487
H177  H     H_    0.929496 0.192320 0.261125 0.270697
H178  H     H_    0.885151 0.155897 0.276438 0.264833
O67   O     O_3   0.223771 0.336171 0.207416 -0.595331
C235  C     C_3   0.255598 0.352877 0.174969 0.060477
H179  H     H_    0.275905 0.318011 0.168621 0.115718
H180  H     H_    0.271373 0.387815 0.194466 0.129098
C236  C     C_3   0.240640 0.371256 0.118843 -0.278794
H181  H     H_    0.224489 0.336907 0.099264 0.233763
H182  H     H_    0.220396 0.406334 0.124196 0.225505
C237  C     C_3   0.273873 0.388678 0.081203 -0.993912
H183  H     H_    0.289985 0.423742 0.099437 0.267913
H184  H     H_    0.262014 0.401577 0.040813 0.273435
H185  H     H_    0.294160 0.353910 0.074560 0.264100
O68   O     O_3   0.817243 0.713914 0.744373 -0.608350
C238  C     C_3   0.839569 0.748759 0.710397 0.051470
H186  H     H_    0.821421 0.781197 0.690704 0.129158
H187  H     H_    0.854040 0.724156 0.677802 0.144855
C239  C     C_3   0.870508 0.777092 0.745269 -0.291315
H188  H     H_    0.856170 0.800612 0.778698 0.228805
H189  H     H_    0.889680 0.745667 0.764174 0.234103
C240  C     C_3   0.895073 0.816267 0.710830 -0.984248
H190  H     H_    0.910063 0.793529 0.677495 0.266951
H191  H     H_    0.917301 0.836072 0.737278 0.271560
H192  H     H_    0.876524 0.848752 0.692529 0.260116
O69   O     O_3   0.273138 0.840874 0.294459 -0.594140
C241  C     C_3   0.240960 0.855122 0.327315 0.071316
H193  H     H_    0.223897 0.817776 0.337654 0.123208
H194  H     H_    0.221896 0.885550 0.306219 0.123216
C242  C     C_3   0.255704 0.880483 0.380791 -0.284831
H195  H     H_    0.274914 0.850689 0.402137 0.236036
H196  H     H_    0.272927 0.917917 0.371329 0.223089
C243  C     C_3   0.222247 0.895826 0.418873 -0.996836
H197  H     H_    0.203037 0.926421 0.398789 0.266371
H198  H     H_    0.233997 0.914013 0.457252 0.272826
H199  H     H_    0.205007 0.858807 0.429662 0.265239
O70   O     O_3   0.678276 0.218713 0.763208 -0.601862
C244  C     C_3   0.649552 0.230489 0.802987 0.059077
H200  H     H_    0.661881 0.252669 0.839154 0.120058
H201  H     H_    0.635585 0.191740 0.816914 0.154330
C245  C     C_3   0.618482 0.266815 0.776985 -0.298854
H202  H     H_    0.632019 0.305697 0.762634 0.219581
H203  H     H_    0.605709 0.245446 0.740914 0.237356
C246  C     C_3   0.586241 0.280114 0.817843 -0.985376
H204  H     H_    0.571925 0.241828 0.832168 0.265606
H205  H     H_    0.564125 0.306415 0.797702 0.270089
H206  H     H_    0.598262 0.302497 0.853775 0.263824
O71   O     O_3   0.266590 0.154713 0.703215 -0.592946
C247  C     C_3   0.232897 0.140487 0.673320 0.069159
H207  H     H_    0.219901 0.178234 0.655521 0.141391
H208  H     H_    0.210818 0.118950 0.699177 0.116016
C248  C     C_3   0.244269 0.102274 0.626293 -0.297059
H209  H     H_    0.265523 0.123352 0.599147 0.232596
H210  H     H_    0.258218 0.064855 0.643353 0.225622
C249  C     C_3   0.208921 0.085384 0.592428 -0.994818
H211  H     H_    0.187483 0.063567 0.618624 0.269727
H212  H     H_    0.218115 0.057347 0.558973 0.271037
H213  H     H_    0.194993 0.122066 0.573882 0.267535
O72   O     O_3   0.678987 0.778956 0.235752 -0.608260
C250  C     C_3   0.651388 0.763598 0.195543 0.054500
H214  H     H_    0.665000 0.740761 0.160771 0.118923
H215  H     H_    0.636552 0.800767 0.179400 0.153691
C251  C     C_3   0.621018 0.726345 0.222022 -0.299693
H216  H     H_    0.635557 0.689432 0.239215 0.219337
H217  H     H_    0.606551 0.748622 0.256165 0.237436
C252  C     C_3   0.590422 0.708253 0.180415 -0.984036
H218  H     H_    0.575342 0.744507 0.162881 0.267128
H219  H     H_    0.568609 0.681724 0.201005 0.270707
H220  H     H_    0.604160 0.684543 0.146677 0.262870
O73   O     O_3   0.720938 0.164050 0.291486 -0.591671
C253  C     C_3   0.751638 0.146389 0.325506 0.064736
H221  H     H_    0.771523 0.181226 0.334529 0.120085
H222  H     H_    0.768237 0.112292 0.305993 0.124971
C254  C     C_3   0.734734 0.125856 0.379757 -0.281281
H223  H     H_    0.718027 0.159465 0.399565 0.232237
H224  H     H_    0.714587 0.091125 0.371596 0.225189
C255  C     C_3   0.766575 0.106729 0.418908 -0.994973
H225  H     H_    0.783219 0.072407 0.400360 0.265230
H226  H     H_    0.753282 0.092151 0.457808 0.273607
H227  H     H_    0.786687 0.141108 0.428438 0.264273
O74   O     O_3   0.315464 0.794529 0.749527 -0.591568
C256  C     C_3   0.336920 0.752252 0.774869 0.069959
H228  H     H_    0.320557 0.712920 0.773246 0.119226
H229  H     H_    0.343692 0.762746 0.818411 0.125836
C257  C     C_3   0.374972 0.744491 0.743682 -0.289511
H230  H     H_    0.368470 0.734721 0.700056 0.241282
H231  H     H_    0.392052 0.783198 0.745030 0.224267
C258  C     C_3   0.399090 0.698140 0.768350 -0.999470
H232  H     H_    0.406113 0.707183 0.811939 0.267821
H233  H     H_    0.426663 0.693859 0.745162 0.270479
H234  H     H_    0.382939 0.658727 0.765925 0.265383
O75   O     O_3   0.736343 0.838660 0.702192 -0.612652
C259  C     C_3   0.763213 0.878702 0.684094 0.059291
H235  H     H_    0.792459 0.873325 0.703196 0.122223
H236  H     H_    0.752053 0.920329 0.694035 0.152498
C260  C     C_3   0.767717 0.873890 0.621872 -0.310902
H237  H     H_    0.777971 0.831945 0.611378 0.215667
H238  H     H_    0.739088 0.880496 0.601855 0.235755
C261  C     C_3   0.796699 0.915852 0.599783 -0.984635
H239  H     H_    0.786811 0.958149 0.609284 0.271171
H240  H     H_    0.799159 0.911460 0.554550 0.271499
H241  H     H_    0.825790 0.909109 0.618294 0.263064
O76   O     O_3   0.317044 0.207584 0.248144 -0.596365
C262  C     C_3   0.337071 0.252825 0.225558 0.060138
H242  H     H_    0.321677 0.291521 0.235908 0.125397
H243  H     H_    0.339955 0.249166 0.180050 0.121934
C263  C     C_3   0.377717 0.255353 0.250528 -0.293909
H244  H     H_    0.375431 0.257043 0.295977 0.237278
H245  H     H_    0.394034 0.217708 0.239188 0.222235
C264  C     C_3   0.399999 0.305658 0.230469 -0.989944
H246  H     H_    0.403172 0.304498 0.185098 0.267383
H247  H     H_    0.429368 0.306176 0.249284 0.268804
H248  H     H_    0.384557 0.343800 0.242486 0.263988
O77   O     O_3   0.720205 0.208472 0.663971 -0.595291
C265  C     C_3   0.750475 0.175103 0.643799 0.055317
H249  H     H_    0.769255 0.161719 0.678430 0.124647
H250  H     H_    0.768448 0.196916 0.612479 0.124656
C266  C     C_3   0.732838 0.124162 0.617009 -0.279082
H251  H     H_    0.715065 0.101596 0.647726 0.233367
H252  H     H_    0.713584 0.136877 0.582653 0.224375
C267  C     C_3   0.764233 0.086003 0.594816 -1.002040
H253  H     H_    0.782044 0.107488 0.563429 0.269915
H254  H     H_    0.750438 0.049645 0.575418 0.270028
H255  H     H_    0.783350 0.071796 0.628690 0.263660
O78   O     O_3   0.317192 0.748743 0.293891 -0.593099
C268  C     C_3   0.338343 0.726871 0.249417 0.071857
H256  H     H_    0.321475 0.730376 0.210659 0.118780
H257  H     H_    0.345828 0.683027 0.257043 0.125884
C269  C     C_3   0.375829 0.759778 0.242630 -0.281097
H258  H     H_    0.368593 0.803800 0.236593 0.240845
H259  H     H_    0.393670 0.755932 0.280473 0.223662
C270  C     C_3   0.399390 0.739785 0.193518 -1.002849
H260  H     H_    0.407082 0.695838 0.198641 0.269903
H261  H     H_    0.426596 0.764077 0.190262 0.266179
H262  H     H_    0.382520 0.745042 0.154988 0.264480
O79   O     O_3   0.728372 0.795656 0.335384 -0.610288
C271  C     C_3   0.749782 0.816566 0.380333 0.056667
H263  H     H_    0.780306 0.801150 0.380846 0.117208
H264  H     H_    0.735142 0.805019 0.419360 0.156169
C272  C     C_3   0.751000 0.879098 0.376199 -0.299681
H265  H     H_    0.765718 0.891116 0.337381 0.213584
H266  H     H_    0.720873 0.895389 0.375319 0.239271
C273  C     C_3   0.772688 0.904431 0.424649 -0.986744
H267  H     H_    0.758004 0.893746 0.463831 0.269195
H268  H     H_    0.773077 0.949791 0.420335 0.270111
H269  H     H_    0.803121 0.889431 0.425823 0.262889
O80   O     O_3   0.312899 0.244352 0.701033 -0.591866
C274  C     C_3   0.335766 0.264925 0.744506 0.068351
H270  H     H_    0.320680 0.258707 0.784347 0.133334
H271  H     H_    0.342363 0.309376 0.738657 0.122482
C275  C     C_3   0.373937 0.233149 0.746435 -0.283849
H272  H     H_    0.367638 0.188662 0.751220 0.240591
H273  H     H_    0.389924 0.239229 0.707261 0.221909
C276  C     C_3   0.399405 0.252022 0.794138 -0.997179
H274  H     H_    0.406446 0.296313 0.789940 0.268138
H275  H     H_    0.426923 0.228334 0.794199 0.268234
H276  H     H_    0.384294 0.245042 0.833830 0.266066
O81   O     O_3   0.271722 0.795504 0.655849 -0.592826
C277  C     C_3   0.239248 0.827344 0.640548 0.063341
H277  H     H_    0.223630 0.841290 0.677939 0.142789
H278  H     H_    0.218915 0.804055 0.613430 0.116543
C278  C     C_3   0.253280 0.878012 0.609370 -0.290022
H279  H     H_    0.273646 0.901739 0.635691 0.235897
H280  H     H_    0.269037 0.864934 0.571765 0.223119
C279  C     C_3   0.219409 0.914878 0.592968 -0.991498
H281  H     H_    0.198944 0.892256 0.565897 0.267437
H282  H     H_    0.230584 0.951140 0.570315 0.269371
H283  H     H_    0.203676 0.929351 0.630043 0.272086
O82   O     O_3   0.679581 0.259014 0.287107 -0.593036
C280  C     C_3   0.655441 0.292871 0.254859 0.058998
H284  H     H_    0.669255 0.301200 0.214427 0.117791
H285  H     H_    0.649333 0.332454 0.276068 0.125031
C281  C     C_3   0.617022 0.263190 0.244709 -0.288781
H286  H     H_    0.622611 0.224609 0.221728 0.234917
H287  H     H_    0.603432 0.252348 0.284641 0.231177
C282  C     C_3   0.588969 0.298900 0.211977 -0.999878
H288  H     H_    0.582491 0.337283 0.234770 0.266034
H289  H     H_    0.561366 0.276257 0.205365 0.268740
H290  H     H_    0.601652 0.309401 0.171373 0.268056
O83   O     O_3   0.268649 0.202771 0.340762 -0.604069
C283  C     C_3   0.246038 0.183200 0.385084 0.060221
H291  H     H_    0.215240 0.197238 0.382358 0.114560
H292  H     H_    0.258862 0.197335 0.424547 0.150228
C284  C     C_3   0.246310 0.120531 0.384180 -0.295729
H293  H     H_    0.233178 0.105851 0.345134 0.217155
H294  H     H_    0.276774 0.105640 0.386171 0.237328
C285  C     C_3   0.223599 0.096763 0.432451 -0.990028
H295  H     H_    0.236682 0.110379 0.471853 0.272697
H296  H     H_    0.224448 0.051247 0.430727 0.270361
H297  H     H_    0.192825 0.110245 0.430750 0.266420
O84   O     O_3   0.680049 0.741896 0.713182 -0.611253
C286  C     C_3   0.657324 0.707833 0.747350 0.049655
H298  H     H_    0.674278 0.693463 0.783584 0.134211
H299  H     H_    0.646748 0.671520 0.723957 0.138907
C287  C     C_3   0.622446 0.740377 0.768087 -0.292933
H300  H     H_    0.632845 0.776658 0.791532 0.230078
H301  H     H_    0.605097 0.755140 0.732565 0.234078
C288  C     C_3   0.596664 0.705339 0.805085 -0.992176
H302  H     H_    0.585375 0.669338 0.782081 0.268842
H303  H     H_    0.571669 0.730137 0.819577 0.266144
H304  H     H_    0.613310 0.690879 0.841386 0.266035
O85   O     O_3   0.225115 0.706886 0.161754 -0.592415
C289  C     C_3   0.257001 0.676171 0.142394 0.064210
H305  H     H_    0.276829 0.666289 0.177055 0.122480
H306  H     H_    0.273330 0.698780 0.109890 0.125745
C290  C     C_3   0.242038 0.622403 0.117994 -0.283123
H307  H     H_    0.225787 0.599251 0.149937 0.235645
H308  H     H_    0.221887 0.631536 0.083523 0.224022
C291  C     C_3   0.275283 0.586911 0.096781 -0.995228
H309  H     H_    0.291495 0.608864 0.064015 0.268199
H310  H     H_    0.263424 0.548228 0.079426 0.271250
H311  H     H_    0.295483 0.576508 0.130782 0.265560
O86   O     O_3   0.816673 0.245338 0.788560 -0.600459
C292  C     C_3   0.836705 0.219469 0.745240 0.059070
H312  H     H_    0.818883 0.219690 0.707162 0.116773
H313  H     H_    0.844296 0.176425 0.756381 0.125522
C293  C     C_3   0.874019 0.251373 0.733736 -0.288907
H314  H     H_    0.866520 0.294391 0.723173 0.239324
H315  H     H_    0.892515 0.251758 0.771124 0.229004
C294  C     C_3   0.896795 0.226187 0.686333 -1.000482
H316  H     H_    0.904818 0.183144 0.696072 0.267397
H317  H     H_    0.923798 0.250156 0.679407 0.266550
H318  H     H_    0.879214 0.226983 0.648088 0.264655
O87   O     O_3   0.222520 0.291456 0.836629 -0.600671
C295  C     C_3   0.254291 0.327265 0.845390 0.115105
H319  H     H_    0.243121 0.369835 0.841613 0.178655
H320  H     H_    0.277203 0.323154 0.813572 0.090578
C296  C     C_3   0.271447 0.320084 0.903119 -0.393363
H321  H     H_    0.247871 0.322926 0.934142 0.239230
H322  H     H_    0.285312 0.279119 0.906644 0.212973
C297  C     C_3   0.301991 0.363823 0.915279 -0.955322
H323  H     H_    0.326053 0.361295 0.885018 0.262428
H324  H     H_    0.314055 0.357234 0.957049 0.270313
H325  H     H_    0.288830 0.405374 0.913587 0.265460
O88   O     O_3   0.817895 0.758630 0.215728 -0.608784
C298  C     C_3   0.836832 0.790009 0.256447 0.050685
H326  H     H_    0.816874 0.800015 0.291083 0.129464
H327  H     H_    0.848107 0.828846 0.238338 0.140899
C299  C     C_3   0.870752 0.756801 0.279308 -0.293618
H328  H     H_    0.859439 0.718313 0.297889 0.232150
H329  H     H_    0.890865 0.745797 0.245379 0.234132
C300  C     C_3   0.893040 0.788954 0.322861 -0.993041
H330  H     H_    0.905074 0.827308 0.304983 0.269371
H331  H     H_    0.917443 0.763661 0.338522 0.266261
H332  H     H_    0.873636 0.799365 0.357758 0.262923
O89   O     O_3   0.774178 0.294229 0.158962 -0.593610
C301  C     C_3   0.742430 0.327256 0.143233 0.069754
H333  H     H_    0.725877 0.339936 0.180251 0.127394
H334  H     H_    0.722710 0.305369 0.114125 0.120335
C302  C     C_3   0.757790 0.378818 0.114868 -0.285463
H335  H     H_    0.777725 0.400986 0.143137 0.237301
H336  H     H_    0.774367 0.366877 0.077590 0.222667
C303  C     C_3   0.724790 0.417133 0.098257 -1.000626
H337  H     H_    0.704623 0.395988 0.069600 0.266275
H338  H     H_    0.736919 0.453823 0.077320 0.274967
H339  H     H_    0.708459 0.430800 0.135113 0.264156
O90   O     O_3   0.178045 0.759991 0.788833 -0.597313
C304  C     C_3   0.160045 0.776907 0.739364 0.106770
H340  H     H_    0.135714 0.748042 0.731304 0.180921
H341  H     H_    0.179568 0.773342 0.703422 0.104841
C305  C     C_3   0.143265 0.835107 0.743566 -0.409580
H342  H     H_    0.122764 0.837173 0.778728 0.238814
H343  H     H_    0.166984 0.865235 0.750607 0.211726
C306  C     C_3   0.122019 0.850940 0.690917 -0.950304
H344  H     H_    0.142290 0.849947 0.655444 0.261077
H345  H     H_    0.110259 0.893137 0.694969 0.270463
H346  H     H_    0.097538 0.822256 0.683125 0.265757
O91   O     O_3   0.759778 0.701463 0.840935 -0.611866
C307  C     C_3   0.731688 0.684530 0.879784 0.055603
H347  H     H_    0.702955 0.704593 0.872998 0.119707
H348  H     H_    0.742053 0.694360 0.921909 0.152731
C308  C     C_3   0.726070 0.622536 0.875036 -0.305884
H349  H     H_    0.717559 0.612028 0.832262 0.215957
H350  H     H_    0.753884 0.601490 0.884557 0.236133
C309  C     C_3   0.694692 0.602122 0.914292 -0.985625
H351  H     H_    0.702354 0.612727 0.957284 0.268869
H352  H     H_    0.691999 0.556843 0.910889 0.267819
H353  H     H_    0.666261 0.620920 0.903843 0.263122
O92   O     O_3   0.179495 0.238997 0.214214 -0.599105
C310  C     C_3   0.159693 0.206934 0.253543 0.072605
H354  H     H_    0.176690 0.204810 0.292437 0.133333
H355  H     H_    0.154509 0.164549 0.237861 0.131719
C311  C     C_3   0.120472 0.233379 0.265619 -0.296105
H356  H     H_    0.125110 0.276035 0.280318 0.236996
H357  H     H_    0.103019 0.235080 0.227256 0.227258
C312  C     C_3   0.098059 0.201062 0.308967 -0.999749
H358  H     H_    0.091904 0.158882 0.294018 0.270847
H359  H     H_    0.070066 0.221878 0.317615 0.267903
H360  H     H_    0.115030 0.198627 0.347689 0.266773
O93   O     O_3   0.599162 0.600419 0.503745 -0.613597
C313  C     C_3   0.606035 0.616834 0.558752 0.148943
H361  H     H_    0.633641 0.640491 0.559205 0.180135
H362  H     H_    0.610295 0.581704 0.587623 0.096839
C314  C     C_3   0.573362 0.654180 0.579329 -0.390344
H363  H     H_    0.568752 0.688115 0.549549 0.241477
H364  H     H_    0.545973 0.630367 0.582911 0.209811
C315  C     C_3   0.583076 0.678453 0.635422 -0.961512
H365  H     H_    0.587228 0.645191 0.666041 0.256907
H366  H     H_    0.558864 0.705072 0.649334 0.271851
H367  H     H_    0.609932 0.703631 0.632958 0.279549
O94   O     O_3   0.397648 0.433034 0.426454 -0.638711
C316  C     C_3   0.399626 0.376962 0.440849 0.108727
H368  H     H_    0.390043 0.370534 0.484141 0.153321
H369  H     H_    0.429752 0.361229 0.435869 0.120997
C317  C     C_3   0.372736 0.344470 0.402842 -0.311993
H370  H     H_    0.343169 0.362473 0.404197 0.255827
H371  H     H_    0.383563 0.347347 0.359945 0.218470
C318  C     C_3   0.370302 0.284238 0.419606 -0.967811
H372  H     H_    0.399359 0.264738 0.416752 0.262407
H373  H     H_    0.349989 0.262252 0.391829 0.284091
H374  H     H_    0.359260 0.280484 0.462292 0.269365
O95   O     O_3   0.600184 0.399776 0.506089 -0.605681
C319  C     C_3   0.594767 0.369333 0.457299 0.099618
H375  H     H_    0.600899 0.394922 0.420269 0.119934
H376  H     H_    0.564532 0.353324 0.455070 0.128597
C320  C     C_3   0.622707 0.320693 0.457347 -0.303746
H377  H     H_    0.653086 0.336141 0.457468 0.245878
H378  H     H_    0.618169 0.295812 0.495067 0.230825
C321  C     C_3   0.616496 0.284313 0.407119 -0.976108
H379  H     H_    0.587171 0.265336 0.408354 0.263597
H380  H     H_    0.638607 0.251199 0.406539 0.289617
H381  H     H_    0.619306 0.308881 0.368966 0.262889
O96   O     O_3   0.397292 0.568473 0.571914 -0.637912
C322  C     C_3   0.404656 0.624957 0.562577 0.120869
H382  H     H_    0.376664 0.644772 0.551597 0.177087
H383  H     H_    0.425182 0.633718 0.528116 0.114909
C323  C     C_3   0.420030 0.651162 0.615346 -0.359386
H384  H     H_    0.398476 0.645310 0.648806 0.239818
H385  H     H_    0.447530 0.630814 0.627683 0.218337
C324  C     C_3   0.427584 0.712398 0.607669 -0.969252
H386  H     H_    0.449478 0.719137 0.574865 0.266952
H387  H     H_    0.438891 0.730137 0.646496 0.269460
H388  H     H_    0.400250 0.733874 0.596594 0.271507
O97   O     O_3   0.102324 0.060264 0.921479 -0.641007
C325  C     C_3   0.100137 0.117477 0.930015 0.109060
H389  H     H_    0.110430 0.128443 0.972043 0.154618
H390  H     H_    0.069822 0.132277 0.924432 0.121855
C326  C     C_3   0.126130 0.146086 0.887866 -0.329289
H391  H     H_    0.156159 0.129866 0.891247 0.249591
H392  H     H_    0.115250 0.137169 0.845821 0.213383
C327  C     C_3   0.127028 0.208072 0.896508 -0.939309
H393  H     H_    0.097328 0.225383 0.892797 0.259861
H394  H     H_    0.145837 0.227352 0.864878 0.290884
H395  H     H_    0.138998 0.217973 0.937694 0.269368
O98   O     O_3   0.900695 0.900038 0.011867 -0.612823
C328  C     C_3   0.892524 0.888457 0.067725 0.147408
H396  H     H_    0.865133 0.864341 0.068825 0.181141
H397  H     H_    0.887207 0.925931 0.093038 0.094531
C329  C     C_3   0.924960 0.853838 0.093295 -0.388825
H398  H     H_    0.931186 0.818056 0.066433 0.242542
H399  H     H_    0.951804 0.878867 0.097020 0.209331
C330  C     C_3   0.913561 0.833183 0.150226 -0.960888
H400  H     H_    0.907197 0.868269 0.177883 0.256138
H401  H     H_    0.937824 0.809080 0.168052 0.271043
H402  H     H_    0.887562 0.806302 0.147471 0.281194
O99   O     O_3   0.103121 0.935719 0.076193 -0.640793
C331  C     C_3   0.095944 0.878822 0.069315 0.120668
H403  H     H_    0.124167 0.858509 0.060725 0.176609
H404  H     H_    0.076335 0.868426 0.034213 0.118313
C332  C     C_3   0.079265 0.855026 0.122461 -0.358517
H405  H     H_    0.100447 0.861011 0.156399 0.236459
H406  H     H_    0.052050 0.876864 0.133342 0.218664
C333  C     C_3   0.070455 0.793934 0.116473 -0.967789
H407  H     H_    0.048851 0.787132 0.083277 0.267120
H408  H     H_    0.058221 0.777919 0.155477 0.269289
H409  H     H_    0.097430 0.770942 0.106826 0.271528
O100  O     O_3   0.900127 0.100248 0.996745 -0.604573
C334  C     C_3   0.905169 0.124859 0.944688 0.098491
H410  H     H_    0.895232 0.096691 0.911411 0.122365
H411  H     H_    0.936159 0.135917 0.937783 0.126071
C335  C     C_3   0.881029 0.177322 0.942133 -0.303316
H412  H     H_    0.849772 0.166790 0.946422 0.241033
H413  H     H_    0.889257 0.204741 0.976714 0.230512
C336  C     C_3   0.887439 0.207740 0.888094 -0.977971
H414  H     H_    0.918049 0.221789 0.884913 0.261506
H415  H     H_    0.868135 0.244146 0.886270 0.298391
H416  H     H_    0.880745 0.180557 0.852745 0.261161

loop_
_geom_bond_atom_site_label_1
_geom_bond_atom_site_label_2
_geom_bond_distance
_ccdc_geom_bond_type
Zn6   O16   1.928542 S    
C112  C128  1.397267 A    
O80   C274  1.411136 S    
Zn7   O13   1.929162 S    
C28   C34   1.398508 A    
C62   C78   1.393347 A    
C249  H213  1.111013 S    
C108  H20   1.083663 S    
C40   C52   1.423603 A    
C31   C35   1.394283 A    
O95   C319  1.413248 S    
C75   C91   1.399098 A    
Zn5   O51   1.942367 S    
C231  H169  1.110847 S    
C134  C150  1.417958 A    
C311  C312  1.526284 S    
C288  H303  1.110286 S    
C336  H414  1.110723 S    
C132  O88   1.381547 S    
C182  H53   1.110468 S    
C95   C111  1.399264 A    
O85   C289  1.411259 S    
C219  H141  1.110960 S    
C32   C42   1.412153 A    
C286  H299  1.113451 S    
C293  C294  1.525622 S    
C93   C109  1.398655 A    
C302  C303  1.526439 S    
C252  H218  1.110792 S    
Zn3   O12   1.928786 S    
C264  H247  1.110372 S    
C44   C56   1.423181 A    
C259  C260  1.527997 S    
C215  H136  1.103560 S    
C333  H408  1.109975 S    
C238  H187  1.113371 S    
C187  C188  1.525821 S    
C306  H344  1.111295 S    
C32   C36   1.400016 A    
C314  C315  1.525726 S    
C69   O73   1.383173 S    
C255  H225  1.110929 S    
C86   H14   1.083727 S    
C197  H89   1.111353 S    
C246  H206  1.110945 S    
C163  O95   1.385784 S    
C159  C175  1.397227 A    
C326  H392  1.111705 S    
C115  C131  1.392316 A    
O35   C12   1.279762 A    
C39   C45   1.427698 A    
C266  H252  1.111757 S    
C30   O58   1.386555 S    
C106  H18   1.083659 S    
C168  C172  1.417854 A    
O45   C21   1.279249 A    
O70   C244  1.414735 S    
C236  H182  1.111670 S    
C296  C297  1.525659 S    
C323  H385  1.111026 S    
C260  H238  1.111694 S    
C127  O83   1.387961 S    
C76   H4    1.083707 S    
C61   C77   1.393365 A    
C130  C146  1.412226 A    
C183  C184  1.528822 S    
C200  H96   1.110926 S    
Zn4   O2    1.943622 S    
C70   C86   1.392688 A    
C192  H77   1.118307 S    
C72   O76   1.383332 S    
O93   C313  1.418022 S    
C38   C50   1.415417 A    
Zn10  O25   1.928234 S    
C234  H177  1.110353 S    
C251  H217  1.111685 S    
C74   H2    1.083780 S    
C329  C330  1.526366 S    
O11   C7    1.279811 A    
C27   O55   1.384910 S    
O78   C268  1.410717 S    
C160  C176  1.392641 A    
C153  C173  1.393271 A    
C322  C323  1.529396 S    
C237  H184  1.110552 S    
C323  C324  1.526114 S    
O33   C10   1.279622 A    
C226  H158  1.110939 S    
C283  C284  1.527641 S    
C284  C285  1.526047 S    
C157  H37   1.083528 S    
O58   C192  1.420668 S    
Zn14  O30   1.928414 S    
C278  C279  1.526530 S    
C25   C33   1.395853 A    
C263  H244  1.110564 S    
C293  H314  1.110321 S    
C220  C221  1.526720 S    
C307  H348  1.112235 S    
C265  C266  1.527799 S    
C325  H389  1.115570 S    
C228  H162  1.111140 S    
C333  H409  1.110896 S    
C235  C236  1.527935 S    
C121  C137  1.410677 A    
C139  C148  1.470008 S    
C289  C290  1.527847 S    
Zn12  O24   1.929153 S    
C256  C257  1.527039 S    
C181  H51   1.107977 S    
C330  H400  1.110852 S    
C214  H129  1.110537 S    
C309  H351  1.110220 S    
C205  H111  1.105486 S    
C295  H319  1.110878 S    
O16   C12   1.278126 A    
C94   C110  1.397197 A    
O40   C18   1.273451 A    
O83   C283  1.413768 S    
C128  C144  1.405980 A    
C315  H367  1.110938 S    
C208  H112  1.108677 S    
C218  C219  1.526134 S    
C57   O61   1.381856 S    
C195  H83   1.115667 S    
C303  H338  1.110483 S    
C253  H221  1.112052 S    
C318  H374  1.110862 S    
C64   O68   1.381885 S    
C59   C75   1.395838 A    
C265  H250  1.116703 S    
C60   C76   1.392717 A    
C209  H121  1.106426 S    
C126  O82   1.383341 S    
C72   C88   1.394483 A    
C73   H1    1.083537 S    
O54   C180  1.420687 S    
C155  H35   1.083456 S    
Zn7   O3    1.943624 S    
C156  H36   1.083256 S    
C276  H274  1.110780 S    
C313  H362  1.117630 S    
C321  H379  1.110700 S    
C128  O84   1.381805 S    
C274  H270  1.111146 S    
C58   C138  1.413217 A    
C231  H171  1.110962 S    
C42   C48   1.418483 A    
C114  C130  1.392858 A    
C250  H214  1.117181 S    
C336  H416  1.110402 S    
C181  H50   1.110989 S    
C190  C191  1.525151 S    
C153  H33   1.083708 S    
O49   C23   1.279063 A    
C317  H370  1.109908 S    
C164  C170  1.405784 A    
C308  H350  1.111640 S    
C177  C178  1.529234 S    
C284  H294  1.111750 S    
O88   C298  1.411476 S    
C142  C149  1.471939 S    
C317  C318  1.525870 S    
C131  C147  1.416973 A    
C63   O67   1.383145 S    
C331  H403  1.111428 S    
C310  H355  1.115615 S    
C263  C264  1.525859 S    
O42   C20   1.280110 A    
O50   C24   1.273270 A    
Zn6   O17   1.929696 S    
C241  H193  1.111652 S    
C330  H402  1.110814 S    
C300  H332  1.111037 S    
C268  H256  1.111567 S    
C239  C240  1.526126 S    
C269  C270  1.526052 S    
C111  C127  1.401693 A    
Zn10  O22   1.928414 S    
C257  H230  1.111598 S    
C179  H46   1.110560 S    
C275  H272  1.111587 S    
O65   C229  1.411007 S    
C240  H192  1.111186 S    
C109  C125  1.391988 A    
C230  H168  1.111643 S    
C87   C103  1.399565 A    
C280  H284  1.112329 S    
C214  H127  1.108605 S    
C177  H42   1.113703 S    
C41   C53   1.421656 A    
C229  H165  1.111760 S    
C77   H5    1.083542 S    
Zn10  O2    1.945659 S    
C83   H11   1.083711 S    
C138  C145  1.471743 S    
C233  H174  1.111894 S    
O52   C24   1.274404 A    
C104  C120  1.397996 A    
Zn3   O1    1.943624 S    
C270  H262  1.111018 S    
C10   C100  1.458799 S    
C303  H339  1.110942 S    
C335  H412  1.111337 S    
C7    C93   1.459534 S    
O43   C19   1.272251 A    
C131  O87   1.385615 S    
C207  C208  1.529782 S    
C112  H24   1.083708 S    
C79   C95   1.398620 A    
C163  C169  1.417845 A    
C262  C263  1.527300 S    
C67   O71   1.383564 S    
C245  H202  1.111901 S    
C26   C34   1.405575 A    
O67   C235  1.411084 S    
C120  C136  1.393633 A    
O76   C262  1.411427 S    
O5    C1    1.281146 A    
C282  H288  1.110880 S    
C224  H154  1.111741 S    
C178  H43   1.112094 S    
C221  H146  1.111205 S    
O37   C17   1.279814 A    
C116  C132  1.394879 A    
C240  H191  1.110314 S    
C264  H246  1.110858 S    
C229  H166  1.115807 S    
C2    C92   1.459956 S    
C66   C146  1.409206 A    
O87   C295  1.414895 S    
C283  H292  1.112197 S    
C203  C204  1.531298 S    
C88   C104  1.399338 A    
Zn13  O29   1.928414 S    
C186  H63   1.118903 S    
O77   C265  1.411636 S    
C49   C201  1.534730 S    
C158  C166  1.388097 A    
C284  H293  1.111909 S    
Zn16  O35   1.928560 S    
C123  C139  1.407595 A    
C97   C113  1.397782 A    
C244  C245  1.527047 S    
C241  C242  1.528181 S    
C266  H251  1.111825 S    
O44   C20   1.279398 A    
C122  O78   1.383413 S    
C320  H378  1.111662 S    
C267  H253  1.110938 S    
O61   C217  1.411660 S    
C269  H258  1.111559 S    
C86   C102  1.397249 A    
C102  C118  1.398534 A    
C300  H330  1.110910 S    
C68   O72   1.387936 S    
C115  H27   1.083752 S    
C37   C45   1.423763 A    
C319  H375  1.116490 S    
C243  H199  1.110956 S    
C298  H327  1.113671 S    
O72   C250  1.414649 S    
C261  H240  1.110199 S    
C126  C142  1.411108 A    
C334  H411  1.113317 S    
O60   C198  1.419260 S    
C101  C117  1.398827 A    
O79   C271  1.414422 S    
C82   H10   1.082529 S    
C195  C196  1.528341 S    
C271  H263  1.116985 S    
C78   C94   1.397609 A    
C77   C93   1.398670 A    
Zn16  O44   1.943189 S    
C188  H67   1.110437 S    
C202  H97   1.110683 S    
C239  H189  1.111596 S    
C9    C99   1.457927 S    
C289  H305  1.112208 S    
C109  H21   1.083633 S    
C64   C144  1.406201 A    
C262  H242  1.111652 S    
C57   C73   1.394189 A    
C206  H107  1.108296 S    
C292  H313  1.114974 S    
C276  H276  1.111060 S    
C70   O74   1.383122 S    
C63   C79   1.393428 A    
C12   C98   1.457632 S    
C160  H40   1.083613 S    
O36   C11   1.279360 A    
C312  H358  1.110817 S    
C219  H143  1.111051 S    
C129  C145  1.412994 A    
C306  H346  1.110858 S    
C215  H135  1.107127 S    
C304  H340  1.110861 S    
C287  H300  1.111522 S    
C285  H296  1.110600 S    
C180  H49   1.118223 S    
C155  C173  1.392958 A    
C188  H66   1.110791 S    
C134  O90   1.387748 S    
C136  C152  1.409931 A    
C191  H75   1.111057 S    
C305  H343  1.110949 S    
O66   C232  1.410886 S    
C183  H56   1.113342 S    
O89   C301  1.411518 S    
C217  H138  1.114335 S    
C324  H387  1.110086 S    
C250  C251  1.527079 S    
C268  C269  1.527987 S    
C30   C44   1.416890 A    
C225  H155  1.110910 S    
C203  H106  1.107642 S    
C80   H8    1.083538 S    
C257  C258  1.526159 S    
C67   C147  1.415446 A    
C110  C126  1.395385 A    
C81   H9    1.083681 S    
O94   C316  1.412534 S    
C329  H399  1.110659 S    
C277  H277  1.111415 S    
C280  C281  1.527273 S    
C105  H17   1.083653 S    
O38   C18   1.272874 A    
Zn15  O31   1.929155 S    
C308  C309  1.526020 S    
C311  H357  1.111617 S    
C106  C122  1.393159 A    
C316  H368  1.115926 S    
C88   H16   1.083681 S    
C233  C234  1.526076 S    
O41   C19   1.273027 A    
C14   C104  1.458965 S    
C291  H309  1.110959 S    
C132  C148  1.408081 A    
C202  H99   1.110829 S    
C327  H394  1.110532 S    
C197  H88   1.110165 S    
C232  H172  1.112044 S    
C110  H22   1.081903 S    
Zn4   O6    1.929164 S    
C248  H209  1.111800 S    
C245  C246  1.526584 S    
C71   C87   1.402796 A    
C288  H304  1.111171 S    
C76   C92   1.398161 A    
C267  H254  1.110431 S    
C244  H200  1.117042 S    
C305  C306  1.525969 S    
C248  C249  1.526402 S    
C161  C169  1.418822 A    
Zn11  O28   1.928557 S    
C107  H19   1.082440 S    
C212  H124  1.110623 S    
C167  O99   1.387237 S    
C330  H401  1.110384 S    
C199  C200  1.525624 S    
C278  H279  1.111811 S    
C154  C174  1.397906 A    
C125  O81   1.383810 S    
C332  H406  1.110747 S    
C295  H320  1.110868 S    
C288  H302  1.110906 S    
C297  H324  1.110487 S    
C184  H58   1.111782 S    
C215  C216  1.529603 S    
C198  C199  1.529339 S    
C186  H62   1.111246 S    
C66   O70   1.389336 S    
C158  H38   1.083758 S    
C204  H104  1.110688 S    
C55   C213  1.530703 S    
C44   C48   1.421436 A    
Zn4   O11   1.928784 S    
O8    C4    1.279315 A    
C71   O75   1.387988 S    
C294  H317  1.110536 S    
C210  H117  1.110638 S    
C254  C255  1.526347 S    
C196  H85   1.112284 S    
C211  H125  1.108381 S    
C3    C89   1.461499 S    
C279  H283  1.111077 S    
C213  H130  1.106548 S    
C319  C320  1.527956 S    
C243  H198  1.110577 S    
C223  H151  1.115069 S    
C70   C150  1.414067 A    
C231  H170  1.110567 S    
C315  H366  1.110368 S    
O91   C307  1.414569 S    
C83   C99   1.396940 A    
C113  C129  1.392654 A    
C297  H325  1.110862 S    
C1    C91   1.462350 S    
Zn1   O1    1.942920 S    
O32   C15   1.280191 A    
C258  H234  1.110948 S    
C61   O65   1.383195 S    
C118  H30   1.083713 S    
C273  H269  1.110937 S    
C317  H371  1.111640 S    
C201  H101  1.106213 S    
C274  C275  1.527496 S    
C62   O66   1.382642 S    
C79   H7    1.083543 S    
C194  H82   1.111133 S    
C25   O53   1.383628 S    
C62   C142  1.413167 A    
C299  H328  1.111540 S    
Zn1   O10   1.929694 S    
C60   O64   1.385724 S    
C185  H61   1.110975 S    
C206  H109  1.110828 S    
C116  H28   1.083533 S    
C255  H226  1.110514 S    
O9    C5    1.280459 A    
O47   C21   1.274602 A    
C18   C170  1.445689 S    
C326  H391  1.110774 S    
C260  C261  1.526144 S    
C289  H306  1.116237 S    
O63   C223  1.411834 S    
C160  C168  1.393011 A    
C272  C273  1.526450 S    
C224  H153  1.111845 S    
O13   C9    1.281068 A    
C193  H78   1.110645 S    
C154  H34   1.083612 S    
O73   C253  1.410781 S    
C304  C305  1.535924 S    
C29   O57   1.386692 S    
C175  C176  1.453920 S    
C296  H322  1.110661 S    
C325  H390  1.113403 S    
C234  H176  1.110958 S    
C158  C176  1.394052 A    
O18   C14   1.279770 A    
C272  H266  1.111718 S    
C273  H268  1.110568 S    
C230  C231  1.526406 S    
O6    C2    1.280352 A    
C27   C33   1.394040 A    
C165  O97   1.385193 S    
C282  H290  1.110964 S    
O21   C6    1.279992 A    
C59   C139  1.406934 A    
C144  C151  1.469524 S    
C59   O63   1.382362 S    
C51   C205  1.530870 S    
C282  H289  1.110281 S    
C107  C123  1.404303 A    
Zn7   O20   1.928786 S    
C16   C102  1.459689 S    
C72   C152  1.413521 A    
O48   C22   1.275294 A    
C286  H298  1.114658 S    
C232  H173  1.116186 S    
C266  C267  1.526389 S    
C287  H301  1.111378 S    
C187  H65   1.110455 S    
C166  O98   1.384265 S    
C133  C149  1.413506 A    
C308  H349  1.111993 S    
C322  H383  1.117931 S    
C50   C203  1.531587 S    
C301  H333  1.111066 S    
C316  C317  1.529524 S    
Zn15  O3    1.943091 S    
C78   H6    1.083739 S    
C53   C209  1.534416 S    
C189  H70   1.115732 S    
C120  H32   1.083721 S    
C291  H311  1.110913 S    
C190  H71   1.110652 S    
C247  H207  1.111516 S    
C250  H215  1.112368 S    
C100  C116  1.398994 A    
C232  C233  1.527075 S    
C8    C94   1.457056 S    
C207  H115  1.107039 S    
C278  H280  1.111756 S    
O69   C241  1.411079 S    
C29   C43   1.414938 A    
C208  H114  1.110580 S    
C263  H245  1.111590 S    
C281  H286  1.111494 S    
C220  H145  1.115927 S    
O29   C14   1.280268 A    
C52   C207  1.530149 S    
C125  C141  1.414084 A    
C31   C41   1.414302 A    
C103  C119  1.398666 A    
C178  C179  1.527317 S    
C297  H323  1.111087 S    
O62   C220  1.410691 S    
C68   C148  1.407147 A    
O53   C177  1.415268 S    
C249  H211  1.110897 S    
O57   C189  1.420043 S    
C185  H60   1.110677 S    
C40   C46   1.421727 A    
C256  H229  1.115437 S    
C332  H405  1.111793 S    
C199  H92   1.111106 S    
O10   C6    1.281204 A    
C309  H352  1.110465 S    
C84   H12   1.082774 S    
O59   C195  1.411968 S    
C153  C161  1.387397 A    
O98   C328  1.417629 S    
C218  H140  1.111659 S    
C189  C190  1.529793 S    
C195  H84   1.114437 S    
C226  C227  1.535902 S    
C253  H222  1.115829 S    
C198  H90   1.111164 S    
C318  H373  1.110442 S    
C159  C167  1.392894 A    
C283  H291  1.116940 S    
C4    C90   1.458029 S    
C216  H134  1.110536 S    
C32   O60   1.386975 S    
C209  H120  1.110114 S    
C325  C326  1.529759 S    
C190  H72   1.110141 S    
C187  H64   1.111590 S    
C124  O80   1.383894 S    
C294  H316  1.110790 S    
C80   C96   1.400253 A    
C81   C97   1.398820 A    
C313  C314  1.532820 S    
C37   C49   1.421934 A    
C321  H380  1.110522 S    
C223  C224  1.527285 S    
C281  C282  1.525792 S    
C39   C51   1.426273 A    
C336  H415  1.110410 S    
C219  H142  1.110433 S    
C235  H180  1.115585 S    
C209  C210  1.530697 S    
C182  H54   1.110904 S    
C228  H163  1.110654 S    
Zn14  O42   1.941903 S    
C286  C287  1.526631 S    
C204  H103  1.108070 S    
C253  C254  1.527995 S    
Zn13  O3    1.945655 S    
C43   C55   1.424896 A    
C258  H232  1.110841 S    
Zn14  O4    1.945659 S    
C291  H310  1.110567 S    
C108  C124  1.392975 A    
C331  H404  1.118213 S    
C189  H69   1.111087 S    
C49   C52   1.415380 A    
C320  H377  1.111496 S    
O19   C15   1.279582 A    
C333  H407  1.110898 S    
C238  C239  1.526846 S    
C241  H194  1.116273 S    
C335  C336  1.526436 S    
C254  H223  1.112012 S    
C58   C74   1.392294 A    
O55   C183  1.412209 S    
C213  H131  1.103886 S    
O74   C256  1.410782 S    
C192  C193  1.526911 S    
C321  H381  1.109548 S    
C214  H128  1.111065 S    
O39   C17   1.279571 A    
C326  C327  1.525682 S    
C275  H273  1.111557 S    
C260  H237  1.111939 S    
C327  H395  1.110842 S    
C119  C135  1.401659 A    
C302  H335  1.111836 S    
O7    C3    1.280393 A    
Zn7   O49   1.942015 S    
C156  C164  1.392888 A    
C154  C162  1.392058 A    
C117  C133  1.392937 A    
C322  H382  1.111451 S    
C193  C194  1.525829 S    
C236  C237  1.526500 S    
C233  H175  1.111694 S    
C323  H384  1.111613 S    
C334  H410  1.115702 S    
C19   C171  1.443802 S    
O31   C16   1.280017 A    
C65   O69   1.383289 S    
C20   C172  1.469771 S    
C287  C288  1.525765 S    
C277  H278  1.116946 S    
C90   C106  1.398939 A    
C264  H248  1.111030 S    
C293  H315  1.111163 S    
C262  H243  1.116449 S    
C245  H203  1.111708 S    
C26   O54   1.385996 S    
C234  H178  1.110979 S    
C252  H220  1.110989 S    
C275  C276  1.526173 S    
Zn9   O37   1.941903 S    
C251  H216  1.111955 S    
C28   O56   1.386500 S    
O12   C8    1.278648 A    
C259  H235  1.117246 S    
Zn11  O39   1.943189 S    
C307  H347  1.116684 S    
C222  H148  1.110927 S    
C229  C230  1.527853 S    
C45   C46   1.411193 A    
C237  H183  1.110936 S    
Zn11  O1    1.943091 S    
O68   C238  1.412691 S    
C239  H188  1.112069 S    
O64   C226  1.414625 S    
Zn15  O43   1.943190 S    
C247  C248  1.527935 S    
C141  C150  1.472178 S    
C157  C165  1.392843 A    
C277  C278  1.527556 S    
C69   C149  1.413425 A    
C272  H265  1.111967 S    
C271  C272  1.527908 S    
C75   H3    1.083574 S    
Zn5   O3    1.942920 S    
C60   C140  1.415931 A    
C227  C228  1.525426 S    
Zn6   O4    1.942922 S    
O24   C7    1.279483 A    
C156  C174  1.397297 A    
Zn8   O14   1.929164 S    
C162  C170  1.407226 A    
C319  H376  1.112841 S    
C185  H59   1.109734 S    
C222  H150  1.110950 S    
C124  C140  1.416470 A    
C42   C54   1.416556 A    
C91   C107  1.400359 A    
C261  H241  1.110970 S    
O97   C325  1.412023 S    
C61   C141  1.413830 A    
C67   C83   1.392127 A    
C221  C222  1.526028 S    
C303  H337  1.110844 S    
C271  H264  1.112113 S    
C137  C146  1.471242 S    
C281  H287  1.111173 S    
Zn2   O9    1.929696 S    
C31   O59   1.385118 S    
C267  H255  1.110937 S    
C265  H249  1.111887 S    
C202  H98   1.106973 S    
C290  H308  1.111760 S    
O99   C331  1.418218 S    
C11   C97   1.458287 S    
C140  C147  1.473679 S    
Zn13  O41   1.941902 S    
C211  C212  1.530284 S    
C206  H108  1.111101 S    
C292  H312  1.111978 S    
C85   H13   1.083595 S    
O34   C9    1.278992 A    
C276  H275  1.110451 S    
C313  H361  1.111311 S    
C178  H44   1.111611 S    
C63   C143  1.411800 A    
C331  C332  1.530101 S    
C68   C84   1.402983 A    
C251  C252  1.526417 S    
C47   C48   1.410512 A    
C257  H231  1.111573 S    
O25   C2    1.280755 A    
C334  C335  1.527439 S    
C237  H185  1.110994 S    
C184  H57   1.112165 S    
Zn8   O50   1.942015 S    
O27   C4    1.278881 A    
C161  O93   1.384255 S    
C21   C34   1.464928 S    
Zn2   O2    1.942922 S    
C180  H48   1.111274 S    
Zn8   O19   1.928784 S    
C167  C171  1.405339 A    
C270  H260  1.110773 S    
C98   C114  1.396140 A    
C135  C151  1.406388 A    
C23   C36   1.465285 S    
C298  H326  1.115633 S    
C310  C311  1.526267 S    
Zn16  O32   1.929155 S    
C222  H149  1.110159 S    
O100  C334  1.413177 S    
C295  C296  1.534998 S    
C238  H186  1.116574 S    
C74   C90   1.397770 A    
C155  C163  1.393414 A    
C324  H386  1.110888 S    
C268  H257  1.115136 S    
C26   C40   1.417514 A    
Zn9   O26   1.928236 S    
Zn8   O4    1.943622 S    
C225  H156  1.109874 S    
C38   C46   1.418052 A    
C166  C172  1.419099 A    
C246  H205  1.110301 S    
C221  H147  1.111683 S    
C179  H45   1.110803 S    
Zn12  O27   1.928559 S    
C280  H285  1.114777 S    
C127  C143  1.408541 A    
C177  H41   1.115678 S    
C105  C121  1.394498 A    
C92   C108  1.397684 A    
Zn14  O33   1.928234 S    
C118  C134  1.393996 A    
O84   C286  1.411650 S    
C236  H181  1.111933 S    
C66   C82   1.402674 A    
C279  H281  1.110964 S    
C135  O91   1.386915 S    
O90   C304  1.416306 S    
C290  H307  1.111852 S    
O28   C3    1.279670 A    
C328  H397  1.117409 S    
C240  H190  1.110938 S    
C162  O94   1.385013 S    
C217  H137  1.115676 S    
C305  H342  1.111353 S    
C53   C56   1.414547 A    
C27   C37   1.414978 A    
C24   C35   1.455661 S    
C314  H364  1.110340 S    
C50   C51   1.413238 A    
C58   O62   1.382744 S    
C212  H122  1.110963 S    
C182  H52   1.110816 S    
C269  H259  1.111561 S    
C216  H133  1.111109 S    
C225  H157  1.110992 S    
C224  C225  1.526094 S    
C56   C215  1.529999 S    
C248  H210  1.111812 S    
C84   C100  1.399156 A    
C242  H195  1.111890 S    
C249  H212  1.110044 S    
C307  C308  1.527449 S    
Zn16  O4    1.943087 S    
Zn6   O52   1.942367 S    
C186  C187  1.529421 S    
C328  H396  1.111176 S    
C73   C89   1.399985 A    
C198  H91   1.118726 S    
C256  H228  1.112052 S    
C191  H74   1.109543 S    
C294  H318  1.110975 S    
Zn1   O47   1.942367 S    
O51   C23   1.275183 A    
C312  H360  1.110988 S    
Zn2   O48   1.942367 S    
C252  H219  1.110299 S    
C210  H118  1.107107 S    
Zn3   O45   1.942015 S    
C211  H126  1.107547 S    
C259  H236  1.112187 S    
C123  O79   1.389353 S    
C254  H224  1.111687 S    
C69   C85   1.393430 A    
C64   C80   1.397176 A    
C57   C137  1.410361 A    
C65   C81   1.392806 A    
O82   C280  1.410758 S    
C230  H167  1.111939 S    
C270  H261  1.110565 S    
C205  H110  1.106178 S    
C298  C299  1.527066 S    
C164  O96   1.387136 S    
C216  H132  1.108804 S    
C261  H239  1.110592 S    
O86   C292  1.410266 S    
C121  O77   1.383122 S    
C309  H353  1.111101 S    
C306  H345  1.110303 S    
C173  C174  1.452659 S    
Zn15  O36   1.928557 S    
C168  O100  1.385322 S    
C136  O92   1.381453 S    
C122  C138  1.414570 A    
O26   C1    1.281176 A    
C99   C115  1.397288 A    
C320  C321  1.525873 S    
Zn13  O34   1.928237 S    
C188  H68   1.110893 S    
C258  H233  1.110135 S    
O14   C10   1.280826 A    
C328  C329  1.532878 S    
C130  O86   1.382711 S    
C201  H100  1.110048 S    
C274  H271  1.115768 S    
C22   C33   1.455982 S    
C111  H23   1.082536 S    
O56   C186  1.418568 S    
C133  O89   1.383099 S    
C191  H73   1.110851 S    
C194  H81   1.110447 S    
O30   C13   1.281093 A    
C302  H336  1.111756 S    
C299  H329  1.111619 S    
C213  C214  1.529477 S    
C217  C218  1.527666 S    
C246  H204  1.110989 S    
C292  C293  1.527142 S    
Zn5   O18   1.929694 S    
C332  C333  1.526173 S    
Zn9   O21   1.928412 S    
C314  H363  1.111488 S    
C129  O85   1.383069 S    
C255  H227  1.110932 S    
C29   C35   1.399681 A    
O23   C8    1.279276 A    
C243  H197  1.110887 S    
Zn11  O23   1.929155 S    
C312  H359  1.110338 S    
Zn12  O40   1.943190 S    
Zn9   O1    1.945657 S    
C242  H196  1.111715 S    
C193  H79   1.107616 S    
Zn1   O7    1.928544 S    
C301  H334  1.116838 S    
C304  H341  1.107537 S    
Zn2   O8    1.928542 S    
C285  H295  1.110644 S    
C180  C181  1.527112 S    
Zn3   O5    1.929162 S    
C212  H123  1.107754 S    
Zn12  O2    1.943089 S    
C310  H354  1.114612 S    
C207  H116  1.104404 S    
O71   C247  1.412565 S    
C183  H55   1.116337 S    
C299  C300  1.525352 S    
C157  C175  1.399135 A    
C200  H94   1.110812 S    
C324  H388  1.110905 S    
C96   C112  1.401133 A    
C28   C38   1.412696 A    
O96   C322  1.417810 S    
C290  C291  1.526338 S    
C143  C152  1.471728 S    
C335  H413  1.111673 S    
C179  H47   1.110888 S    
C71   C151  1.406342 A    
C329  H398  1.111523 S    
C82   C98   1.398101 A    
C296  H321  1.111622 S    
C181  C182  1.525979 S    
O15   C11   1.279012 A    
C311  H356  1.110962 S    
C316  H369  1.113384 S    
C301  C302  1.527905 S    
O81   C277  1.412093 S    
C227  H161  1.110717 S    
C227  H160  1.111620 S    
C119  H31   1.082990 S    
Zn4   O46   1.942015 S    
C327  H393  1.110725 S    
C223  H152  1.114922 S    
C247  H208  1.117831 S    
O92   C310  1.411399 S    
C273  H267  1.110945 S    
C117  H29   1.083645 S    
O75   C259  1.414492 S    
C300  H331  1.110429 S    
C318  H372  1.110708 S    
C194  H80   1.110823 S    
C201  C202  1.531085 S    
C25   C39   1.416808 A    
C208  H113  1.111084 S    
C220  H144  1.111960 S    
C204  H102  1.111131 S    
C85   C101  1.398973 A    
O20   C16   1.279280 A    
C159  H39   1.082866 S    
C30   C36   1.406804 A    
O46   C22   1.272583 A    
C89   C105  1.400138 A    
C235  H179  1.112223 S    
C244  H201  1.112250 S    
C203  H105  1.108710 S    
C165  C171  1.405670 A    
C17   C169  1.469486 S    
C196  H86   1.111995 S    
C197  H87   1.110725 S    
Zn10  O38   1.941902 S    
C242  C243  1.526480 S    
C199  H93   1.110202 S    
C228  H164  1.110805 S    
C279  H282  1.110247 S    
C41   C47   1.422983 A    
C5    C95   1.460491 S    
C87   H15   1.082795 S    
C196  C197  1.525789 S    
C6    C96   1.461166 S    
C315  H365  1.110768 S    
C285  H297  1.110901 S    
C218  H139  1.112015 S    
C184  C185  1.524961 S    
C65   C145  1.414174 A    
C226  H159  1.110356 S    
C192  H76   1.111223 S    
C15   C101  1.460537 S    
C43   C47   1.426167 A    
C210  H119  1.110661 S    
C200  H95   1.110449 S    
C54   C55   1.412496 A    
O17   C13   1.279778 A    
C13   C103  1.460756 S    
C205  C206  1.529914 S    
C54   C211  1.532239 S    
C113  H25   1.083701 S    
Zn5   O15   1.928544 S    
O22   C5    1.280382 A    
C114  H26   1.080957 S    
