data_mof_unit_12502.cif
_audit_creation_date              2012-12-11T15:39:05-0500
_audit_creation_method            fapswitch 2.2
_symmetry_space_group_name_H-M    P1
_symmetry_Int_Tables_number       1
_space_group_crystal_system       triclinic
_cell_length_a                    14.300026
_cell_length_b                    14.824717
_cell_length_c                    33.2364
_cell_angle_alpha                 98.216303
_cell_angle_beta                  90.30419
_cell_angle_gamma                 118.737592
_cell_volume                      6092.37656869

loop_
_atom_site_label
_atom_site_type_symbol
_atom_type_description
_atom_site_fract_x
_atom_site_fract_y
_atom_site_fract_z
_atom_type_partial_charge
C1    C     C_R   0.617355 0.909213 0.436960 0.566686
C2    C     C_R   0.757178 0.409553 0.184219 -0.068175
C3    C     C_R   0.693376 0.916307 0.660434 -0.175610
C4    C     C_R   0.619249 0.815662 0.666778 0.056562
C5    C     C_R   0.630043 0.870195 0.588911 -0.011933
C6    C     C_R   0.053583 0.782069 0.063446 0.590151
C7    C     C_R   0.743961 0.486676 0.066007 0.556200
C8    C     C_R   0.741636 0.790095 0.065949 0.539482
C9    C     C_R   0.022435 0.732125 0.947710 0.623037
C10   C     C_R   0.711650 0.436060 0.949585 0.541644
C11   C     C_R   0.709862 0.739389 0.950315 0.600588
C12   C     C_R   0.792519 0.365196 0.151241 0.301586
C13   C     C_R   0.780755 0.383261 0.111691 0.254290
C14   C     C_R   0.699879 0.283692 0.232929 -0.094962
C15   C     C_R   0.685779 0.263261 0.272711 -0.092462
C16   C     C_R   0.729087 0.345690 0.305816 0.009866
C17   C     C_R   0.789995 0.448548 0.298878 -0.108330
C18   C     C_R   0.804543 0.468983 0.259061 -0.103089
C19   C     C_R   0.757825 0.386785 0.225877 0.013933
C20   C     C_R   0.592804 0.278334 0.354233 -0.165692
C21   C     C_R   0.594399 0.205915 0.456883 0.520944
C22   C     C_R   0.559657 0.248738 0.391593 -0.165714
C23   C     C_R   0.745432 0.319972 0.417580 0.303109
C24   C     C_R   0.778967 0.346982 0.379361 0.314049
C25   C     C_R   0.701310 0.324172 0.347191 -0.037379
C26   C     C_R   0.634404 0.264651 0.422945 -0.037208
C27   C     C_R   0.239690 0.875269 0.393271 0.007514
C28   C     C_R   0.229362 0.957940 0.380453 0.190640
C29   C     C_R   0.208507 0.955288 0.338297 0.235806
C30   C     C_R   0.205883 0.874993 0.309661 -0.016839
C31   C     C_R   0.206926 0.789917 0.322407 -0.114379
C32   C     C_R   0.293845 0.891821 0.434450 0.567416
C33   C     C_R   0.217973 0.786493 0.363786 0.197497
C34   C     C_R   0.220783 0.825705 0.160458 0.194562
C35   C     C_R   0.186742 0.800671 0.118137 0.231886
C36   C     C_R   0.085027 0.893145 0.130575 -0.187722
C37   C     C_R   0.113769 0.913042 0.172636 0.198541
C38   C     C_R   0.177268 0.874658 0.187436 0.079797
C39   C     C_1   0.190881 0.878281 0.230701 0.138994
C40   C     C_1   0.198184 0.877433 0.266713 0.082833
C41   C     C_R   0.115530 0.831935 0.103612 0.005700
C42   C     C_R   0.638824 0.876260 0.395018 0.004633
C43   C     C_R   0.613849 0.906011 0.551792 0.538175
C44   C     C_R   0.555262 0.794359 0.367307 0.182512
C45   C     C_R   0.565387 0.789157 0.325451 -0.120519
C46   C     C_R   0.658404 0.860583 0.310482 -0.013857
C47   C     C_R   0.746351 0.934761 0.337249 0.244174
C48   C     C_R   0.738475 0.939291 0.380005 0.200672
C49   C     C_R   0.773627 0.926923 0.173746 0.256662
C50   C     C_R   0.789658 0.910242 0.132221 -0.151541
C51   C     C_R   0.608696 0.763128 0.119180 0.251970
C52   C     C_R   0.595157 0.777346 0.160746 -0.108037
C53   C     C_R   0.678187 0.856033 0.188066 0.020088
C54   C     C_R   0.589447 0.198891 0.571404 0.585305
C55   C     C_1   0.668138 0.858470 0.231111 0.068697
C56   C     C_1   0.662562 0.859001 0.267220 0.070564
C57   C     C_R   0.710436 0.824812 0.105153 -0.008963
C58   C     C_R   0.620918 0.245553 0.615507 0.052848
C59   C     C_R   0.548944 0.264848 0.639554 0.181151
C60   C     C_R   0.563949 0.279855 0.682189 -0.162492
C61   C     C_R   0.649637 0.277858 0.701321 -0.031282
C62   C     C_R   0.728688 0.269962 0.678105 0.239356
C63   C     C_R   0.714537 0.254638 0.634953 0.240581
C64   C     C_R   0.754452 0.324377 0.847137 -0.108509
C65   C     C_R   0.290111 0.887869 0.549020 0.523200
C66   C     C_R   0.767578 0.358766 0.889153 -0.105217
C67   C     C_R   0.587030 0.333863 0.887165 -0.101612
C68   C     C_R   0.574102 0.299454 0.845134 -0.103269
C69   C     C_R   0.659406 0.299003 0.824900 0.035934
C70   C     C_1   0.654864 0.286857 0.781266 -0.026406
C71   C     C_1   0.652692 0.281894 0.744825 -0.028076
C72   C     C_R   0.686064 0.369399 0.909178 0.023978
C73   C     C_R   0.081482 0.760383 0.911409 0.073506
C74   C     C_R   0.144013 0.866432 0.907684 0.187151
C75   C     C_R   0.184698 0.892958 0.869791 0.235385
C76   C     C_R   0.738753 0.450066 0.105255 0.002719
C77   C     C_R   0.169361 0.813083 0.837709 -0.000319
C78   C     C_R   0.117112 0.708927 0.843282 -0.178421
C79   C     C_R   0.071151 0.681333 0.879666 0.190468
C80   C     C_R   0.252234 0.797778 0.773294 -0.050616
C81   C     C_R   0.262855 0.807013 0.732159 0.249124
C82   C     C_R   0.208577 0.851212 0.713453 0.011425
C83   C     C_R   0.150880 0.890396 0.736847 -0.150922
C84   C     C_R   0.142652 0.882252 0.777880 -0.083695
C85   C     C_R   0.192096 0.834826 0.796155 0.031338
C86   C     C_R   0.248781 0.953219 0.657178 -0.144106
C87   C     C_R   0.703985 0.493955 0.138280 0.204487
C88   C     C_R   0.262692 0.960759 0.616316 -0.155162
C89   C     C_R   0.185394 0.771830 0.599450 0.245397
C90   C     C_R   0.173523 0.765671 0.640797 -0.041137
C91   C     C_R   0.209583 0.856481 0.669776 -0.040520
C92   C     C_R   0.238134 0.871540 0.587420 0.005533
C93   C     C_R   0.656832 0.743727 0.912898 0.100400
C94   C     C_R   0.590244 0.651005 0.885469 0.193982
C95   C     C_R   0.560901 0.657626 0.846055 -0.126510
C96   C     C_R   0.597408 0.754621 0.833686 -0.034734
C97   C     C_R   0.654383 0.845932 0.862252 -0.126467
C98   C     C_R   0.712679 0.472319 0.177256 -0.159880
C99   C     C_R   0.683910 0.841430 0.901934 0.203736
C100  C     C_R   0.569840 0.838642 0.777924 -0.092975
C101  C     C_R   0.578613 0.855199 0.737572 -0.078596
C102  C     C_R   0.604725 0.793871 0.708710 0.074064
C103  C     C_R   0.618894 0.713791 0.720246 -0.059585
C104  C     C_R   0.611240 0.697844 0.760673 -0.110337
C105  C     C_R   0.588574 0.761391 0.790053 0.034033
C106  C     C_R   0.555128 0.739136 0.633548 0.260488
C107  C     C_R   0.561170 0.767233 0.594615 -0.111095
C108  C     C_R   0.699365 0.943265 0.621753 -0.129774
Cr1   Cr    Cr6+3 0.424820 0.846020 0.489780 1.067326
Cr2   Cr    Cr6+3 0.657880 0.078580 0.505700 1.122995
Cr3   Cr    Cr6+3 0.417280 0.075360 0.504550 1.095092
Cr4   Cr    Cr6+3 0.903360 0.812540 0.006510 1.101155
Cr5   Cr    Cr6+3 0.914630 0.587050 0.006280 1.095336
Cr6   Cr    Cr6+3 0.673560 0.582680 0.008540 1.110810
H1    H     H_    0.820858 0.324075 0.831677 0.113136
H2    H     H_    0.743681 0.975309 0.685867 0.132282
H3    H     H_    0.566022 0.916513 0.728875 0.125577
H4    H     H_    0.628104 0.639046 0.769286 0.109231
H5    H     H_    0.507602 0.710415 0.569304 0.125111
H6    H     H_    0.684483 0.504869 0.202527 0.126337
O1    O     O_R   0.318160 0.824460 0.443680 -0.485420
O2    O     O_R   0.645130 0.163230 0.552140 -0.454088
O3    O     O_R   0.498360 0.178430 0.555780 -0.455159
O4    O     O_R   0.328690 0.978040 0.538950 -0.503908
O5    O     O_3   0.499990 0.999990 0.500010 -0.284551
O6    O     O_R   0.828710 0.851830 0.052170 -0.513756
O7    O     O_R   0.005980 0.823990 0.047210 -0.509526
O8    O     O_R   0.031900 0.688850 0.050170 -0.448441
O9    O     O_R   0.830940 0.518420 0.048680 -0.506026
O10   O     O_R   0.668160 0.499860 0.053480 -0.439070
O11   O     O_R   0.689170 0.693840 0.050110 -0.464182
O12   O     O_R   0.525040 0.857250 0.449830 -0.497954
O13   O     O_R   0.803860 0.812940 0.962540 -0.458762
O14   O     O_R   0.982950 0.787950 0.964120 -0.462100
O15   O     O_R   0.007050 0.649970 0.960540 -0.458116
O16   O     O_R   0.807910 0.482370 0.965590 -0.501745
O17   O     O_R   0.643310 0.460980 0.963840 -0.489163
O18   O     O_R   0.666140 0.657800 0.967020 -0.459078
O19   O     O_3   0.830520 0.660760 0.007110 -0.289883
O20   O     O_R   0.684760 0.998800 0.456360 -0.427524
O21   O     O_R   0.647540 0.166310 0.470260 -0.482226
O22   O     O_R   0.500960 0.181750 0.467450 -0.496076
O23   O     O_R   0.331100 0.981120 0.457080 -0.436142
O24   O     O_R   0.315560 0.821140 0.532010 -0.491758
O25   O     O_R   0.522630 0.854180 0.531710 -0.504184
O26   O     O_R   0.682160 0.995480 0.544690 -0.490356
O27   O     O_3   0.665509 0.560962 0.132097 -0.645294
H7    H     H_    0.646393 0.586032 0.158387 0.325267
H8    H     H_    0.474591 0.206967 0.394964 0.163377
O28   O     O_3   0.839270 0.304243 0.156135 -0.622778
H9    H     H_    0.861006 0.312959 0.185348 0.329711
O29   O     O_3   0.823452 0.345921 0.448451 -0.607789
H10   H     H_    0.792947 0.347669 0.475051 0.324211
O30   O     O_3   0.216636 0.741622 0.090826 -0.662001
H11   H     H_    0.231596 0.695733 0.105495 0.349908
O31   O     O_3   0.293066 0.800674 0.176472 -0.710830
H12   H     H_    0.342176 0.801171 0.155503 0.342702
H13   H     H_    0.197825 0.724797 0.300009 0.168509
O32   O     O_3   0.210848 0.696632 0.373937 -0.618155
H14   H     H_    0.175955 0.685172 0.399806 0.350688
O33   O     O_3   0.243629 0.041535 0.409264 -0.674906
H15   H     H_    0.272890 0.105079 0.396485 0.329717
O34   O     O_3   0.076663 0.965344 0.199981 -0.639658
H16   H     H_    0.034326 0.987954 0.184596 0.336286
H17   H     H_    0.030411 0.917169 0.119502 0.131367
O35   O     O_3   0.812527 0.335005 0.080306 -0.616991
H18   H     H_    0.778543 0.333293 0.053985 0.316675
O36   O     O_3   0.192067 0.030257 0.324203 -0.663192
H19   H     H_    0.158820 0.057006 0.345308 0.346118
H20   H     H_    0.866818 0.959725 0.121814 0.127354
O37   O     O_3   0.851679 0.008349 0.201061 -0.638344
H21   H     H_    0.910430 0.054270 0.185720 0.326928
O38   O     O_3   0.836402 0.004214 0.320793 -0.646855
H22   H     H_    0.874352 0.069821 0.340624 0.348729
O39   O     O_3   0.825801 0.004847 0.407559 -0.657078
H23   H     H_    0.891766 0.014434 0.394843 0.340898
O40   O     O_3   0.461610 0.719827 0.379679 -0.624335
H24   H     H_    0.480121 0.701623 0.404983 0.338258
H25   H     H_    0.519993 0.725223 0.171847 0.152361
O41   O     O_3   0.522232 0.686184 0.093751 -0.650085
H26   H     H_    0.530154 0.704668 0.066012 0.335919
H27   H     H_    0.499197 0.729686 0.304430 0.164841
H28   H     H_    0.844496 0.384699 0.905263 0.166189
O42   O     O_3   0.887542 0.392754 0.374811 -0.624017
H29   H     H_    0.900125 0.393662 0.345629 0.330792
O43   O     O_3   0.818237 0.273376 0.696049 -0.718538
H30   H     H_    0.822731 0.292019 0.726041 0.332974
O44   O     O_3   0.789580 0.245853 0.610966 -0.667015
H31   H     H_    0.851065 0.254820 0.628173 0.376475
O45   O     O_3   0.462241 0.264940 0.620988 -0.669221
H32   H     H_    0.419938 0.278682 0.642138 0.325759
H33   H     H_    0.500097 0.279691 0.828102 0.120912
H34   H     H_    0.522428 0.340249 0.901733 0.155370
H35   H     H_    0.506135 0.289715 0.700631 0.118236
O46   O     O_3   0.164006 0.941435 0.941419 -0.688384
H36   H     H_    0.233405 0.003963 0.939546 0.337848
O47   O     O_3   0.011111 0.577737 0.883938 -0.684744
H37   H     H_    0.011170 0.532778 0.858799 0.319041
H38   H     H_    0.138480 0.690120 0.650493 0.171334
H39   H     H_    0.637977 0.183484 0.277731 0.131885
O48   O     O_3   0.326340 0.772146 0.711790 -0.688862
H40   H     H_    0.345699 0.801937 0.686350 0.335675
H41   H     H_    0.290698 0.761225 0.787472 0.139535
O49   O     O_3   0.236226 0.994734 0.862685 -0.707572
H42   H     H_    0.209951 0.035593 0.880583 0.333778
H43   H     H_    0.109394 0.924558 0.722954 0.123998
H44   H     H_    0.093847 0.909014 0.794991 0.146161
H45   H     H_    0.274912 0.023726 0.679297 0.131016
H46   H     H_    0.301605 0.037998 0.608109 0.177723
H47   H     H_    0.105109 0.648313 0.818041 0.118150
O50   O     O_3   0.148225 0.679828 0.572319 -0.662118
H48   H     H_    0.136030 0.692702 0.544838 0.342932
O51   O     O_3   0.560733 0.555188 0.896646 -0.680512
H49   H     H_    0.515337 0.498974 0.873861 0.314594
H50   H     H_    0.661796 0.219656 0.207652 0.146229
O52   O     O_3   0.742536 0.931511 0.929915 -0.666408
H51   H     H_    0.754421 0.992695 0.917438 0.327315
H52   H     H_    0.550927 0.887750 0.799823 0.114669
H53   H     H_    0.514051 0.586894 0.824295 0.110692
H54   H     H_    0.639590 0.666204 0.698294 0.143575
O53   O     O_3   0.482810 0.640150 0.640231 -0.677392
H55   H     H_    0.443804 0.596613 0.613850 0.335549
H56   H     H_    0.682169 0.921280 0.852995 0.105491
H57   H     H_    0.752579 0.023353 0.618275 0.175391
H58   H     H_    0.822771 0.512887 0.324185 0.135881
H59   H     H_    0.848715 0.549083 0.254025 0.124924
H60   H     H_    0.532888 0.261977 0.330071 0.155045

loop_
_geom_bond_atom_site_label_1
_geom_bond_atom_site_label_2
_ccdc_geom_bond_type
C31   H13   S    
C65   C92   S    
O37   H21   S    
O45   H32   S    
C79   O47   S    
C24   O42   S    
Cr6   O11   S    
C95   C96   A    
C35   O30   S    
O27   H7    S    
Cr4   O13   S    
C54   O3    A    
C1    O12   A    
C2    C12   A    
C81   C82   A    
C90   C91   A    
C60   H35   S    
C89   O50   S    
Cr5   O8    S    
C77   C78   A    
C27   C33   A    
C12   C13   A    
C100  C105  A    
C80   C85   A    
C20   H60   S    
Cr5   O9    S    
C29   O36   S    
C28   C29   A    
C11   O18   A    
C10   O16   A    
C21   O22   A    
C67   C72   A    
C83   H43   S    
C3    H2    S    
C11   O13   A    
O32   H14   S    
C54   C58   S    
C38   C39   S    
C108  H57   S    
C86   C88   A    
C65   O4    A    
C80   H41   S    
C106  C107  A    
C68   H33   S    
C15   C16   A    
C58   C63   A    
O42   H29   S    
C23   O29   S    
C34   C35   A    
O48   H40   S    
Cr6   O17   S    
C23   C26   A    
C100  C101  A    
C32   O23   A    
C18   H59   S    
Cr3   O22   S    
C74   O46   S    
C17   H58   S    
C66   C72   A    
C62   C63   A    
C47   C48   A    
C16   C17   A    
Cr4   O7    S    
Cr5   O16   S    
C4    C102  S    
C45   H27   S    
C95   H53   S    
C23   C24   A    
Cr5   O19   S    
C70   C71   T    
C51   C57   A    
C10   O17   A    
C29   C30   A    
C93   C99   A    
Cr4   O6    S    
C61   C62   A    
Cr3   O23   S    
C103  H54   S    
C62   O43   S    
C87   C98   A    
C9    O14   A    
C61   C71   S    
C5    C43   S    
C22   H8    S    
C100  H52   S    
C59   C60   A    
C64   H1    S    
Cr6   O10   S    
Cr4   O19   S    
C36   C41   A    
C102  C103  A    
C42   C44   A    
Cr1   O12   S    
C35   C41   A    
C14   C19   A    
C107  H5    S    
C104  C105  A    
C97   C99   A    
C21   C26   S    
C28   O33   S    
O33   H15   S    
C104  H4    S    
C53   C55   S    
C73   C74   A    
C74   C75   A    
Cr3   O3    S    
C67   C68   A    
Cr1   O1    S    
C101  C102  A    
C88   C92   A    
C24   C25   A    
C8    O11   A    
C86   H45   S    
C39   C40   T    
C49   O37   S    
C65   O24   A    
C78   C79   A    
C18   C19   A    
C81   O48   S    
C90   H38   S    
C58   C59   A    
O38   H22   S    
Cr3   O4    S    
C4    C106  A    
C6    C41   S    
C82   C91   S    
C97   H56   S    
O44   H31   S    
C64   C66   A    
C37   C38   A    
Cr2   O21   S    
O50   H48   S    
Cr3   O5    S    
O53   H55   S    
C43   O25   A    
C12   O28   S    
C8    C57   S    
C83   C84   A    
C14   C15   A    
C13   C76   A    
O51   H49   S    
C30   C31   A    
O52   H51   S    
C96   C97   A    
C55   C56   T    
C31   C33   A    
C17   C18   A    
C73   C79   A    
C30   C40   S    
C94   C95   A    
C50   H20   S    
C93   C94   A    
C42   C48   A    
Cr6   O19   S    
C84   C85   A    
C89   C92   A    
C75   C77   A    
C76   C87   A    
O30   H11   S    
C47   O38   S    
C1    O20   A    
C87   O27   S    
O40   H24   S    
C9    O15   A    
Cr1   O5    S    
O36   H19   S    
C20   C22   A    
C82   C83   A    
C88   H46   S    
C7    O10   A    
C22   C26   A    
C99   O52   S    
C51   O41   S    
C103  C104  A    
O41   H26   S    
C96   C105  S    
C5    C107  A    
C8    O6    A    
C16   C25   S    
C78   H47   S    
C46   C47   A    
O31   H12   S    
C94   O51   S    
C63   O44   S    
C2    C19   S    
C34   C38   A    
C50   C57   A    
C32   O1    A    
C9    C73   S    
Cr1   O25   S    
C44   C45   A    
Cr4   O14   S    
C80   C81   A    
C44   O40   S    
C6    O7    A    
C75   O49   S    
Cr5   O15   S    
C98   H6    S    
C7    C76   S    
C34   O31   S    
C3    C108  A    
C64   C69   A    
C37   O34   S    
C86   C91   A    
C101  H3    S    
C48   O39   S    
C66   H28   S    
Cr2   O20   S    
C89   C90   A    
C52   H25   S    
C21   O21   A    
C51   C52   A    
O39   H23   S    
Cr2   O26   S    
Cr2   O2    S    
C15   H39   S    
C84   H44   S    
C11   C93   S    
C13   O35   S    
O35   H18   S    
C77   C85   S    
C49   C53   A    
C36   H17   S    
C14   H50   S    
Cr1   O24   S    
Cr6   O18   S    
C54   O2    A    
O47   H37   S    
C68   C69   A    
C69   C70   S    
C7    O9    A    
O34   H16   S    
C27   C32   S    
Cr2   O5    S    
C6    O8    A    
O46   H36   S    
C106  O53   S    
C45   C46   A    
C1    C42   S    
O49   H42   S    
C2    C98   A    
C36   C37   A    
C49   C50   A    
C20   C25   A    
C46   C56   S    
C27   C28   A    
C43   O26   A    
O28   H9    S    
C60   C61   A    
C59   O45   S    
O29   H10   S    
O43   H30   S    
C67   H34   S    
C33   O32   S    
C3    C4    A    
C52   C53   A    
C5    C108  A    
C10   C72   S    
