data_mof_unit_15687.cif
_audit_creation_date              2012-12-10T20:39:14-0500
_audit_creation_method            fapswitch 2.2
_symmetry_space_group_name_H-M    P1
_symmetry_Int_Tables_number       1
_space_group_crystal_system       triclinic
_cell_length_a                    19.054783
_cell_length_b                    10.785516
_cell_length_c                    9.888522
_cell_angle_alpha                 89.419787
_cell_angle_beta                  89.950232
_cell_angle_gamma                 89.183969
_cell_volume                      2031.93535612

loop_
_atom_site_label
_atom_site_type_symbol
_atom_type_description
_atom_site_fract_x
_atom_site_fract_y
_atom_site_fract_z
_atom_type_partial_charge
C1    C     C_R   0.497086 0.260661 0.500193 0.964473
C2    C     C_R   0.290631 0.470954 0.499449 -0.260290
C3    C     C_R   0.932048 0.436239 0.496850 0.350659
C4    C     C_R   0.072619 0.407808 0.497973 0.369861
C5    C     C_R   0.818709 0.434802 0.612905 -0.193991
C6    C     C_R   0.746699 0.452646 0.616434 -0.110631
C7    C     C_R   0.711097 0.493649 0.500496 -0.110010
C8    C     C_R   0.748659 0.524884 0.383813 -0.205980
C9    C     C_R   0.821506 0.511636 0.379935 0.440503
C10   C     C_R   0.856579 0.460825 0.494626 -0.060612
C11   C     C_R   0.523870 0.061820 0.605711 -0.048420
C12   C     C_R   0.365521 0.495111 0.500088 0.965696
C13   C     C_R   0.494357 0.129173 0.498907 -0.196087
C14   C     C_R   0.467031 0.063320 0.386773 0.346330
C15   C     C_R   0.474187 0.934689 0.386051 -0.183493
C16   C     C_R   0.503238 0.870556 0.496916 -0.139848
C17   C     C_R   0.528846 0.937681 0.604012 -0.032002
C18   C     C_3   0.561368 0.927182 0.741102 0.209092
C19   C     C_3   0.555231 0.071328 0.744166 0.247007
C20   C     C_R   0.440238 0.474538 0.070917 0.110182
C21   C     C_R   0.559864 0.519826 0.070674 0.699914
C22   C     C_R   0.559654 0.520577 0.927571 -0.084029
C23   C     C_R   0.502326 0.739298 0.499430 0.944839
C24   C     C_R   0.440972 0.468947 0.928737 0.162649
C25   C     C_3   0.371700 0.532950 0.916010 -0.484345
C26   C     C_3   0.372113 0.547063 0.068443 0.209708
C27   C     C_R   0.634732 0.499809 0.500026 0.966617
C28   C     C_R   0.261065 0.393564 0.598803 0.611841
C29   C     C_R   0.189608 0.369888 0.596310 -0.285598
C30   C     C_R   0.148118 0.418611 0.491573 -0.158277
C31   C     C_R   0.178187 0.490412 0.388432 0.700673
C32   C     C_R   0.249074 0.516886 0.393153 -0.308513
H1    H     H_    0.454985 0.884658 0.300372 0.269383
H2    H     H_    0.525882 0.881046 0.814738 0.099462
H3    H     H_    0.515804 0.104409 0.819043 0.104594
H4    H     H_    0.607655 0.540006 0.873773 0.219252
H5    H     H_    0.374895 0.620574 0.856221 0.220389
H6    H     H_    0.330127 0.469678 0.882033 0.254653
H7    H     H_    0.166634 0.313252 0.675428 0.213595
H8    H     H_    0.328523 0.497347 0.118876 0.142737
H9    H     H_    0.270963 0.574838 0.314790 0.237963
H10   H     H_    0.844743 0.398181 0.702459 0.205027
H11   H     H_    0.718795 0.430150 0.708590 0.223119
H12   H     H_    0.721179 0.561148 0.296111 0.257358
N1    N     N_R   0.035490 0.383515 0.384859 -0.064064
N2    N     N_R   0.966115 0.395997 0.384968 -0.065493
N3    N     N_R   0.969066 0.455312 0.611608 -0.136167
N4    N     N_R   0.038372 0.441597 0.612090 -0.135106
N5    N     N_R   0.499530 0.499140 0.142800 -0.147681
N6    N     N_R   0.499530 0.499180 0.857150 -0.139265
O1    O     O_R   0.500010 0.316790 0.614690 -0.581975
O2    O     O_R   0.500000 0.316760 0.385350 -0.556886
O3    O     O_R   0.398140 0.500000 0.614710 -0.601213
O4    O     O_R   0.398130 0.499970 0.385370 -0.584163
O5    O     O_R   0.500000 0.683240 0.614650 -0.620047
O6    O     O_R   0.499990 0.683210 0.385310 -0.570765
O7    O     O_R   0.601870 0.500030 0.614630 -0.576409
O8    O     O_R   0.601860 0.500000 0.385290 -0.571551
Zn1   Zn    Zn3+2 0.500000 0.500020 0.653130 1.059250
Zn2   Zn    Zn3+2 0.500000 0.499980 0.346870 1.132514
F1    F     F_    0.301536 0.336502 0.694214 -0.661723
S1    S     S_3+6 0.647205 0.855640 0.736053 0.106943
O9    O     O_2   0.681824 0.866374 0.871815 -0.184554
O10   O     O_2   0.639684 0.720942 0.705316 -0.332980
O11   O     O_3   0.697570 0.920161 0.615586 -0.468392
H13   H     H_    0.742535 0.873042 0.619421 0.389949
S2    S     S_3+6 0.633417 0.163267 0.745338 0.094635
O12   O     O_2   0.613463 0.291571 0.789232 -0.317532
O13   O     O_2   0.686429 0.112111 0.844156 -0.195209
O14   O     O_3   0.668643 0.170927 0.589385 -0.517404
H14   H     H_    0.718903 0.188768 0.603779 0.384147
F2    F     F_    0.620280 0.546069 0.134893 -0.633362
S3    S     S_3+6 0.378162 0.707699 0.113227 0.044372
O15   O     O_2   0.366736 0.722892 0.262221 -0.289525
O16   O     O_2   0.449022 0.757137 0.075335 -0.336869
O17   O     O_3   0.315286 0.789501 0.030933 -0.467634
H15   H     H_    0.338936 0.827240 0.951652 0.371978
F3    F     F_    0.138358 0.540760 0.287544 -0.608989
S4    S     S_3+6 0.865791 0.566146 0.233509 0.079971
O18   O     O_2   0.885577 0.457467 0.146730 -0.253048
O19   O     O_2   0.819001 0.653051 0.153557 -0.225060
O20   O     O_3   0.938618 0.641815 0.278525 -0.510987
H16   H     H_    0.964591 0.655486 0.192977 0.414632
S5    S     S_3+6 0.419695 0.133175 0.250176 0.067935
O21   O     O_2   0.470879 0.186974 0.150711 -0.257559
O22   O     O_2   0.376305 0.038659 0.178811 -0.216753
O23   O     O_3   0.366062 0.246545 0.306352 -0.549921
H17   H     H_    0.337068 0.206665 0.377204 0.346513

loop_
_geom_bond_atom_site_label_1
_geom_bond_atom_site_label_2
_ccdc_geom_bond_type
C8    C9    A    
C5    H10   S    
O5    Zn1   S    
S3    O15   D    
S5    O23   S    
C14   S5    S    
O23   H17   S    
C2    C12   S    
C21   N5    A    
O3    Zn1   S    
C7    C8    A    
O4    Zn2   S    
N1    N2    A    
C11   C19   S    
C20   N5    A    
N5    Zn2   S    
N6    Zn1   S    
C28   C29   A    
S5    O22   D    
C5    C6    A    
O7    Zn1   S    
O8    Zn2   S    
C15   C16   A    
C26   S3    S    
C7    C27   S    
C2    C32   A    
C18   C19   S    
C9    S4    S    
S1    O10   D    
O2    Zn2   S    
C25   H5    S    
S5    O21   D    
C20   C24   A    
C16   C17   A    
C32   H9    S    
C19   S2    S    
O14   H14   S    
C9    C10   A    
C12   O3    A    
C22   N6    A    
C28   F1    S    
C13   C14   A    
S3    O16   D    
C4    N1    A    
C24   N6    A    
C21   F2    S    
S2    O12   D    
C23   O6    A    
C24   C25   S    
C27   O7    A    
S4    O19   D    
C18   S1    S    
C25   C26   S    
O6    Zn2   S    
S2    O13   D    
C29   C30   A    
C25   H6    S    
C1    O1    A    
N3    N4    A    
C29   H7    S    
S1    O9    D    
C17   C18   S    
O17   H15   S    
C18   H2    S    
O11   H13   S    
C16   C23   S    
C6    H11   S    
S3    O17   S    
C1    C13   S    
C31   F3    S    
C4    N4    A    
C11   C17   A    
S1    O11   S    
C31   C32   A    
C8    H12   S    
C27   O8    A    
S4    O20   S    
C23   O5    A    
C6    C7    A    
C22   H4    S    
C3    N2    A    
S2    O14   S    
C5    C10   A    
C3    C10   S    
C19   H3    S    
C11   C13   A    
C26   H8    S    
C30   C31   A    
C20   C26   S    
C3    N3    A    
C1    O2    A    
C4    C30   S    
S4    O18   D    
O1    Zn1   S    
O20   H16   S    
C14   C15   A    
C2    C28   A    
C21   C22   A    
C15   H1    S    
C12   O4    A    
