data_mof_unit_64293.cif
_audit_creation_date              2012-12-10T16:44:38-0500
_audit_creation_method            fapswitch 2.2
_symmetry_space_group_name_H-M    P1
_symmetry_Int_Tables_number       1
_space_group_crystal_system       triclinic
_cell_length_a                    18.446296
_cell_length_b                    18.466271
_cell_length_c                    18.444309
_cell_angle_alpha                 119.690663
_cell_angle_beta                  119.697533
_cell_angle_gamma                 90.555671
_cell_volume                      4461.935044

loop_
_atom_site_label
_atom_site_type_symbol
_atom_type_description
_atom_site_fract_x
_atom_site_fract_y
_atom_site_fract_z
_atom_type_partial_charge
C1    C     C_R   0.138715 0.361682 0.001242 0.807484
C2    C     C_R   0.520201 0.223506 0.800279 -0.221535
C3    C     C_R   0.572156 0.275940 0.798938 -0.227311
C4    C     C_R   0.861112 0.638181 0.999732 0.893254
C5    C     C_R   0.663937 0.303111 0.861737 0.370679
C6    C     C_2   0.721309 0.777372 0.940272 -0.156264
C7    C     C_2   0.696574 0.808790 0.004298 -0.284221
C8    C     C_2   0.779671 0.723459 0.942519 -0.158961
C9    C     C_2   0.803444 0.691143 0.998956 -0.283678
C10   C     C_2   0.720741 0.279987 0.444004 -0.144996
C11   C     C_2   0.702334 0.192307 0.386974 -0.257001
C12   C     C_R   0.836987 0.198454 0.136791 0.097684
C13   C     C_2   0.784226 0.333848 0.555571 -0.163761
C14   C     C_2   0.793269 0.305079 0.612911 -0.020167
C15   C     C_2   0.332842 0.276618 0.055867 -0.305109
C16   C     C_R   0.138597 0.638790 0.277058 0.839553
C17   C     C_2   0.306087 0.191100 0.980947 0.302771
C18   C     C_2   0.278028 0.331909 0.042504 0.159929
C19   C     C_2   0.194112 0.307286 0.014335 0.024474
C20   C     C_2   0.220416 0.782602 0.947637 -0.168866
C21   C     C_2   0.306058 0.790934 0.985649 -0.012102
C22   C     C_2   0.162909 0.719893 0.938738 -0.152681
C23   C     C_R   0.790195 0.222717 0.066349 0.021381
C24   C     C_2   0.194547 0.704519 0.010431 -0.250915
C25   C     C_2   0.219018 0.778994 0.556161 -0.141814
C26   C     C_2   0.307784 0.803609 0.612282 -0.293986
C27   C     C_2   0.162827 0.720474 0.443832 -0.155926
C28   C     C_R   0.860001 0.361384 0.722961 0.839037
C29   C     C_2   0.195498 0.696497 0.387727 -0.287083
C30   C     C_R   0.639701 0.138364 0.276906 0.831743
C31   C     C_R   0.361593 0.861210 0.722945 0.899297
C32   C     C_R   0.638934 0.861778 0.000420 0.841178
C33   C     C_R   0.361442 0.138137 0.997576 0.820454
C34   C     C_R   0.842092 0.277128 0.063405 0.053819
C35   C     C_R   0.360457 0.858470 0.998166 0.793674
C36   C     C_R   0.641145 0.139894 0.001167 0.888606
C37   C     C_R   0.139520 0.641098 0.001514 0.843914
C38   C     C_R   0.858779 0.360071 0.998692 0.895600
C39   C     C_R   0.936071 0.304841 0.127890 -0.160654
C40   C     C_R   0.978578 0.280254 0.193845 -0.192106
C41   C     C_R   0.929494 0.227732 0.198208 -0.092324
C42   C     C_R   0.695678 0.195747 0.999899 -0.130620
C43   C     C_R   0.653080 0.222150 0.931937 -0.051920
C44   C     C_R   0.706999 0.277127 0.930466 -0.052056
C45   C     C_R   0.800982 0.303794 0.996958 -0.123237
C46   C     C_R   0.557806 0.195883 0.864329 0.373710
Cl1   Cl    Cl    0.210457 0.141346 0.855052 -0.580501
Cl2   Cl    Cl    0.476017 0.128498 0.850027 -0.619498
Cl3   Cl    Cl    0.715588 0.369046 0.844819 -0.663694
H1    H     H_    0.539948 0.295653 0.747458 0.194649
H2    H     H_    0.191150 0.823552 0.922701 0.160527
H3    H     H_    0.093492 0.688848 0.874625 0.173857
H4    H     H_    0.261953 0.740497 0.078763 0.169571
H5    H     H_    0.185249 0.801509 0.593451 0.184931
H6    H     H_    0.343913 0.780932 0.578429 0.149632
H7    H     H_    0.091715 0.697364 0.406528 0.180158
H8    H     H_    0.265547 0.719786 0.421596 0.154420
H9    H     H_    0.050316 0.302289 0.242159 0.143750
H10   H     H_    0.964001 0.209298 0.250564 0.149136
H11   H     H_    0.448773 0.203771 0.749802 0.199626
H12   H     H_    0.719125 0.797493 0.063006 0.153598
H13   H     H_    0.698973 0.792263 0.884102 0.177819
H14   H     H_    0.770839 0.183375 0.584766 0.199964
H15   H     H_    0.701954 0.235830 0.606497 0.220732
H16   H     H_    0.372677 0.451561 0.135183 0.185569
H17   H     H_    0.335529 0.395369 0.011376 0.205947
H18   H     H_    0.144482 0.251557 0.058198 0.158932
H19   H     H_    0.100827 0.188636 0.932338 0.243505
H20   H     H_    0.397776 0.765247 0.081862 0.198977
H21   H     H_    0.366341 0.699047 0.959986 0.188885
H22   H     H_    0.758688 0.080897 0.084037 0.190380
H23   H     H_    0.802855 0.709353 0.894610 0.176139
H24   H     H_    0.759532 0.175732 0.178377 0.189547
H25   H     H_    0.780077 0.701667 0.045631 0.154177
H26   H     H_    0.692077 0.314092 0.408386 0.171796
H27   H     H_    0.735822 0.158485 0.420929 0.175808
H28   H     H_    0.824331 0.400273 0.591657 0.151543
H29   H     H_    0.396871 0.307592 0.128736 0.143489
H30   H     H_    0.978677 0.346177 0.128554 0.110889
N1    N     N_3   0.733493 0.222461 0.569527 -0.441514
N2    N     N_3   0.315761 0.412151 0.060256 -0.427346
N3    N     N_3   0.159907 0.230564 0.005078 -0.435190
N4    N     N_3   0.343257 0.729472 0.005502 -0.443778
N5    N     N_3   0.795771 0.144902 0.150731 -0.489381
O1    O     O_3   1.000000 0.500000 0.000000 -0.492741
O2    O     O_R   0.325040 0.054120 0.939900 -0.595342
O3    O     O_R   0.444330 0.884140 0.060080 -0.647485
O4    O     O_R   0.054210 0.325030 0.939940 -0.650733
O5    O     O_R   0.615830 0.175840 0.060080 -0.618881
O6    O     O_R   0.324160 0.884140 0.939910 -0.654845
O7    O     O_R   0.615850 0.055700 0.939930 -0.620402
O8    O     O_R   0.614980 0.885710 0.939940 -0.653560
O9    O     O_R   0.445830 0.174930 0.060060 -0.646477
O10   O     O_R   0.614300 0.054120 0.229160 -0.639519
O11   O     O_R   0.325070 0.885060 0.770830 -0.629205
O12   O     O_R   0.054160 0.614240 0.229150 -0.647657
O13   O     O_R   0.885070 0.614240 0.060060 -0.625136
O14   O     O_R   0.174980 0.614900 0.229170 -0.647633
O15   O     O_R   0.885740 0.445830 0.770840 -0.644349
O16   O     O_R   0.175880 0.615810 0.060090 -0.638593
O17   O     O_R   0.884210 0.324110 0.939920 -0.620222
O18   O     O_R   0.055710 0.615810 0.939920 -0.652609
O19   O     O_R   0.884190 0.444260 0.060070 -0.618114
O20   O     O_R   0.885120 0.325030 0.770840 -0.624718
O21   O     O_R   0.175010 0.445830 0.060100 -0.627410
O22   O     O_R   0.885710 0.614900 0.939900 -0.640289
O23   O     O_3   0.500040 0.999960 0.000000 -0.492278
O24   O     O_R   0.614930 0.174930 0.229160 -0.653399
O25   O     O_R   0.445880 0.885710 0.770850 -0.627444
O26   O     O_R   0.614330 0.885060 0.060100 -0.644844
Zn1   Zn    Zn3+2 0.956610 0.542450 0.085830 1.009837
Zn2   Zn    Zn3+2 0.129220 0.543380 0.085850 0.973151
Zn3   Zn    Zn3+2 0.957530 0.543380 0.914160 0.993674
Zn4   Zn    Zn3+2 0.956640 0.370790 0.914170 1.011980
Zn5   Zn    Zn3+2 0.543440 0.957510 0.914170 1.005792
Zn6   Zn    Zn3+2 0.542510 0.956570 0.085840 0.962151
Zn7   Zn    Zn3+2 0.370820 0.956570 0.914150 1.027227
Zn8   Zn    Zn3+2 0.543410 0.129170 0.085830 1.004079

loop_
_geom_bond_atom_site_label_1
_geom_bond_atom_site_label_2
_ccdc_geom_bond_type
C36   O5    A    
C15   C18   S    
C27   C29   D    
C36   C42   S    
C43   C44   A    
O1    Zn2   S    
C26   H6    S    
O11   Zn7   S    
C12   C23   A    
C38   O19   A    
C23   C42   A    
C32   O26   A    
O1    Zn4   S    
C20   H2    S    
C11   H27   S    
C37   O18   A    
O13   Zn1   S    
C2    H11   S    
C15   H29   S    
C18   N2    S    
C12   N5    S    
O19   Zn1   S    
C18   C19   D    
C7    H12   S    
C38   C45   S    
C35   O3    A    
C21   N4    S    
C11   C30   S    
C8    C9    D    
C14   N1    S    
C19   N3    S    
C42   C43   A    
O23   Zn8   S    
C1    O4    A    
C26   C31   S    
C13   C14   D    
O17   Zn4   S    
H15   N1    S    
C5    Cl3   S    
C17   C33   S    
C43   C46   A    
C3    H1    S    
C13   H28   S    
H14   N1    S    
O12   Zn1   S    
C46   Cl2   S    
C16   O12   A    
C40   H9    S    
C1    C19   S    
O22   Zn3   S    
C34   C39   A    
O6    Zn7   S    
O24   Zn8   S    
O14   Zn2   S    
C25   H5    S    
C41   H10   S    
C39   C40   A    
O10   Zn6   S    
C27   H7    S    
C6    C8    S    
O1    Zn1   S    
C16   C29   S    
C4    O22   A    
C2    C46   A    
C24   H4    S    
C39   H30   S    
C33   O2    A    
C12   C41   A    
H20   N4    S    
C10   H26   S    
C28   O20   A    
H16   N2    S    
C23   C34   A    
C24   C37   S    
C31   O25   A    
C34   C45   A    
C20   C21   D    
H21   N4    S    
O23   Zn5   S    
O3    Zn6   S    
O20   Zn4   S    
C28   O15   A    
C40   C41   A    
O21   Zn2   S    
C20   C22   S    
O16   Zn2   S    
C22   C24   D    
C25   C27   S    
O9    Zn8   S    
O26   Zn6   S    
C44   C45   A    
C36   O7    A    
C22   H3    S    
H22   N5    S    
C15   C17   D    
C7    C32   S    
H24   N5    S    
C30   O24   A    
C8    H23   S    
C5    C44   A    
C17   Cl1   S    
C29   H8    S    
C3    C5    A    
C10   C13   S    
C33   O9    A    
O15   Zn3   S    
C6    C7    D    
C21   C35   S    
C38   O17   A    
H19   N3    S    
C6    H13   S    
O1    Zn3   S    
C2    C3    A    
C25   C26   D    
C30   O10   A    
O18   Zn3   S    
H17   N2    S    
C16   O14   A    
C32   O8    A    
C31   O11   A    
O7    Zn5   S    
O2    Zn7   S    
O4    Zn4   S    
O8    Zn5   S    
O23   Zn6   S    
C10   C11   D    
O25   Zn5   S    
C35   O6    A    
O5    Zn8   S    
H18   N3    S    
C9    H25   S    
C14   C28   S    
C4    C9    S    
C4    O13   A    
O23   Zn7   S    
C37   O16   A    
C1    O21   A    
