data_mof_unit_37441.cif
_audit_creation_date              2012-12-10T19:05:19-0500
_audit_creation_method            fapswitch 2.2
_symmetry_space_group_name_H-M    P1
_symmetry_Int_Tables_number       1
_space_group_crystal_system       triclinic
_cell_length_a                    9.53103
_cell_length_b                    10.824044
_cell_length_c                    17.360396
_cell_angle_alpha                 90.604162
_cell_angle_beta                  85.311544
_cell_angle_gamma                 89.354145
_cell_volume                      1784.74854258

loop_
_atom_site_label
_atom_site_type_symbol
_atom_type_description
_atom_site_fract_x
_atom_site_fract_y
_atom_site_fract_z
_atom_type_partial_charge
C1    C     C_R   0.500917 0.736916 0.492587 0.795061
C2    C     C_R   0.337752 0.513628 0.776446 -0.203417
C3    C     C_R   0.404640 0.527767 0.148148 -0.152246
C4    C     C_R   0.402245 0.519182 0.227886 -0.269208
C5    C     C_R   0.657840 0.520336 0.219658 0.450134
C6    C     C_R   0.659196 0.527328 0.139317 -0.236303
C7    C     C_R   0.533478 0.532153 0.103298 0.123475
C8    C     C_2   0.436698 0.573535 0.978024 -0.229521
C9    C     C_2   0.541846 0.533659 0.018548 -0.194665
C10   C     C_R   0.527987 0.513163 0.264780 -0.125869
C11   C     C_R   0.379752 0.938578 0.482705 0.143097
C12   C     C_R   0.480823 0.504284 0.649857 0.794438
C13   C     C_R   0.504079 0.869309 0.477869 -0.246187
C14   C     C_R   0.631986 0.933423 0.462077 -0.042061
C15   C     C_R   0.636028 0.058724 0.486229 0.008977
C16   C     C_R   0.506536 0.126984 0.496125 -0.238519
C17   C     C_R   0.381088 0.065254 0.487533 0.128731
C18   C     C_3   0.247087 0.068330 0.538899 -0.448856
C19   C     C_3   0.246242 0.928309 0.532687 -0.448997
C20   C     C_R   0.932441 0.400972 0.471220 0.157991
C21   C     C_R   0.916753 0.586551 0.541813 0.513647
C22   C     C_R   0.067745 0.586683 0.540716 -0.197767
C23   C     C_R   0.501255 0.261681 0.502010 0.799637
C24   C     C_R   0.079268 0.401232 0.471068 0.254541
C25   C     C_3   0.098746 0.346558 0.391876 -0.475102
C26   C     C_3   0.939281 0.345363 0.392227 -0.450174
C27   C     C_R   0.518959 0.502849 0.349735 0.811134
C28   C     C_R   0.468829 0.521970 0.733714 -0.033507
C29   C     C_R   0.588096 0.555067 0.771061 -0.198466
C30   C     C_R   0.577353 0.576694 0.850179 -0.162216
C31   C     C_R   0.447550 0.563225 0.893463 0.191844
C32   C     C_R   0.327280 0.534464 0.856027 -0.165595
Cu1   Cu    Cu3+1 0.359330 0.500020 0.500000 0.943310
Cu2   Cu    Cu3+1 0.640670 0.499980 0.500000 0.973514
H1    H     H_    0.689643 0.565675 0.739130 0.177548
H2    H     H_    0.759211 0.527695 0.104866 0.131643
H3    H     H_    0.261922 0.103133 0.598167 0.188168
H4    H     H_    0.159636 0.113412 0.510762 0.238148
H5    H     H_    0.260165 0.881510 0.588320 0.193474
H6    H     H_    0.160202 0.892964 0.499492 0.218912
H7    H     H_    0.120395 0.654631 0.573604 0.147308
H8    H     H_    0.148620 0.411060 0.348954 0.202501
H9    H     H_    0.300876 0.516172 0.260499 0.171825
H10   H     H_    0.146913 0.252549 0.391458 0.212535
H11   H     H_    0.899312 0.408605 0.349778 0.259665
H12   H     H_    0.895403 0.250779 0.391740 0.244061
H13   H     H_    0.638652 0.498197 0.988488 0.144509
H14   H     H_    0.226195 0.524956 0.888660 0.122259
H15   H     H_    0.305285 0.527074 0.122260 0.137522
H16   H     H_    0.243825 0.490193 0.748576 0.151577
H17   H     H_    0.338153 0.607400 0.006685 0.142732
H18   H     H_    0.670752 0.603936 0.877259 0.123596
N1    N     N_R   0.852130 0.499070 0.499500 -0.228622
N2    N     N_R   0.148040 0.499110 0.499500 -0.204315
O1    O     O_R   0.381190 0.680360 0.500000 -0.575001
O2    O     O_R   0.618770 0.680320 0.499990 -0.577158
O3    O     O_R   0.367430 0.500040 0.613600 -0.590951
O4    O     O_R   0.605020 0.500000 0.613590 -0.544458
O5    O     O_R   0.381230 0.319680 0.500010 -0.565813
O6    O     O_R   0.618810 0.319640 0.500000 -0.598499
O7    O     O_R   0.394980 0.500000 0.386410 -0.590525
O8    O     O_R   0.632570 0.499960 0.386400 -0.560838
C33   C     C_2   0.752896 0.875670 0.414179 0.400659
H19   H     H_    0.765629 0.776918 0.408456 0.060812
O9    O     O_2   0.835543 0.939236 0.374996 -0.520412
C34   C     C_2   0.766614 0.106511 0.518015 0.351311
H20   H     H_    0.760208 0.180615 0.560598 0.087229
O10   O     O_2   0.882137 0.059326 0.501633 -0.563269
O11   O     O_3   0.831917 0.659638 0.593186 -0.593108
C35   C     C_3   0.872961 0.784577 0.595187 0.058965
H21   H     H_    0.777440 0.841506 0.588007 0.190445
H22   H     H_    0.951449 0.810783 0.547446 0.133055
C36   C     C_3   0.924479 0.815848 0.674286 -0.379751
H23   H     H_    0.848713 0.779834 0.720543 0.229581
H24   H     H_    0.028407 0.771087 0.679994 0.200039
C37   C     C_3   0.937184 0.955074 0.685986 -0.876517
H25   H     H_    0.010144 0.994489 0.639934 0.284318
H26   H     H_    0.978619 0.974247 0.742787 0.247143
H27   H     H_    0.832429 0.000831 0.685028 0.250438
O12   O     O_3   0.783990 0.508959 0.252623 -0.626617
C38   C     C_3   0.850549 0.624908 0.256385 0.053958
H28   H     H_    0.869921 0.642011 0.317696 0.167936
H29   H     H_    0.787056 0.705006 0.237573 0.132020
C39   C     C_3   0.992928 0.619531 0.208908 -0.376358
H30   H     H_    0.053541 0.537301 0.225899 0.221832
H31   H     H_    0.976353 0.610517 0.146538 0.207382
C40   C     C_3   0.078195 0.735432 0.221681 -0.870490
H32   H     H_    0.019118 0.819082 0.205629 0.272152
H33   H     H_    0.179335 0.730256 0.185176 0.249383
H34   H     H_    0.101453 0.743273 0.283215 0.265208

loop_
_geom_bond_atom_site_label_1
_geom_bond_atom_site_label_2
_ccdc_geom_bond_type
C10   C27   S    
Cu1   O1    S    
C34   O10   D    
C40   H32   S    
C33   O9    D    
Cu2   O2    S    
C36   H24   S    
C36   H23   S    
C39   C40   S    
C38   H28   S    
C3    H15   S    
C22   N2    A    
C23   O5    A    
C11   C19   S    
C12   C28   S    
C5    C6    A    
C28   C29   A    
C18   H3    S    
C39   H31   S    
C3    C7    A    
C30   C31   A    
C22   H7    S    
C24   N2    A    
C15   C16   A    
Cu2   O8    S    
C2    C32   A    
C18   C19   S    
C27   O7    A    
C26   H11   S    
C39   H30   S    
C20   C24   A    
C8    C9    D    
C37   H27   S    
C35   H21   S    
C2    H16   S    
C12   O4    A    
C34   H20   S    
Cu1   O5    S    
C21   C22   A    
Cu2   O6    S    
C32   H14   S    
C25   H10   S    
C38   H29   S    
Cu1   Cu2   S    
C23   O6    A    
C24   C25   S    
O12   C38   S    
C25   C26   S    
C15   C34   S    
C21   O11   S    
C29   C30   A    
C27   O8    A    
C31   C32   A    
C35   C36   S    
C17   C18   S    
C37   H25   S    
C5    O12   S    
C8    H17   S    
C19   H5    S    
C12   O3    A    
C9    H13   S    
C16   C23   S    
C40   H33   S    
C36   C37   S    
C1    C13   S    
C4    C10   A    
C3    C4    A    
C38   C39   S    
Cu1   N2    S    
C7    C9    S    
C30   H18   S    
C11   C17   A    
Cu1   O3    S    
C8    C31   S    
C1    O2    A    
C37   H26   S    
C20   N1    A    
C25   H8    S    
C2    C28   A    
C6    C7    A    
C4    H9    S    
C29   H1    S    
C1    O1    A    
C5    C10   A    
C21   N1    A    
C11   C13   A    
C16   C17   A    
C20   C26   S    
C14   C33   S    
C6    H2    S    
C18   H4    S    
O11   C35   S    
C19   H6    S    
C26   H12   S    
C33   H19   S    
Cu2   N1    S    
Cu1   O7    S    
C40   H34   S    
Cu2   O4    S    
C14   C15   A    
C35   H22   S    
C13   C14   A    
