data_mof_unit_56566.cif
_audit_creation_date              2013-03-05T15:50:33-0500
_audit_creation_method            fapswitch 2.2
_symmetry_space_group_name_H-M    P1
_symmetry_Int_Tables_number       1
_space_group_crystal_system       triclinic
_cell_length_a                    9.64766
_cell_length_b                    10.856446
_cell_length_c                    13.371392
_cell_angle_alpha                 92.06225
_cell_angle_beta                  72.277041
_cell_angle_gamma                 89.036619
_cell_volume                      1332.61006992

loop_
_atom_site_label
_atom_site_type_symbol
_atom_site_description
_atom_site_fract_x
_atom_site_fract_y
_atom_site_fract_z
_atom_type_partial_charge
O1    O     O_R   0.381190 0.680360 0.500010 -0.525818
O2    O     O_R   0.618760 0.680340 0.500000 -0.528359
C1    C     C_R   0.503273 0.736689 0.489098 0.905446
O3    O     O_R   0.323240 0.499990 0.650990 -0.545871
O4    O     O_R   0.560820 0.499960 0.650980 -0.582750
C2    C     C_R   0.420791 0.502276 0.700505 0.864340
Cu1   Cu    Cu3+1 0.359340 0.500010 0.500010 1.007050
Cu2   Cu    Cu3+1 0.640660 0.499990 0.499990 1.032473
O5    O     O_R   0.381240 0.319660 0.500000 -0.613973
O6    O     O_R   0.618810 0.319640 0.499990 -0.608274
O7    O     O_R   0.439180 0.500040 0.349020 -0.598576
O8    O     O_R   0.676760 0.500010 0.349010 -0.547759
C3    C     C_R   0.498526 0.262655 0.505118 0.769054
C4    C     C_R   0.579106 0.499794 0.299181 0.796737
C5    C     C_R   0.760633 0.368495 0.024923 -0.157226
H1    H     H_    0.858862 0.317945 0.979873 0.232858
C6    C     C_R   0.623557 0.484913 0.182980 -0.147098
C7    C     C_R   0.249680 0.593894 0.868267 0.242352
C8    C     C_R   0.202900 0.608726 0.978101 0.416224
C9    C     C_R   0.280781 0.549987 0.037398 0.280767
C10   C     C_R   0.416531 0.488503 0.985342 -0.062838
C11   C     C_R   0.448923 0.456590 0.876876 -0.047890
C12   C     C_R   0.523778 0.460989 0.035523 0.031328
C13   C     C_R   0.645954 0.384054 0.982060 0.051392
C14   C     C_R   0.654933 0.327431 0.884460 0.412831
C15   C     C_R   0.558511 0.366163 0.831389 -0.198173
C16   C     C_R   0.518105 0.513515 0.134498 -0.243689
C17   C     C_R   0.754143 0.423414 0.122664 0.297577
C18   C     C_R   0.370292 0.514475 0.816866 -0.271014
H2    H     H_    0.432640 0.578510 0.176290 0.229417
H3    H     H_    0.570591 0.325095 0.754176 0.162012
C19   C     C_R   0.258938 0.895225 0.450711 0.399811
C20   C     C_R   0.125312 0.961970 0.482926 -0.292413
H4    H     H_    0.037830 0.933124 0.454490 0.228425
C21   C     C_R   0.107066 0.068575 0.547949 0.365895
C22   C     C_R   0.229162 0.118662 0.566671 -0.189048
H5    H     H_    0.215158 0.201393 0.616665 0.208121
C23   C     C_R   0.367947 0.063246 0.520448 -0.047295
C24   C     C_R   0.377221 0.940207 0.482054 0.031005
C25   C     C_R   0.506755 0.870944 0.473465 -0.187430
C26   C     C_R   0.635756 0.935103 0.465511 0.355618
H6    H     H_    0.732432 0.110603 0.461365 0.197230
C27   C     C_R   0.631113 0.062725 0.476101 -0.225450
C28   C     C_R   0.497889 0.127828 0.506718 -0.117869
H7    H     H_    0.818871 0.638324 0.619529 0.183364
C29   C     C_R   0.914892 0.328738 0.368316 -0.058128
H8    H     H_    0.810290 0.326775 0.357710 0.179251
C30   C     C_R   0.012860 0.238921 0.309302 -0.107489
H9    H     H_    0.977917 0.170535 0.261823 0.182279
C31   C     C_R   0.156577 0.240349 0.306972 -0.214802
H10   H     H_    0.234001 0.173042 0.257748 0.172119
C32   C     C_R   0.202379 0.329690 0.365769 -0.158175
H11   H     H_    0.316126 0.325680 0.354374 0.198244
C33   C     C_R   0.103884 0.416803 0.433888 0.248536
C34   C     C_R   0.954500 0.416727 0.434315 0.252690
N1    N     N_R   0.852480 0.498790 0.499000 -0.208722
C35   C     C_R   0.897557 0.576664 0.564913 0.060348
H12   H     H_    0.076855 0.642108 0.616111 0.198669
C36   C     C_R   0.045379 0.577741 0.563968 0.005447
N2    N     N_R   0.148360 0.498710 0.498970 -0.209191
N3    N     N_R   0.883608 0.423922 0.154382 0.115586
O9    O     O_R   0.914277 0.522655 0.200485 -0.284849
O10   O     O_R   0.987419 0.342101 0.113271 -0.392581
O11   O     O_3   0.280873 0.796999 0.378369 -0.699810
H13   H     H_    0.187489 0.778000 0.365327 0.352328
N4    N     N_R   0.967516 0.130356 0.589244 0.121481
O12   O     O_R   0.849055 0.068726 0.605169 -0.352260
O13   O     O_R   0.957844 0.246216 0.619744 -0.389822
O14   O     O_3   0.761011 0.237312 0.841041 -0.680289
H14   H     H_    0.739343 0.196339 0.780384 0.384916
N5    N     N_R   0.175610 0.663141 0.809382 0.157668
O15   O     O_R   0.246500 0.741366 0.742292 -0.372922
O16   O     O_R   0.034735 0.658985 0.831494 -0.299824
O17   O     O_3   0.214743 0.544801 0.144173 -0.686826
H15   H     H_    0.242030 0.464101 0.166386 0.353063
O18   O     O_3   0.081112 0.683246 0.025116 -0.622523
H16   H     H_    0.074342 0.701953 0.099517 0.395397
N6    N     N_R   0.772966 0.872367 0.446323 0.117470
O19   O     O_R   0.844113 0.830415 0.351946 -0.356755
O20   O     O_R   0.812937 0.838161 0.525790 -0.363043

loop_
_geom_bond_atom_site_label_1
_geom_bond_atom_site_label_2
_geom_bond_distance
_ccdc_geom_bond_type
N4    O13   1.301205 A    
C34   N1    1.381068 A    
C25   C26   1.413966 A    
C11   C18   1.416027 A    
C21   C22   1.391826 A    
Cu2   N1    2.039395 S    
Cu1   Cu2   2.713994 S    
C33   N2    1.384423 A    
Cu1   O7    1.929431 S    
H7    C35   1.080707 S    
C8    O18   1.382749 S    
O4    C2    1.310425 A    
O7    C4    1.310929 A    
N6    O20   1.299524 A    
C35   C36   1.422594 A    
C5    H1    1.083191 S    
N1    C35   1.368485 A    
C7    C8    1.401249 A    
C19   C24   1.418282 A    
N3    O10   1.301554 A    
O5    C3    1.301811 A    
C29   H8    1.061430 S    
C8    C9    1.408145 A    
C29   C34   1.412167 A    
C31   C32   1.387505 A    
C12   C13   1.417372 A    
C12   C16   1.407189 A    
C17   N3    1.436168 S    
C30   C31   1.377728 A    
N4    O12   1.298838 A    
C15   H3    1.081747 S    
C10   C11   1.416140 A    
C16   H2    1.077763 S    
C26   C27   1.386241 A    
C4    C6    1.482611 S    
O14   H14   0.989847 S    
O3    Cu1   1.941357 S    
C32   C33   1.416982 A    
C20   H4    1.072698 S    
C29   C30   1.387938 A    
O17   H15   0.991811 S    
C6    C16   1.398971 A    
C13   C14   1.400058 A    
C19   O11   1.382466 S    
O3    C2    1.305257 A    
C24   C25   1.419577 A    
N5    O16   1.301931 A    
N6    O19   1.300706 A    
C21   N4    1.434479 S    
C14   C15   1.398566 A    
O1    C1    1.307101 A    
C27   C28   1.395492 A    
C23   C28   1.412657 A    
Cu2   O8    1.941357 S    
C31   H10   1.082971 S    
C9    O17   1.378651 S    
C7    C18   1.416516 A    
C5    C13   1.402813 A    
O18   H16   0.990291 S    
C30   H9    1.082911 S    
O8    C4    1.309074 A    
C1    C25   1.479362 S    
C10   C12   1.427140 A    
C14   O14   1.380346 S    
H6    C27   1.082445 S    
Cu1   N2    2.040023 S    
C26   N6    1.425606 S    
C32   H11   1.060897 S    
C7    N5    1.436265 S    
Cu1   O5    1.965783 S    
C33   C34   1.439489 A    
C22   H5    1.081462 S    
O1    Cu1   1.972797 S    
C6    C17   1.413427 A    
O2    Cu2   1.965784 S    
O6    C3    1.308756 A    
O4    Cu2   1.929431 S    
O11   H13   0.991947 S    
C22   C23   1.406784 A    
O2    C1    1.311211 A    
H12   C36   1.080560 S    
N5    O15   1.301751 A    
C19   C20   1.407349 A    
C5    C17   1.400109 A    
C23   C24   1.405164 A    
C20   C21   1.397829 A    
N3    O9    1.300261 A    
C36   N2    1.367684 A    
C2    C18   1.482305 S    
C9    C10   1.423877 A    
Cu2   O6    1.972796 S    
C11   C15   1.407881 A    
C3    C28   1.464759 S    
