data_mof_unit_56233.cif
_audit_creation_date              2013-03-05T16:02:30-0500
_audit_creation_method            fapswitch 2.2
_symmetry_space_group_name_H-M    P1
_symmetry_Int_Tables_number       1
_space_group_crystal_system       triclinic
_cell_length_a                    16.67442
_cell_length_b                    7.254232
_cell_length_c                    15.108768
_cell_angle_alpha                 90.021674
_cell_angle_beta                  94.699017
_cell_angle_gamma                 90.046412
_cell_volume                      1821.41467511

loop_
_atom_site_label
_atom_site_type_symbol
_atom_site_description
_atom_site_fract_x
_atom_site_fract_y
_atom_site_fract_z
_atom_type_partial_charge
O1    O     O_R   0.663460 0.361760 0.165970 -0.577901
O2    O     O_R   0.336540 0.638240 0.834030 -0.577901
O3    O     O_R   0.836540 0.861760 0.334030 -0.575955
O4    O     O_R   0.163460 0.138240 0.665970 -0.575955
O5    O     O_R   0.827100 0.689870 0.163730 -0.583302
O6    O     O_R   0.172900 0.310130 0.836270 -0.583302
O7    O     O_R   0.672900 0.189870 0.336270 -0.583294
O8    O     O_R   0.327100 0.810130 0.663730 -0.583294
C1    C     C_R   0.853740 0.523089 0.144118 1.057991
C2    C     C_R   0.146260 0.476911 0.855882 1.057991
C3    C     C_R   0.646320 0.023037 0.355953 1.057094
C4    C     C_R   0.353680 0.976963 0.644047 1.057094
O9    O     O_R   0.663490 0.691370 0.155500 -0.590320
O10   O     O_R   0.336510 0.308630 0.844500 -0.590319
O11   O     O_R   0.836510 0.191370 0.344500 -0.591191
O12   O     O_R   0.163490 0.808630 0.655500 -0.591191
O13   O     O_R   0.671770 0.863320 0.325740 -0.569433
O14   O     O_R   0.328230 0.136680 0.674260 -0.569433
O15   O     O_R   0.828230 0.363320 0.174260 -0.576393
O16   O     O_R   0.171770 0.636680 0.825740 -0.576393
C5    C     C_R   0.636965 0.522652 0.132730 1.034547
C6    C     C_R   0.363035 0.477347 0.867270 1.034547
C7    C     C_R   0.863182 0.022881 0.367117 1.031949
C8    C     C_R   0.136818 0.977119 0.632883 1.031949
O17   O     O_3   0.752910 0.528800 0.305860 -0.281698
O18   O     O_3   0.247090 0.471200 0.694140 -0.281698
O19   O     O_3   0.747090 0.028800 0.194140 -0.286279
O20   O     O_3   0.252910 0.971200 0.805860 -0.286279
V1    V     V_3+5 0.749460 0.803010 0.239640 1.252522
V2    V     V_3+5 0.250540 0.196990 0.760360 1.252523
V3    V     V_3+5 0.750540 0.303010 0.260360 1.251049
V4    V     V_3+5 0.249460 0.696990 0.739640 1.251049
C9    C     C_1   0.468953 0.994718 0.530257 0.184835
C10   C     C_1   0.531047 0.005282 0.469743 0.184835
C11   C     C_1   0.030994 0.494668 0.969681 0.194419
C12   C     C_1   0.969006 0.505332 0.030319 0.194419
C13   C     C_R   0.023220 0.104840 0.323498 -0.453010
C14   C     C_R   0.976780 0.895160 0.676501 -0.453010
C15   C     C_R   0.475721 0.568316 0.180247 -0.454476
C16   C     C_R   0.524279 0.431685 0.819753 -0.454476
C17   C     C_R   0.099534 0.142476 0.297480 0.713726
C18   C     C_R   0.900466 0.857524 0.702520 0.713725
C19   C     C_R   0.398921 0.589507 0.208096 0.721556
C20   C     C_R   0.601079 0.410494 0.791904 0.721557
C21   C     C_R   0.167179 0.128321 0.358270 0.101403
C22   C     C_R   0.832821 0.871679 0.641730 0.101403
C23   C     C_R   0.331206 0.577899 0.147157 0.100183
C24   C     C_R   0.668794 0.422102 0.852843 0.100182
C25   C     C_R   0.156877 0.075272 0.446275 0.530349
C26   C     C_R   0.843123 0.924728 0.553725 0.530349
C27   C     C_R   0.342118 0.544714 0.056984 0.523148
C28   C     C_R   0.657882 0.455286 0.943016 0.523149
C29   C     C_R   0.079021 0.038919 0.474843 -0.119949
C30   C     C_R   0.920979 0.961081 0.525157 -0.119949
C31   C     C_R   0.420392 0.522438 0.026953 -0.117111
C32   C     C_R   0.579608 0.477562 0.973047 -0.117112
C33   C     C_R   0.011047 0.053138 0.411599 -0.030249
C34   C     C_R   0.988953 0.946862 0.588401 -0.030249
C35   C     C_R   0.488358 0.534772 0.090306 -0.034053
C36   C     C_R   0.511642 0.465228 0.909693 -0.034052
C37   C     C_R   0.067651 0.986272 0.563860 -0.104440
C38   C     C_R   0.932349 0.013728 0.436140 -0.104440
C39   C     C_R   0.432344 0.487448 0.936089 -0.103570
C40   C     C_R   0.567656 0.512552 0.063910 -0.103569
C41   C     C_1   0.416310 0.986081 0.581814 -0.176882
C42   C     C_1   0.583690 0.013919 0.418186 -0.176881
C43   C     C_1   0.083603 0.485977 0.918083 -0.177978
C44   C     C_1   0.916397 0.514023 0.081917 -0.177977
H1    H     H_    0.973644 0.117321 0.273028 0.179726
H2    H     H_    0.026356 0.882679 0.726972 0.179726
H3    H     H_    0.525327 0.577841 0.230882 0.179533
H4    H     H_    0.474673 0.422160 0.769118 0.179533
F1    F     F_    0.223960 0.052365 0.502044 -0.683796
F2    F     F_    0.776040 0.947635 0.497956 -0.683796
F3    F     F_    0.275651 0.537502 0.999224 -0.687358
F4    F     F_    0.724349 0.462498 0.000776 -0.687358
F5    F     F_    0.106766 0.195260 0.212322 -0.612748
F6    F     F_    0.893234 0.804740 0.787678 -0.612748
F7    F     F_    0.391180 0.617929 0.295790 -0.610369
F8    F     F_    0.608820 0.382072 0.704210 -0.610369
N1    N     N_R   0.753655 0.833591 0.669324 0.299181
O21   O     O_R   0.739076 0.848616 0.752341 -0.285388
O22   O     O_R   0.695646 0.780777 0.612012 -0.285563
N2    N     N_R   0.246345 0.166409 0.330676 0.299181
O23   O     O_R   0.260924 0.151384 0.247659 -0.285387
O24   O     O_R   0.304353 0.219224 0.387988 -0.285563
N3    N     N_R   0.748471 0.400350 0.823301 0.299553
O25   O     O_R   0.758979 0.317851 0.748603 -0.286629
O26   O     O_R   0.811300 0.465150 0.869973 -0.273433
N4    N     N_R   0.251529 0.599650 0.176699 0.299553
O27   O     O_R   0.241021 0.682153 0.251396 -0.286629
O28   O     O_R   0.188700 0.534847 0.130028 -0.273432

loop_
_geom_bond_atom_site_label_1
_geom_bond_atom_site_label_2
_geom_bond_distance
_ccdc_geom_bond_type
O17   V3    1.775265 S    
N3    O25   1.301784 A    
C14   H2    1.081628 S    
O1    C5    1.332126 A    
C8    C37   1.491703 S    
C16   C36   1.413135 A    
C31   C35   1.424997 A    
O19   V1    1.775803 S    
O13   V1    1.959186 S    
O3    C7    1.332559 A    
C11   C12   1.438390 S    
O15   V3    1.958937 S    
C10   C42   1.221973 T    
N1    O21   1.301578 A    
C9    C41   1.221973 T    
C33   C38   1.421404 A    
C2    C43   1.462884 S    
O7    C3    1.330627 A    
C35   C40   1.421293 A    
C26   C30   1.425666 A    
C36   C39   1.421292 A    
O9    V1    2.006401 S    
N2    O24   1.301582 A    
C14   C18   1.389166 A    
C13   H1    1.081628 S    
C26   F2    1.354534 S    
C17   F5    1.357303 S    
O4    C8    1.332559 A    
C19   F7    1.357394 S    
O1    V3    1.996487 S    
O2    V4    1.996487 S    
C18   C22   1.398889 A    
O3    V1    1.995754 S    
C5    C40   1.491661 S    
C6    C39   1.491660 S    
C14   C34   1.413574 A    
C29   C37   1.425731 A    
C1    O15   1.327759 A    
C7    C38   1.491703 S    
C2    O16   1.327760 A    
C31   C39   1.425999 A    
O2    C6    1.332126 A    
C32   C40   1.425999 A    
O14   V2    1.959186 S    
C11   C43   1.222013 T    
C16   C20   1.388938 A    
C3    C42   1.462830 S    
C34   C37   1.421405 A    
O11   C7    1.335954 A    
O12   C8    1.335954 A    
O10   V2    2.006401 S    
N1    O22   1.301581 A    
O5    V1    1.977193 S    
O7    V3    1.976683 S    
O8    V4    1.976680 S    
C20   F8    1.357394 S    
N2    O23   1.301576 A    
C29   C33   1.425199 A    
O18   V4    1.775263 S    
C23   C27   1.409831 A    
C30   C38   1.425731 A    
C32   C36   1.424996 A    
O5    C1    1.330811 A    
C22   N1    1.443035 S    
N4    O28   1.301407 A    
C21   C25   1.408285 A    
O8    C4    1.330627 A    
C15   C35   1.413135 A    
C30   C34   1.425199 A    
C9    C10   1.438341 S    
C24   N3    1.444526 S    
O9    C5    1.336343 A    
O6    V2    1.977193 S    
C18   F6    1.357304 S    
N3    O26   1.301407 A    
C23   N4    1.444524 S    
C25   F1    1.354535 S    
C21   N2    1.443036 S    
O16   V4    1.958936 S    
C3    O13   1.327783 A    
C17   C21   1.398889 A    
C16   H4    1.081857 S    
C27   F3    1.354280 S    
C28   F4    1.354279 S    
O6    C2    1.330811 A    
C15   C19   1.388938 A    
C12   C44   1.222013 T    
O11   V3    2.007727 S    
O12   V4    2.007726 S    
C4    C41   1.462830 S    
C22   C26   1.408285 A    
O10   C6    1.336343 A    
O20   V2    1.775803 S    
C1    C44   1.462884 S    
N4    O27   1.301784 A    
C25   C29   1.425666 A    
C27   C31   1.425754 A    
C13   C17   1.389166 A    
O4    V2    1.995753 S    
C28   C32   1.425754 A    
C24   C28   1.409832 A    
C4    O14   1.327783 A    
C15   H3    1.081856 S    
C19   C23   1.399697 A    
C13   C33   1.413573 A    
C20   C24   1.399697 A    
