data_mof_unit_63239.cif
_audit_creation_date              2012-12-10T19:01:19-0500
_audit_creation_method            fapswitch 2.2
_symmetry_space_group_name_H-M    P1
_symmetry_Int_Tables_number       1
_space_group_crystal_system       triclinic
_cell_length_a                    15.847792
_cell_length_b                    14.259918
_cell_length_c                    13.38157
_cell_angle_alpha                 89.999981
_cell_angle_beta                  90.000726
_cell_angle_gamma                 90.000083
_cell_volume                      3024.07710994

loop_
_atom_site_label
_atom_site_type_symbol
_atom_type_description
_atom_site_fract_x
_atom_site_fract_y
_atom_site_fract_z
_atom_type_partial_charge
C1    C     C_R   0.500000 0.326565 0.500000 0.913298
C2    C     C_1   0.500000 0.499979 0.950478 -0.023112
C3    C     C_R   0.335937 0.498516 0.499998 0.937006
C4    C     C_R   0.664063 0.498519 0.499999 0.937011
C5    C     C_R   0.500000 0.673451 0.500000 0.950487
C6    C     C_3   0.048521 0.464933 0.594865 -0.435285
C7    C     C_3   0.048515 0.460524 0.407497 -0.435426
C8    C     C_3   0.951483 0.464913 0.594854 -0.435236
C9    C     C_3   0.951482 0.460543 0.407486 -0.435473
C10   C     C_1   0.752195 0.503911 0.499984 -0.142427
C11   C     C_1   0.247806 0.503911 0.499981 -0.142428
C12   C     C_1   0.500000 0.141346 0.500000 0.012559
C13   C     C_3   0.082209 0.514585 0.499793 0.098534
C14   C     C_3   0.917791 0.514584 0.499796 0.098530
C15   C     C_3   0.949618 0.619012 0.497028 0.586719
C16   C     C_3   0.050380 0.619012 0.497003 0.586720
C17   C     C_1   0.826839 0.509120 0.499919 0.052341
C18   C     C_1   0.173161 0.509121 0.499915 0.052340
C19   C     C_1   0.500000 0.225912 0.500000 -0.206463
C20   C     C_1   0.500000 0.042285 0.500000 0.036436
C21   C     C_1   0.500000 0.957725 0.499999 0.043961
C22   C     C_1   0.500000 0.858666 0.499999 0.034602
C23   C     C_1   0.500000 0.774101 0.500000 -0.178321
C24   C     C_1   0.500000 0.499979 0.169449 0.104693
C25   C     C_1   0.500000 0.499979 0.830551 0.103867
C26   C     C_1   0.500000 0.499979 0.049522 -0.022960
Cl1   Cl    Cl    0.094670 0.682574 0.601376 -0.482062
Cl2   Cl    Cl    0.094630 0.677567 0.389332 -0.481899
Cl3   Cl    Cl    0.905365 0.682533 0.601450 -0.482092
Cl4   Cl    Cl    0.905330 0.677609 0.389404 -0.481872
H1    H     H_    0.928446 0.391147 0.597319 0.200251
H2    H     H_    0.928422 0.386761 0.408909 0.200353
H3    H     H_    0.071583 0.391178 0.597367 0.200245
H4    H     H_    0.071552 0.386734 0.408958 0.200357
H5    H     H_    0.072170 0.492086 0.336865 0.235357
H6    H     H_    0.072157 0.499803 0.663717 0.235600
H7    H     H_    0.927848 0.492143 0.336863 0.235375
H8    H     H_    0.927826 0.499744 0.663718 0.235582
N1    N     N_1   0.500000 0.499980 0.261870 -0.058922
N2    N     N_1   0.500000 0.499980 0.738130 -0.059090
O1    O     O_R   0.500000 0.373720 0.576470 -0.600415
O2    O     O_R   0.500000 0.373720 0.423530 -0.600452
O3    O     O_R   0.377150 0.500010 0.576490 -0.603967
O4    O     O_R   0.377150 0.500010 0.423510 -0.603207
O5    O     O_R   0.622850 0.500010 0.576490 -0.603966
O6    O     O_R   0.622850 0.500010 0.423510 -0.603210
O7    O     O_R   0.500000 0.626290 0.576440 -0.590953
O8    O     O_R   0.500000 0.626290 0.423560 -0.590639
Zn1   Zn    Zn3+2 0.500000 0.500010 0.602090 1.003359
Zn2   Zn    Zn3+2 0.500000 0.500010 0.397910 1.004291

loop_
_geom_bond_atom_site_label_1
_geom_bond_atom_site_label_2
_ccdc_geom_bond_type
C16   Cl2   S    
C6    C8    S    
C9    C14   S    
C11   C18   T    
O4    Zn2   S    
O6    Zn2   S    
C5    C23   S    
C6    H3    S    
O5    Zn1   S    
C12   C20   S    
C16   Cl1   S    
O8    Zn2   S    
O7    Zn1   S    
C4    O6    A    
C21   C22   S    
C6    C13   S    
C5    O7    A    
C14   C17   S    
C3    O3    A    
C8    H8    S    
C13   C18   S    
O2    Zn2   S    
C12   C19   T    
C1    O1    A    
C5    O8    A    
C24   C26   S    
C15   Cl3   S    
C2    C25   S    
C4    O5    A    
C25   N2    T    
C7    H4    S    
C3    O4    A    
C1    C19   S    
C3    C11   S    
C10   C17   T    
C4    C10   S    
N2    Zn1   S    
C1    O2    A    
C7    C13   S    
N1    Zn2   S    
C20   C21   T    
C15   Cl4   S    
C2    C26   T    
C9    H7    S    
C13   C16   S    
O1    Zn1   S    
C7    C9    S    
C14   C15   S    
O3    Zn1   S    
C8    C14   S    
C9    H2    S    
C22   C23   T    
C8    H1    S    
C7    H5    S    
C24   N1    T    
C15   C16   S    
C6    H6    S    
