data_mof_unit_55498.cif
_audit_creation_date              2012-12-10T18:01:44-0500
_audit_creation_method            fapswitch 2.2
_symmetry_space_group_name_H-M    P1
_symmetry_Int_Tables_number       1
_space_group_crystal_system       triclinic
_cell_length_a                    10.832294
_cell_length_b                    9.665361
_cell_length_c                    19.320716
_cell_angle_alpha                 89.997698
_cell_angle_beta                  95.015976
_cell_angle_gamma                 89.999878
_cell_volume                      2015.09418191

loop_
_atom_site_label
_atom_site_type_symbol
_atom_type_description
_atom_site_fract_x
_atom_site_fract_y
_atom_site_fract_z
_atom_type_partial_charge
C1    C     C_R   0.262442 0.499999 0.499733 0.773579
C2    C     C_R   0.737556 0.499999 0.500255 0.773592
C3    C     C_R   0.500648 0.499181 0.930345 0.411469
C4    C     C_R   0.498835 0.499413 0.069976 0.385342
C5    C     C_R   0.499316 0.499992 0.367548 0.796820
C6    C     C_R   0.500634 0.499974 0.632460 0.797213
C7    C     C_R   0.063900 0.374302 0.500049 -0.186813
C8    C     C_R   0.936093 0.625682 0.499894 -0.186594
C9    C     C_R   0.936153 0.374302 0.500281 -0.186870
C10   C     C_R   0.063839 0.625682 0.499677 -0.186480
C11   C     C_R   0.871626 0.499994 0.500198 -0.012294
C12   C     C_R   0.128369 0.499993 0.499764 -0.012307
C13   C     C_R   0.419244 0.074204 0.454500 0.236399
C14   C     C_R   0.580893 0.925811 0.545419 0.237323
C15   C     C_R   0.580751 0.074205 0.545498 0.234869
C16   C     C_R   0.419184 0.925808 0.454535 0.237017
C17   C     C_R   0.497490 0.624979 0.254603 -0.210855
C18   C     C_R   0.492358 0.374947 0.744750 -0.222287
C19   C     C_R   0.510529 0.624374 0.745798 -0.223150
C20   C     C_R   0.498938 0.374638 0.254817 -0.210222
C21   C     C_R   0.496447 0.626553 0.182125 0.147251
C22   C     C_R   0.492460 0.372678 0.817205 0.143621
C23   C     C_R   0.510796 0.626223 0.818271 0.143743
C24   C     C_R   0.499270 0.372677 0.182414 0.147255
C25   C     C_R   0.497967 0.499530 0.145680 0.002959
C26   C     C_R   0.501473 0.499356 0.854448 0.027932
C27   C     C_R   0.498589 0.499895 0.291278 -0.105657
C28   C     C_R   0.501181 0.499792 0.708752 -0.095327
Cu1   Cu    Cu3+1 0.500000 0.640660 0.500000 0.927927
Cu2   Cu    Cu3+1 0.500000 0.359340 0.500000 0.926999
H1    H     H_    0.111844 0.275954 0.500160 0.153236
H2    H     H_    0.888151 0.724028 0.499762 0.153093
H3    H     H_    0.888258 0.275955 0.500479 0.153209
H4    H     H_    0.111731 0.724029 0.499493 0.153219
H5    H     H_    0.496549 0.722454 0.282272 0.163840
H6    H     H_    0.485935 0.278218 0.716311 0.159652
H7    H     H_    0.516736 0.721234 0.718105 0.158024
H8    H     H_    0.500192 0.277284 0.282702 0.164387
N1    N     N_R   0.500000 0.852070 0.500000 -0.190267
N2    N     N_R   0.500000 0.147930 0.500000 -0.190601
N3    N     N_R   0.397229 0.458441 0.029220 -0.238446
N4    N     N_R   0.602308 0.539885 0.971210 -0.251370
N5    N     N_R   0.398069 0.458579 0.960426 -0.250879
N6    N     N_R   0.601360 0.540215 0.039995 -0.237986
O1    O     O_R   0.319640 0.618740 0.500000 -0.587464
O2    O     O_R   0.680360 0.381260 0.500000 -0.588043
O3    O     O_R   0.680360 0.618740 0.500000 -0.587639
O4    O     O_R   0.319640 0.381260 0.500000 -0.588106
O5    O     O_R   0.499980 0.618820 0.400140 -0.584051
O6    O     O_R   0.500020 0.381180 0.599860 -0.584451
O7    O     O_R   0.500020 0.618820 0.599860 -0.583344
O8    O     O_R   0.499980 0.381180 0.400140 -0.584246
C29   C     C_3   0.490731 0.765505 0.145612 -0.411441
C30   C     C_3   0.617813 0.834594 0.150625 -0.805633
H9    H     H_    0.649468 0.857309 0.205688 0.244222
H10   H     H_    0.686577 0.766444 0.128176 0.270621
H11   H     H_    0.612171 0.933260 0.121116 0.238577
H12   H     H_    0.456043 0.756027 0.090038 0.213148
H13   H     H_    0.423990 0.833889 0.169745 0.195228
C31   C     C_3   0.485198 0.233261 0.852869 -0.416920
C32   C     C_3   0.611066 0.189160 0.887574 -0.823096
H14   H     H_    0.680490 0.184762 0.848574 0.251904
H15   H     H_    0.643637 0.262145 0.929554 0.264800
H16   H     H_    0.603196 0.084718 0.910739 0.240770
H17   H     H_    0.415395 0.235162 0.891544 0.223474
H18   H     H_    0.453682 0.151900 0.814616 0.198140
C33   C     C_3   0.518827 0.765414 0.854852 -0.416886
C34   C     C_3   0.393312 0.810208 0.877463 -0.816923
H19   H     H_    0.323633 0.814887 0.831789 0.253670
H20   H     H_    0.360680 0.737515 0.916360 0.263541
H21   H     H_    0.401763 0.914648 0.901359 0.239788
H22   H     H_    0.588818 0.762858 0.900274 0.222881
H23   H     H_    0.550630 0.846752 0.819755 0.195998
C35   C     C_3   0.503955 0.233449 0.146628 -0.409345
C36   C     C_3   0.376675 0.164755 0.140191 -0.811651
H24   H     H_    0.346150 0.142474 0.192466 0.239860
H25   H     H_    0.307547 0.233007 0.111340 0.271076
H26   H     H_    0.381387 0.065894 0.111311 0.239803
H27   H     H_    0.537451 0.242322 0.094143 0.213464
H28   H     H_    0.571127 0.165083 0.177005 0.197668
C37   C     C_3   0.327075 0.145999 0.402468 -0.783530
H29   H     H_    0.326618 0.257935 0.402754 0.274049
H30   H     H_    0.345447 0.117023 0.348764 0.193015
H31   H     H_    0.231136 0.116253 0.412006 0.193907
C38   C     C_3   0.673731 0.854049 0.597071 -0.785262
H32   H     H_    0.673361 0.742107 0.597266 0.273503
H33   H     H_    0.769461 0.882994 0.586681 0.194432
H34   H     H_    0.656914 0.883952 0.650869 0.191905
C39   C     C_3   0.672601 0.146014 0.597693 -0.781940
H35   H     H_    0.673438 0.257939 0.597187 0.274070
H36   H     H_    0.653439 0.117525 0.651342 0.195612
H37   H     H_    0.768631 0.115844 0.588585 0.193533
C40   C     C_3   0.326831 0.854033 0.402612 -0.785054
H38   H     H_    0.326622 0.742094 0.402758 0.273652
H39   H     H_    0.230947 0.883552 0.412389 0.194077
H40   H     H_    0.344774 0.883285 0.348882 0.193077

loop_
_geom_bond_atom_site_label_1
_geom_bond_atom_site_label_2
_ccdc_geom_bond_type
C3    N4    A    
C40   H38   S    
C1    O1    A    
C37   H29   S    
C29   H13   S    
Cu1   O5    S    
C29   C30   S    
C2    O2    A    
C3    N5    A    
C16   C40   S    
Cu1   O3    S    
Cu2   O4    S    
C34   H21   S    
C22   C31   S    
C4    N3    A    
C13   C37   S    
C33   H22   S    
C23   C26   A    
C23   C33   S    
C32   H15   S    
C13   N2    A    
C21   C25   A    
C19   H7    S    
C14   N1    A    
C5    C27   S    
C6    C28   S    
C20   C24   A    
C34   H19   S    
C5    O8    A    
C33   H23   S    
C6    O7    A    
C39   H36   S    
Cu2   O6    S    
C31   H18   S    
C40   H39   S    
C35   H28   S    
C9    H3    S    
N3    N5    A    
C5    O5    A    
C1    C12   S    
N4    N6    A    
C2    C11   S    
C37   H30   S    
C4    C25   S    
C38   H33   S    
C7    C12   A    
C30   H10   S    
C7    H1    S    
C35   C36   S    
C33   C34   S    
C17   C27   A    
C18   C28   A    
C24   C25   A    
C4    N6    A    
C38   H32   S    
C17   C21   A    
Cu1   O1    S    
C31   C32   S    
C8    H2    S    
C32   H16   S    
C19   C23   A    
C36   H24   S    
Cu1   Cu2   S    
C15   C39   S    
C20   H8    S    
Cu1   N1    S    
Cu2   N2    S    
C10   H4    S    
C6    O6    A    
C39   H37   S    
C19   C28   A    
C36   H25   S    
C10   C12   A    
C8    C10   A    
C31   H17   S    
C40   H40   S    
C35   H27   S    
C9    C11   A    
C37   H31   S    
Cu1   O7    S    
C38   H34   S    
C7    C9    A    
Cu2   O8    S    
C30   H9    S    
C18   C22   A    
Cu2   O2    S    
C3    C26   S    
C14   C38   S    
C29   H12   S    
C1    O4    A    
C20   C27   A    
C2    O3    A    
C21   C29   S    
C24   C35   S    
C8    C11   A    
C32   H14   S    
C36   H26   S    
C15   N2    A    
C16   N1    A    
C34   H20   S    
C22   C26   A    
C13   C16   A    
C14   C15   A    
C17   H5    S    
C39   H35   S    
C18   H6    S    
C30   H11   S    
