data_mof_unit_9345.cif
_audit_creation_date              2012-12-10T17:45:34-0500
_audit_creation_method            fapswitch 2.2
_symmetry_space_group_name_H-M    P1
_symmetry_Int_Tables_number       1
_space_group_crystal_system       triclinic
_cell_length_a                    11.51152
_cell_length_b                    10.655905
_cell_length_c                    9.967163
_cell_angle_alpha                 90.53703
_cell_angle_beta                  90.05555
_cell_angle_gamma                 92.290317
_cell_volume                      1221.59721476

loop_
_atom_site_label
_atom_site_type_symbol
_atom_type_description
_atom_site_fract_x
_atom_site_fract_y
_atom_site_fract_z
_atom_type_partial_charge
C1    C     C_R   0.506212 0.260975 0.499629 0.938286
C2    C     C_R   0.515738 0.871904 0.501483 -0.085214
C3    C     C_R   0.399738 0.292114 0.134565 0.451593
C4    C     C_R   0.282464 0.504127 0.500037 1.008365
C5    C     C_R   0.421524 0.177317 0.071194 -0.312609
C6    C     C_R   0.428541 0.174748 0.931174 -0.291664
C7    C     C_R   0.407900 0.286087 0.862850 0.465206
C8    C     C_R   0.449611 0.398668 0.927104 0.046064
C9    C     C_R   0.448348 0.399901 0.071014 0.059242
C10   C     C_R   0.547467 0.597165 0.072294 -0.077660
C11   C     C_R   0.546959 0.597405 0.929601 -0.081997
C12   C     C_R   0.772145 0.079124 0.723467 -0.093622
C13   C     C_R   0.506065 0.739262 0.500646 0.835610
C14   C     C_R   0.717812 0.500558 0.500071 0.852588
C15   C     C_1   0.161918 0.505579 0.500071 -0.072070
C16   C     C_1   0.059600 0.505271 0.500166 0.008185
C17   C     C_1   0.940799 0.503712 0.500277 0.010689
C18   C     C_1   0.838427 0.502096 0.500248 -0.162900
C19   C     C_R   0.688794 0.140248 0.649640 -0.198475
C20   C     C_R   0.771881 0.948586 0.724219 -0.121367
C21   C     C_R   0.688200 0.878582 0.651255 -0.200926
C22   C     C_R   0.601405 0.938917 0.578004 0.106842
C23   C     C_R   0.601817 0.070833 0.576973 0.075527
C24   C     C_R   0.516872 0.128744 0.499016 -0.108990
C25   C     C_R   0.438125 0.059429 0.419532 -0.155076
C26   C     C_R   0.437079 0.931705 0.420970 -0.212854
H1    H     H_    0.414386 0.085048 0.880470 0.205419
H2    H     H_    0.120618 0.401852 0.789753 0.373020
H3    H     H_    0.838229 0.133276 0.778645 0.166122
H4    H     H_    0.120714 0.435917 0.190516 0.376274
H5    H     H_    0.586205 0.676809 0.877299 0.139726
H6    H     H_    0.695093 0.241629 0.648186 0.152264
H7    H     H_    0.837736 0.901380 0.780012 0.156122
H8    H     H_    0.693980 0.777614 0.651063 0.149783
H9    H     H_    0.372724 0.879142 0.361166 0.172237
H10   H     H_    0.587194 0.676360 0.126165 0.144878
H11   H     H_    0.400844 0.089683 0.121445 0.189572
H12   H     H_    0.374779 0.103549 0.358643 0.209525
N1    N     N_R   0.498930 0.498800 0.142780 -0.114082
N2    N     N_R   0.498900 0.498720 0.857170 -0.114456
O1    O     O_R   0.500000 0.316780 0.614690 -0.622434
O2    O     O_2   0.193376 0.177184 0.849345 -0.257862
O3    O     O_3   0.202697 0.417684 0.817033 -0.521145
O4    O     O_2   0.178291 0.202583 0.122002 -0.246469
O5    O     O_2   0.247381 0.271924 0.341174 -0.319664
O6    O     O_3   0.203603 0.442070 0.163841 -0.523352
O7    O     O_R   0.499990 0.316750 0.385360 -0.629860
O8    O     O_R   0.334450 0.500030 0.614670 -0.544964
O9    O     O_R   0.334440 0.500000 0.385330 -0.549084
O10   O     O_R   0.500010 0.683250 0.614640 -0.630270
O11   O     O_R   0.500000 0.683220 0.385310 -0.628318
O12   O     O_R   0.665560 0.500000 0.614670 -0.640077
O13   O     O_R   0.665550 0.499970 0.385330 -0.612214
O14   O     O_2   0.273830 0.254657 0.640380 -0.293840
S1    S     S_3+6 0.267277 0.281146 0.788195 0.074870
S2    S     S_3+6 0.254518 0.299187 0.194040 0.056590
Zn1   Zn    Zn3+2 0.500010 0.500020 0.653130 0.995779
Zn2   Zn    Zn3+2 0.499990 0.499980 0.346870 1.003139

loop_
_geom_bond_atom_site_label_1
_geom_bond_atom_site_label_2
_ccdc_geom_bond_type
C2    C22   A    
O12   Zn1   S    
C19   C23   A    
O13   Zn2   S    
C6    C7    A    
C3    C9    A    
C5    H11   S    
C25   H12   S    
C3    S2    S    
C14   C18   S    
H2    O3    S    
C6    H1    S    
C7    S1    S    
C4    O9    A    
C23   C24   A    
C12   C20   A    
C4    C15   S    
C17   C18   T    
C8    C9    A    
O1    Zn1   S    
O8    Zn1   S    
C2    C26   A    
O11   Zn2   S    
C13   O11   A    
C21   C22   A    
C24   C25   A    
O7    Zn2   S    
C1    O1    A    
N1    Zn2   S    
C5    C6    A    
C20   H7    S    
C12   C19   A    
O3    S1    S    
C11   N2    A    
O2    S1    D    
C7    C8    A    
C10   C11   A    
C19   H6    S    
C11   H5    S    
C13   O10   A    
C16   C17   S    
C26   H9    S    
C9    N1    A    
C14   O13   A    
C20   C21   A    
C1    C24   S    
C4    O8    A    
O6    S2    S    
C2    C13   S    
O4    S2    D    
O14   S1    D    
C1    O7    A    
C10   H10   S    
C21   H8    S    
C8    N2    A    
C25   C26   A    
C22   C23   A    
O10   Zn1   S    
N2    Zn1   S    
H4    O6    S    
C14   O12   A    
O9    Zn2   S    
C15   C16   T    
O5    S2    D    
C10   N1    A    
C3    C5    A    
C12   H3    S    
