data_mof_unit_65126.cif
_audit_creation_date              2012-12-10T16:51:55-0500
_audit_creation_method            fapswitch 2.2
_symmetry_space_group_name_H-M    P1
_symmetry_Int_Tables_number       1
_space_group_crystal_system       triclinic
_cell_length_a                    18.357068
_cell_length_b                    18.404588
_cell_length_c                    18.353894
_cell_angle_alpha                 90.794909
_cell_angle_beta                  119.363311
_cell_angle_gamma                 119.582531
_cell_volume                      4423.73240443

loop_
_atom_site_label
_atom_site_type_symbol
_atom_type_description
_atom_site_fract_x
_atom_site_fract_y
_atom_site_fract_z
_atom_type_partial_charge
C1    C     C_R   0.777104 0.638451 0.638016 0.849705
C2    C     C_2   0.112341 0.307825 0.303427 -0.296248
C3    C     C_2   0.443007 0.162685 0.718843 -0.166278
C4    C     C_R   0.223036 0.361613 0.361219 0.850338
C5    C     C_2   0.498747 0.195410 0.807739 -0.294369
C6    C     C_2   0.440481 0.218887 0.662661 -0.162802
C7    C     C_2   0.504521 0.307746 0.695430 -0.295025
C8    C     C_2   0.056475 0.777123 0.724556 -0.209518
C9    C     C_2   0.115663 0.784826 0.809360 0.017962
C10   C     C_2   0.946977 0.706689 0.665199 0.180056
C11   C     C_2   0.887686 0.700433 0.691660 -0.405262
C12   C     C_3   0.591571 0.826152 0.798795 0.174621
C13   C     C_2   0.448804 0.162046 0.231176 -0.157062
C14   C     C_2   0.489198 0.194124 0.185952 -0.248990
C15   C     C_2   0.443607 0.218333 0.280645 -0.179311
C16   C     C_R   0.500474 0.638853 0.361818 0.852970
C17   C     C_2   0.518762 0.304987 0.323646 -0.010047
C18   C     C_2   0.442324 0.779793 0.223879 -0.163896
C19   C     C_2   0.498362 0.803043 0.190744 -0.295488
C20   C     C_2   0.439974 0.721109 0.277570 -0.163379
C21   C     C_2   0.504543 0.696740 0.308962 -0.297499
C22   C     C_R   0.499824 0.138567 0.861631 0.847393
C23   C     C_3   0.523301 0.790892 0.696172 -0.196227
C24   C     C_R   0.499676 0.861131 0.138144 0.849349
C25   C     C_R   0.777039 0.138566 0.138767 0.849386
C26   C     C_R   0.223211 0.858921 0.861960 0.830908
C27   C     C_R   0.498209 0.140663 0.139344 0.851365
C28   C     C_R   0.500425 0.361601 0.638541 0.848673
C29   C     C_R   0.499878 0.858297 0.858187 0.777177
C30   C     C_R   0.502972 0.359193 0.361895 0.807681
C31   C     C_R   0.500040 0.641607 0.641726 0.794930
C32   C     C_3   0.570070 0.734280 0.801602 -0.132842
C33   C     C_3   0.476534 0.708853 0.802645 -0.242705
C34   C     C_3   0.430456 0.764753 0.697983 0.198864
C35   C     C_3   0.499259 0.800975 0.800115 -0.068246
C36   C     C_3   0.079935 0.715775 0.851228 -0.386907
C37   C     C_3   0.137289 0.672088 0.876036 -0.857974
C38   C     C_3   0.904953 0.646729 0.576865 -0.313217
C39   C     C_3   0.986710 0.651719 0.569453 -0.903031
C40   C     C_3   0.696343 0.914561 0.856339 -0.414662
C41   C     C_3   0.771100 0.918850 0.838647 -0.869943
C42   C     C_3   0.350198 0.781378 0.638208 -0.386445
C43   C     C_3   0.296113 0.734401 0.540197 -0.868856
C44   C     C_3   0.406848 0.672094 0.699563 -0.175345
C45   C     C_3   0.500404 0.698868 0.699238 -0.004681
C46   C     C_2   0.943960 0.162723 0.219582 -0.164521
C47   C     C_2   0.887721 0.195420 0.196497 -0.293830
C48   C     C_2   0.056289 0.218919 0.278185 -0.162732
H1    H     H_    0.457342 0.675909 0.846825 0.152404
H2    H     H_    0.627933 0.721339 0.843742 0.149874
H3    H     H_    0.515190 0.260350 0.182124 0.160494
H4    H     H_    0.373994 0.188137 0.278010 0.159219
H5    H     H_    0.394903 0.803584 0.210618 0.174820
H6    H     H_    0.544228 0.778783 0.200195 0.149969
H7    H     H_    0.383379 0.698330 0.292420 0.175179
H8    H     H_    0.563849 0.719903 0.297926 0.149574
H9    H     H_    0.542587 0.823957 0.652078 0.133369
H10   H     H_    0.330653 0.607854 0.657810 0.135966
H11   H     H_    0.906781 0.091593 0.195717 0.174409
H12   H     H_    0.078404 0.344059 0.281085 0.149973
H13   H     H_    0.921516 0.265477 0.220581 0.150688
H14   H     H_    0.093637 0.185024 0.300236 0.174421
H15   H     H_    0.127017 0.640993 0.816403 0.252751
H16   H     H_    0.220029 0.721313 0.927788 0.260631
H17   H     H_    0.106674 0.619712 0.902727 0.246162
H18   H     H_    0.092769 0.748369 0.911745 0.213246
H19   H     H_    0.997822 0.661221 0.806849 0.220225
H20   H     H_    0.036980 0.718524 0.570036 0.259985
H21   H     H_    0.033425 0.636771 0.625043 0.269266
H22   H     H_    0.949363 0.602096 0.505883 0.249163
H23   H     H_    0.395864 0.091558 0.684980 0.173171
H24   H     H_    0.852262 0.576605 0.568109 0.201961
H25   H     H_    0.861785 0.664430 0.521794 0.223094
H26   H     H_    0.633307 0.395512 0.314561 0.191542
H27   H     H_    0.672112 0.369677 0.408384 0.181110
H28   H     H_    0.781316 0.865035 0.853835 0.259740
H29   H     H_    0.742795 0.912197 0.768126 0.255075
H30   H     H_    0.846348 0.983724 0.881584 0.252289
H31   H     H_    0.688064 0.969455 0.841862 0.196604
H32   H     H_    0.726801 0.922859 0.927447 0.221207
H33   H     H_    0.351844 0.758892 0.522384 0.262852
H34   H     H_    0.544440 0.265450 0.843885 0.150440
H35   H     H_    0.256422 0.661558 0.525415 0.263628
H36   H     H_    0.238589 0.747962 0.498870 0.248866
H37   H     H_    0.292895 0.756805 0.654204 0.219701
H38   H     H_    0.387938 0.853874 0.651146 0.215189
H39   H     H_    0.384192 0.185057 0.591491 0.174694
H40   H     H_    0.563496 0.343866 0.765507 0.150053
H41   H     H_    0.089266 0.824937 0.696945 0.154148
H42   H     H_    0.922674 0.743959 0.756417 0.146370
H43   H     H_    0.416150 0.093647 0.229556 0.173025
N1    N     N_3   0.617410 0.343142 0.339693 -0.446682
O1    O     O_3   0.500000 0.500000 0.500000 -0.483857
O2    O     O_R   0.270900 0.886160 0.946260 -0.644059
O3    O     O_R   0.560160 0.177420 0.117340 -0.643820
O4    O     O_R   0.729180 0.615300 0.675360 -0.638612
O5    O     O_R   0.440020 0.882760 0.822680 -0.656802
O6    O     O_R   0.439990 0.057240 0.117340 -0.649749
O7    O     O_R   0.560190 0.882760 0.942820 -0.641398
O8    O     O_R   0.729270 0.053840 0.113900 -0.644535
O9    O     O_R   0.270910 0.884750 0.824690 -0.653296
O10   O     O_R   0.560170 0.175430 0.946260 -0.644920
O11   O     O_R   0.440000 0.886160 0.115330 -0.645610
O12   O     O_R   0.439910 0.615300 0.386140 -0.642392
O13   O     O_R   0.270820 0.446200 0.386140 -0.646207
O14   O     O_R   0.560090 0.613880 0.384720 -0.645868
O15   O     O_R   0.439920 0.324620 0.553780 -0.643668
O16   O     O_R   0.560100 0.442800 0.382710 -0.655355
O17   O     O_R   0.560070 0.617290 0.677370 -0.646494
O18   O     O_R   0.439930 0.322630 0.382710 -0.653482
O19   O     O_R   0.439900 0.617290 0.557220 -0.642488
O20   O     O_R   0.560080 0.446200 0.675360 -0.645594
O21   O     O_R   0.729180 0.613880 0.553780 -0.655499
O22   O     O_R   0.270820 0.324620 0.384720 -0.643401
O23   O     O_3   0.500090 0.000040 0.000040 -0.484289
O24   O     O_R   0.440010 0.053840 0.824690 -0.645993
O25   O     O_R   0.560180 0.884750 0.113900 -0.644276
O26   O     O_R   0.729260 0.175430 0.115330 -0.642749
Zn1   Zn    Zn3+2 0.414150 0.543930 0.458110 0.962623
Zn2   Zn    Zn3+2 0.585850 0.541910 0.456060 0.948406
Zn3   Zn    Zn3+2 0.414160 0.370220 0.456060 0.957599
Zn4   Zn    Zn3+2 0.585840 0.543930 0.629770 0.961824
Zn5   Zn    Zn3+2 0.585940 0.956110 0.041940 0.959341
Zn6   Zn    Zn3+2 0.585930 0.129820 0.043980 0.968859
Zn7   Zn    Zn3+2 0.414240 0.958130 0.043980 0.956250
Zn8   Zn    Zn3+2 0.414250 0.956110 0.870280 0.945605

loop_
_geom_bond_atom_site_label_1
_geom_bond_atom_site_label_2
_ccdc_geom_bond_type
O3    Zn6   S    
C26   O2    A    
C27   O6    A    
C16   C21   S    
C23   C45   S    
C46   H11   S    
C43   H35   S    
C32   C45   S    
O16   Zn2   S    
C27   O3    A    
C34   C42   S    
C3    C6    S    
C25   O26   A    
C36   H19   S    
C28   O20   A    
C12   C23   S    
C24   O25   A    
O23   Zn8   S    
C17   C30   S    
C30   O18   A    
C4    O22   A    
C36   C37   S    
O1    Zn3   S    
C18   C19   D    
O18   Zn3   S    
C41   H29   S    
C38   C39   S    
C36   H18   S    
O17   Zn4   S    
C28   O15   A    
C33   H1    S    
O19   Zn1   S    
C34   C35   S    
C39   H20   S    
H26   N1    S    
C18   H5    S    
O22   Zn3   S    
C16   O12   A    
O6    Zn7   S    
C5    C22   S    
C7    H40   S    
C44   H10   S    
C8    C9    D    
C37   H17   S    
C9    C36   S    
C40   H32   S    
C42   H38   S    
O1    Zn2   S    
C14   C27   S    
C25   C47   S    
C16   O14   A    
O12   Zn1   S    
O14   Zn2   S    
C22   O24   A    
O24   Zn8   S    
C13   C14   D    
C12   C32   S    
C43   H36   S    
C17   N1    S    
C1    O21   A    
C20   H7    S    
O10   Zn6   S    
C37   H15   S    
C9    C26   S    
C46   C48   S    
C39   H21   S    
C38   H24   S    
O23   Zn5   S    
C29   O7    A    
C2    H12   S    
C34   C44   S    
O1    Zn4   S    
C41   H30   S    
C2    C48   D    
C7    C28   S    
C12   C40   S    
C3    H23   S    
O20   Zn4   S    
O21   Zn2   S    
C25   O8    A    
C48   H14   S    
C14   H3    S    
C23   C34   S    
O9    Zn8   S    
C31   O17   A    
C40   H31   S    
C42   H37   S    
O26   Zn6   S    
C15   H4    S    
C12   C35   S    
C32   H2    S    
H27   N1    S    
C19   H6    S    
C40   C41   S    
C13   C15   S    
C43   H33   S    
C42   C43   S    
O15   Zn3   S    
C37   H16   S    
C44   C45   S    
O7    Zn5   S    
O2    Zn7   S    
C23   H9    S    
C46   C47   D    
O23   Zn6   S    
C30   O16   A    
C33   C44   S    
O5    Zn8   S    
C3    C5    D    
C22   O10   A    
C47   H13   S    
C21   H8    S    
C15   C17   D    
C6    C7    D    
C8    H41   S    
O4    Zn4   S    
C4    O13   A    
C29   C35   S    
O23   Zn7   S    
C29   O5    A    
C10   C38   S    
C24   O11   A    
C32   C33   S    
O8    Zn5   S    
C19   C24   S    
O25   Zn5   S    
C26   O9    A    
C41   H28   S    
C5    H34   S    
C11   H42   S    
C1    O4    A    
C2    C4    S    
C33   C35   S    
C39   H22   S    
C18   C20   S    
O11   Zn7   S    
C10   C11   D    
C6    H39   S    
C20   C21   D    
C8    C10   S    
C31   C45   S    
C31   O19   A    
O13   Zn1   S    
C1    C11   S    
O1    Zn1   S    
C13   H43   S    
C38   H25   S    
