data_mof_unit_22321.cif
_audit_creation_date              2012-12-11T14:03:59-0500
_audit_creation_method            fapswitch 2.2
_symmetry_space_group_name_H-M    P1
_symmetry_Int_Tables_number       1
_space_group_crystal_system       triclinic
_cell_length_a                    18.897341
_cell_length_b                    10.993238
_cell_length_c                    18.741361
_cell_angle_alpha                 89.675542
_cell_angle_beta                  89.771395
_cell_angle_gamma                 90.011077
_cell_volume                      3893.2924364

loop_
_atom_site_label
_atom_site_type_symbol
_atom_type_description
_atom_site_fract_x
_atom_site_fract_y
_atom_site_fract_z
_atom_type_partial_charge
C1    C     C_R   0.226981 0.513724 0.637628 0.567274
C2    C     C_R   0.772412 0.511663 0.362237 0.569376
C3    C     C_R   0.726985 0.013709 0.637627 0.567271
C4    C     C_R   0.272216 0.010926 0.362262 0.569097
C5    C     C_2   0.301299 0.877475 0.544324 -0.166532
C6    C     C_2   0.693491 0.889314 0.453290 -0.169541
C7    C     C_2   0.801331 0.377817 0.544332 -0.166394
C8    C     C_2   0.193484 0.389343 0.453285 -0.169482
C9    C     C_R   0.008714 0.657702 0.423575 -0.033608
C10   C     C_R   0.996319 0.667153 0.573409 -0.039414
C11   C     C_R   0.508700 0.157694 0.423582 -0.033591
C12   C     C_R   0.496309 0.167161 0.573415 -0.039380
C13   C     C_R   0.038436 0.873795 0.419812 -0.075707
C14   C     C_R   0.008443 0.892749 0.565042 -0.069052
C15   C     C_R   0.538445 0.373783 0.419813 -0.075439
C16   C     C_R   0.508453 0.392755 0.565042 -0.069031
C17   C     C_R   0.047024 0.984498 0.454150 -0.127722
C18   C     C_R   0.030233 0.994815 0.526204 -0.127030
C19   C     C_R   0.547042 0.484487 0.454148 -0.127461
C20   C     C_R   0.530249 0.494815 0.526201 -0.127008
C21   C     C_R   0.006746 0.776448 0.533117 0.009354
C22   C     C_R   0.016862 0.769619 0.458257 0.009179
C23   C     C_R   0.506746 0.276451 0.533121 0.009372
C24   C     C_R   0.516861 0.269614 0.458260 0.009188
C25   C     C_R   0.986429 0.556373 0.536668 0.009570
C26   C     C_R   0.006742 0.549599 0.464905 0.017391
C27   C     C_R   0.486400 0.056381 0.536679 0.009494
C28   C     C_R   0.506710 0.049593 0.464915 0.017323
C29   C     C_R   0.963375 0.448754 0.571526 -0.074307
C30   C     C_R   0.021112 0.433836 0.435557 -0.085717
C31   C     C_R   0.463344 0.948771 0.571545 -0.074462
C32   C     C_R   0.521074 0.933822 0.435575 -0.085737
C33   C     C_R   0.973471 0.335422 0.540266 -0.141585
C34   C     C_R   0.004290 0.328001 0.473036 -0.152435
C35   C     C_R   0.473448 0.835429 0.540297 -0.141586
C36   C     C_R   0.504259 0.827994 0.473064 -0.152382
C37   C     C_2   0.257861 0.936870 0.913764 -0.102815
C38   C     C_2   0.761335 0.897166 0.070955 -0.102983
C39   C     C_2   0.757859 0.436878 0.913762 -0.102808
C40   C     C_2   0.261334 0.397170 0.070956 -0.102994
C41   C     C_2   0.272263 0.987850 0.066435 -0.099419
C42   C     C_2   0.752300 0.895089 0.914651 -0.108447
C43   C     C_2   0.772274 0.487870 0.066433 -0.099405
C44   C     C_2   0.252300 0.395091 0.914652 -0.108447
C45   C     C_R   0.228611 0.878265 0.649792 0.553563
C46   C     C_R   0.771233 0.878431 0.350132 0.555517
C47   C     C_R   0.728620 0.378290 0.649806 0.553564
C48   C     C_R   0.271232 0.378433 0.350131 0.555628
C49   C     C_2   0.236441 0.059666 0.021274 -0.162508
C50   C     C_2   0.812063 0.913336 0.950459 -0.154224
C51   C     C_2   0.736416 0.559655 0.021280 -0.162487
C52   C     C_2   0.312063 0.413340 0.950460 -0.154228
C53   C     C_2   0.221035 0.023308 0.947816 -0.152396
C54   C     C_2   0.817000 0.887850 0.026249 -0.152466
C55   C     C_2   0.721021 0.523297 0.947820 -0.152394
C56   C     C_2   0.317000 0.387855 0.026249 -0.152475
C57   C     C_2   0.043846 0.655011 0.933175 -0.095469
C58   C     C_2   0.017451 0.664242 0.087161 -0.108989
C59   C     C_2   0.543846 0.155011 0.933175 -0.095465
C60   C     C_2   0.517451 0.164242 0.087161 -0.108968
C61   C     C_2   0.041093 0.565028 0.053122 -0.154840
C62   C     C_2   0.065283 0.568427 0.978710 -0.166367
C63   C     C_2   0.541093 0.065028 0.053122 -0.154831
C64   C     C_2   0.565283 0.068427 0.978710 -0.166363
C65   C     C_R   0.027350 0.656058 0.645890 0.534226
C66   C     C_R   0.973837 0.654017 0.352983 0.526460
C67   C     C_R   0.527349 0.156059 0.645891 0.534262
C68   C     C_R   0.473835 0.154015 0.352985 0.526532
C69   C     C_R   0.239485 0.462735 0.849528 0.557356
C70   C     C_R   0.775904 0.518540 0.141362 0.573349
C71   C     C_R   0.739485 0.962735 0.849528 0.557347
C72   C     C_R   0.275902 0.018535 0.141361 0.573304
C73   C     C_R   0.228714 0.876437 0.851558 0.550026
C74   C     C_R   0.773905 0.870738 0.145417 0.546301
C75   C     C_R   0.728714 0.376438 0.851557 0.550010
C76   C     C_R   0.273905 0.370740 0.145418 0.546246
C77   C     C_R   0.062189 0.647542 0.858285 0.572820
C78   C     C_R   0.973011 0.652725 0.150485 0.541547
C79   C     C_R   0.562189 0.147542 0.858285 0.572821
C80   C     C_R   0.473011 0.152725 0.150485 0.541540
C81   C     C_2   0.256092 0.937030 0.586636 -0.109861
C82   C     C_2   0.743197 0.940689 0.411960 -0.110403
C83   C     C_2   0.756187 0.437297 0.586758 -0.109767
C84   C     C_2   0.243196 0.440701 0.411956 -0.110482
C85   C     C_2   0.260949 0.966473 0.433779 -0.112442
C86   C     C_2   0.736508 0.972716 0.564976 -0.112228
C87   C     C_2   0.761273 0.468077 0.433974 -0.112277
C88   C     C_2   0.236501 0.472750 0.564972 -0.112188
C89   C     C_2   0.313679 0.917899 0.471354 -0.163128
C90   C     C_2   0.682114 0.931345 0.526379 -0.163512
C91   C     C_2   0.813821 0.418519 0.471412 -0.162601
C92   C     C_2   0.182108 0.431376 0.526374 -0.163489
Cr1   Cr    Cr6+3 0.113970 0.508630 0.747920 1.013395
Cr2   Cr    Cr6+3 0.886030 0.508630 0.252080 1.018880
Cr3   Cr    Cr6+3 0.613970 0.008630 0.747920 1.013390
Cr4   Cr    Cr6+3 0.386030 0.008630 0.252080 1.018967
Cr5   Cr    Cr6+3 0.269200 0.666740 0.749850 1.008357
Cr6   Cr    Cr6+3 0.730800 0.666740 0.250150 1.004194
Cr7   Cr    Cr6+3 0.769200 0.166740 0.749850 1.008379
Cr8   Cr    Cr6+3 0.230800 0.166740 0.250150 1.004318
Cr9   Cr    Cr6+3 0.112300 0.820070 0.749800 1.010574
Cr10  Cr    Cr6+3 0.887700 0.820070 0.250200 1.016458
Cr11  Cr    Cr6+3 0.612300 0.320070 0.749800 1.010573
Cr12  Cr    Cr6+3 0.387700 0.320070 0.250200 1.016555
H1    H     H_    0.364746 0.901105 0.446939 0.178665
H2    H     H_    0.630082 0.920121 0.550230 0.174851
H3    H     H_    0.864697 0.400609 0.446806 0.178496
H4    H     H_    0.130077 0.420142 0.550228 0.174840
H5    H     H_    0.173804 0.062098 0.923914 0.152728
H6    H     H_    0.869831 0.869650 0.046496 0.152940
H7    H     H_    0.673781 0.562064 0.923922 0.152727
H8    H     H_    0.369831 0.369656 0.046496 0.152944
H9    H     H_    0.297501 0.904268 0.049476 0.110644
H10   H     H_    0.708757 0.843901 0.938115 0.090977
H11   H     H_    0.797562 0.404324 0.049463 0.110629
H12   H     H_    0.208757 0.343902 0.938116 0.090970
H13   H     H_    0.307512 0.902548 0.934568 0.107061
H14   H     H_    0.707866 0.914429 0.052528 0.086507
H15   H     H_    0.807516 0.402574 0.934560 0.107051
H16   H     H_    0.207865 0.414432 0.052529 0.086509
H17   H     H_    0.037202 0.475748 0.077976 0.154134
H18   H     H_    0.095419 0.491165 0.959195 0.131593
H19   H     H_    0.537202 0.975748 0.077976 0.154132
H20   H     H_    0.595419 0.991165 0.959194 0.131592
H21   H     H_    0.025031 0.754752 0.065028 0.102959
H22   H     H_    0.012100 0.731792 0.950300 0.104436
H23   H     H_    0.525031 0.254752 0.065028 0.102960
H24   H     H_    0.512100 0.231792 0.950300 0.104434
H25   H     H_    0.208306 0.976491 0.456587 0.117456
H26   H     H_    0.789602 0.977763 0.542651 0.113088
H27   H     H_    0.708754 0.479068 0.456918 0.117090
H28   H     H_    0.289596 0.477805 0.542645 0.113108
H29   H     H_    0.232269 0.022623 0.570171 0.110120
H30   H     H_    0.770167 0.023085 0.428543 0.113212
H31   H     H_    0.732516 0.523132 0.570513 0.109922
H32   H     H_    0.270170 0.523095 0.428538 0.113218
H33   H     H_    0.066573 0.062092 0.424401 0.108454
H34   H     H_    0.034962 0.081730 0.552427 0.108110
H35   H     H_    0.566590 0.562080 0.424395 0.108410
H36   H     H_    0.534980 0.581734 0.552420 0.108063
H37   H     H_    0.051939 0.868652 0.363695 0.131638
H38   H     H_    0.992510 0.906523 0.619839 0.137707
H39   H     H_    0.551945 0.368633 0.363696 0.131690
H40   H     H_    0.492520 0.406538 0.619839 0.137698
H41   H     H_    0.045183 0.424815 0.383319 0.138617
H42   H     H_    0.939121 0.451943 0.623958 0.138949
H43   H     H_    0.545150 0.924789 0.383339 0.138644
H44   H     H_    0.439097 0.951971 0.623979 0.138938
H45   H     H_    0.957546 0.253676 0.568423 0.106616
H46   H     H_    0.012893 0.240736 0.448714 0.109009
H47   H     H_    0.457541 0.753686 0.568468 0.106600
H48   H     H_    0.512871 0.740719 0.448755 0.109014
H49   H     H_    0.210634 0.141266 0.040972 0.140391
H50   H     H_    0.857252 0.957898 0.925560 0.156679
H51   H     H_    0.710569 0.641222 0.040988 0.140391
H52   H     H_    0.357251 0.457902 0.925561 0.156680
O1    O     O_R   0.043230 0.549300 0.667990 -0.523244
O2    O     O_R   0.956770 0.549300 0.332010 -0.530601
O3    O     O_R   0.543230 0.049300 0.667990 -0.523220
O4    O     O_R   0.456770 0.049300 0.332010 -0.530528
O5    O     O_R   0.262920 0.788600 0.824420 -0.498536
O6    O     O_R   0.737080 0.788600 0.175580 -0.519665
O7    O     O_R   0.762920 0.288600 0.824420 -0.498536
O8    O     O_R   0.237080 0.288600 0.175580 -0.519682
O9    O     O_R   0.167530 0.905110 0.830340 -0.520373
O10   O     O_R   0.832470 0.905110 0.169660 -0.506300
O11   O     O_R   0.667530 0.405110 0.830340 -0.520393
O12   O     O_R   0.332470 0.405110 0.169660 -0.506339
O13   O     O_R   0.054010 0.748440 0.822860 -0.497586
O14   O     O_R   0.945990 0.748440 0.177140 -0.505213
O15   O     O_R   0.554010 0.248440 0.822860 -0.497590
O16   O     O_R   0.445990 0.248440 0.177140 -0.505241
O17   O     O_3   0.165160 0.665150 0.749190 -0.278874
O18   O     O_3   0.834840 0.665150 0.250810 -0.280423
O19   O     O_3   0.665160 0.165150 0.749190 -0.278864
O20   O     O_3   0.334840 0.165150 0.250810 -0.280049
O21   O     O_R   0.178620 0.457600 0.674100 -0.488975
O22   O     O_R   0.821380 0.457600 0.325900 -0.482705
O23   O     O_R   0.678620 0.957600 0.674100 -0.488990
O24   O     O_R   0.321380 0.957600 0.325900 -0.482698
O25   O     O_R   0.284680 0.542100 0.669460 -0.519546
O26   O     O_R   0.715320 0.542100 0.330540 -0.519278
O27   O     O_R   0.784680 0.042100 0.669460 -0.519539
O28   O     O_R   0.215320 0.042100 0.330540 -0.519371
O29   O     O_R   0.262860 0.790390 0.676650 -0.514420
O30   O     O_R   0.737140 0.790390 0.323350 -0.513478
O31   O     O_R   0.762860 0.290390 0.676650 -0.514403
O32   O     O_R   0.237140 0.290390 0.323350 -0.513176
O33   O     O_R   0.167460 0.907030 0.670940 -0.510531
O34   O     O_R   0.832540 0.907030 0.329060 -0.503579
O35   O     O_R   0.667460 0.407030 0.670940 -0.510517
O36   O     O_R   0.332540 0.407030 0.329060 -0.503603
O37   O     O_R   0.053950 0.750220 0.675100 -0.501541
O38   O     O_R   0.946050 0.750220 0.324900 -0.495374
O39   O     O_R   0.553950 0.250220 0.675100 -0.501534
O40   O     O_R   0.446050 0.250220 0.324900 -0.495352
O41   O     O_R   0.043300 0.547370 0.827390 -0.504193
O42   O     O_R   0.956700 0.547370 0.172610 -0.520076
O43   O     O_R   0.543300 0.047370 0.827390 -0.504197
O44   O     O_R   0.456700 0.047370 0.172610 -0.520079
O45   O     O_R   0.178690 0.455820 0.821860 -0.515392
O46   O     O_R   0.821310 0.455820 0.178140 -0.487248
O47   O     O_R   0.678690 0.955820 0.821860 -0.515397
O48   O     O_R   0.321310 0.955820 0.178140 -0.487304
O49   O     O_R   0.284750 0.540170 0.828860 -0.506235
O50   O     O_R   0.715250 0.540170 0.171140 -0.498689
O51   O     O_R   0.784750 0.040170 0.828860 -0.506232
O52   O     O_R   0.215250 0.040170 0.171140 -0.498731
H53   H     H_    0.325925 0.792940 0.561271 0.149571
H54   H     H_    0.664605 0.809414 0.435899 0.144369
H55   H     H_    0.825799 0.293050 0.561126 0.149364
H56   H     H_    0.164592 0.309451 0.435893 0.144467

loop_
_geom_bond_atom_site_label_1
_geom_bond_atom_site_label_2
_ccdc_geom_bond_type
C70   O46   A    
C7    C83   D    
C14   H38   S    
Cr10  O14   S    
C6    C82   D    
C87   C91   D    
Cr3   O23   S    
C14   C18   A    
Cr9   O17   S    
C35   C36   A    
C74   O10   A    
C43   C51   D    
Cr7   O31   S    
Cr8   O52   S    
C57   C62   D    
Cr12  O20   S    
C32   H43   S    
Cr11  O11   S    
C75   O11   A    
C12   C23   A    
C51   H51   S    
C59   C64   D    
C50   C54   S    
Cr11  O39   S    
C60   C63   D    
Cr3   O3    S    
C32   C36   A    
C14   C21   A    
C75   O7    A    
C16   H40   S    
C46   O34   A    
C48   O32   A    
Cr9   O33   S    
C68   O40   A    
C2    O26   A    
Cr6   O18   S    
C49   C53   S    
C9    C22   A    
Cr5   O29   S    
Cr3   O47   S    
C80   O44   A    
C29   C33   A    
C11   C24   A    
C78   O14   A    
C54   H6    S    
C61   H17   S    
Cr2   O22   S    
C79   O15   A    
C18   H34   S    
C3    O23   A    
C9    C66   S    
Cr3   O19   S    
C43   H11   S    
C46   C82   S    
C1    O21   A    
C92   H4    S    
C39   C55   D    
C88   C92   D    
C40   C56   D    
C71   O47   A    
Cr8   O20   S    
C73   O5    A    
C23   C24   A    
C29   H42   S    
Cr9   O13   S    
C8    C92   S    
C39   C75   S    
Cr1   O45   S    
Cr7   O27   S    
C72   O48   A    
C37   C53   D    
C44   C52   D    
C1    C88   S    
C71   O51   A    
Cr10  O10   S    
C21   C22   A    
C3    C86   S    
Cr11  O15   S    
Cr8   O32   S    
C61   C62   S    
C35   H47   S    
C4    O24   A    
C67   O39   A    
Cr10  O38   S    
C41   C49   D    
Cr6   O6    S    
Cr9   O37   S    
C9    C26   A    
Cr4   O48   S    
C65   O37   A    
C10   C21   A    
C25   C29   A    
C69   O45   A    
C12   C67   S    
C45   C81   S    
C79   O43   A    
C30   C34   A    
C12   C27   A    
C27   C31   A    
C57   C77   S    
C28   C32   A    
Cr5   O17   S    
C90   H2    S    
C72   O52   A    
C86   C90   D    
C59   C79   S    
C57   H22   S    
C74   O6    A    
Cr1   O21   S    
C86   H26   S    
C4    C85   S    
C51   C55   S    
C59   H24   S    
C64   H20   S    
Cr4   O24   S    
C48   C84   S    
C53   H5    S    
Cr7   O51   S    
Cr2   O42   S    
C88   H28   S    
C81   H29   S    
C82   H30   S    
C15   C19   A    
C42   H10   S    
C15   H39   S    
C85   H25   S    
Cr12  O12   S    
C5    C81   D    
C7    H55   S    
C38   C54   D    
C16   C20   A    
C7    C91   S    
Cr11  O19   S    
C17   C18   A    
Cr12  O40   S    
Cr7   O19   S    
C2    C87   S    
Cr8   O8    S    
C85   C89   D    
C46   O30   A    
Cr1   O1    S    
C66   O2    A    
C87   H27   S    
C42   C50   D    
C41   C72   S    
Cr2   O46   S    
C31   H44   S    
C50   H50   S    
C10   C25   A    
C65   O1    A    
C15   C24   A    
C40   H16   S    
C73   O9    A    
Cr2   O18   S    
C26   C30   A    
C16   C23   A    
Cr5   O5    S    
C6    C90   S    
Cr7   O7    S    
C76   O8    A    
Cr11  O35   S    
C80   O16   A    
C47   O31   A    
C68   O4    A    
Cr12  O16   S    
C62   H18   S    
C11   C68   S    
C30   H41   S    
C38   C74   S    
C10   C65   S    
C49   H49   S    
Cr4   O44   S    
C77   O13   A    
C37   C73   S    
C60   C80   S    
C1    O25   A    
Cr4   O20   S    
C55   H7    S    
C8    C84   D    
C83   H31   S    
C13   H37   S    
C60   H23   S    
C36   H48   S    
C48   O36   A    
C41   H9    S    
C47   C83   S    
Cr2   O2    S    
C63   H19   S    
Cr5   O25   S    
Cr10  O18   S    
C6    H54   S    
C70   O50   A    
Cr6   O26   S    
C43   C70   S    
C5    H53   S    
C69   O49   A    
C13   C17   A    
C20   H36   S    
C19   C20   A    
C17   H33   S    
Cr4   O4    S    
C25   C26   A    
Cr6   O30   S    
C8    H56   S    
Cr9   O9    S    
C45   O29   A    
C3    O27   A    
C11   C28   A    
C58   C61   D    
C39   H15   S    
Cr1   O41   S    
Cr1   O17   S    
C42   C71   S    
Cr10  O34   S    
C33   H45   S    
C33   C34   A    
C13   C22   A    
C76   O12   A    
C78   O42   A    
C31   C35   A    
C34   H46   S    
C47   O35   A    
C52   H52   S    
Cr8   O28   S    
C4    O28   A    
C58   C78   S    
C63   C64   S    
C38   H14   S    
C40   C76   S    
C37   H13   S    
C44   H12   S    
C58   H21   S    
Cr3   O43   S    
C89   H1    S    
C27   C28   A    
C45   O33   A    
C44   C69   S    
Cr6   O50   S    
C67   O3    A    
C2    O22   A    
Cr5   O49   S    
C66   O38   A    
C77   O41   A    
C56   H8    S    
C19   H35   S    
C5    C89   S    
C52   C56   S    
C84   H32   S    
C91   H3    S    
Cr12  O36   S    
