data_mof_unit_52378.cif
_audit_creation_date              2012-12-10T22:11:05-0500
_audit_creation_method            fapswitch 2.2
_symmetry_space_group_name_H-M    P1
_symmetry_Int_Tables_number       1
_space_group_crystal_system       triclinic
_cell_length_a                    12.130671
_cell_length_b                    12.276216
_cell_length_c                    23.088037
_cell_angle_alpha                 90.706423
_cell_angle_beta                  90.374357
_cell_angle_gamma                 91.832717
_cell_volume                      3436.13876915

loop_
_atom_site_label
_atom_site_type_symbol
_atom_type_description
_atom_site_fract_x
_atom_site_fract_y
_atom_site_fract_z
_atom_type_partial_charge
C1    C     C_R   0.657964 0.999230 0.578975 0.861750
C2    C     C_R   0.342041 0.000768 0.421022 0.861765
C3    C     C_R   0.895916 0.810213 0.127695 0.466245
C4    C     C_R   0.104031 0.189683 0.872365 0.466229
C5    C     C_R   0.093913 0.863512 0.186423 -0.186176
C6    C     C_R   0.906123 0.136647 0.813492 -0.186254
C7    C     C_R   0.091355 0.782661 0.144592 -0.256882
C8    C     C_R   0.908684 0.217500 0.855322 -0.256904
C9    C     C_R   0.899344 0.157667 0.195185 -0.285356
C10   C     C_R   0.100616 0.842172 0.804733 -0.285628
C11   C     C_R   0.897263 0.238151 0.153465 0.472658
C12   C     C_R   0.102690 0.761656 0.846439 0.472726
C13   C     C_R   0.119626 0.906089 0.315991 -0.205938
C14   C     C_R   0.880525 0.093873 0.683924 -0.205861
C15   C     C_R   0.197936 0.902495 0.359650 -0.019040
C16   C     C_R   0.802223 0.097458 0.640261 -0.019052
C17   C     C_R   0.882502 0.096298 0.321651 -0.206663
C18   C     C_R   0.117408 0.903742 0.678296 -0.206637
C19   C     C_R   0.804191 0.099661 0.364712 -0.017715
C20   C     C_R   0.195714 0.900383 0.635232 -0.017750
C21   C     C_3   0.997897 0.006071 0.247190 -0.045308
C22   C     C_3   0.002111 0.993928 0.752809 -0.045306
C23   C     C_R   0.655718 0.002643 0.421022 0.873611
C24   C     C_R   0.344283 0.997358 0.578977 0.873613
C25   C     C_R   0.096923 0.004094 0.288155 0.103915
C26   C     C_R   0.903087 0.995910 0.711839 0.103902
C27   C     C_R   0.256391 0.999379 0.376410 -0.078459
C28   C     C_R   0.743617 0.000614 0.623584 -0.078417
C29   C     C_R   0.900353 0.000529 0.289073 0.053113
C30   C     C_R   0.099663 0.999470 0.710930 0.053074
C31   C     C_R   0.740562 0.004827 0.376660 -0.101777
C32   C     C_R   0.259447 0.995176 0.623341 -0.101743
C33   C     C_R   0.998248 0.107079 0.209485 0.063982
C34   C     C_R   0.001752 0.892916 0.790514 0.064078
C35   C     C_R   0.996239 0.270167 0.125939 -0.134318
C36   C     C_R   0.003753 0.729804 0.874048 -0.134103
C37   C     C_R   0.996730 0.915366 0.201975 0.096341
C38   C     C_R   0.003268 0.084645 0.798019 0.096324
C39   C     C_R   0.992560 0.753668 0.115864 -0.120819
C40   C     C_R   0.007436 0.246353 0.884126 -0.120772
C41   C     C_R   0.993176 0.663828 0.074352 0.899983
C42   C     C_R   0.006823 0.336175 0.925647 0.900038
C43   C     C_R   0.998101 0.352834 0.081378 0.899784
C44   C     C_R   0.001898 0.647152 0.918616 0.899922
C45   C     C_R   0.152481 0.100603 0.306968 -0.184780
C46   C     C_R   0.847376 0.899428 0.693106 -0.184901
C47   C     C_R   0.232478 0.097773 0.349715 -0.201122
C48   C     C_R   0.767378 0.902259 0.650359 -0.201150
C49   C     C_R   0.840818 0.903260 0.304501 0.027866
C50   C     C_R   0.159306 0.096712 0.695557 0.027763
C51   C     C_R   0.759785 0.907963 0.346422 -0.242989
C52   C     C_R   0.240337 0.092002 0.653635 -0.243002
C53   C     C_R   0.094950 0.136974 0.179610 -0.169589
C54   C     C_R   0.905093 0.863146 0.820459 -0.169568
C55   C     C_R   0.094450 0.218963 0.139329 -0.258830
C56   C     C_R   0.905587 0.781156 0.860740 -0.258991
C57   C     C_R   0.900164 0.893676 0.169101 -0.250614
C58   C     C_R   0.099779 0.106221 0.830956 -0.250476
H1    H     H_    0.274552 0.173598 0.362382 0.171431
H2    H     H_    0.725181 0.826461 0.637755 0.171396
H3    H     H_    0.170993 0.095194 0.186866 0.150577
H4    H     H_    0.829093 0.905030 0.813257 0.150593
H5    H     H_    0.826904 0.939528 0.177016 0.129183
H6    H     H_    0.172995 0.060270 0.823093 0.129203
H7    H     H_    0.172849 0.885383 0.206032 0.149486
H8    H     H_    0.827208 0.114888 0.793831 0.149530
H9    H     H_    0.821950 0.132685 0.214654 0.151339
H10   H     H_    0.177987 0.867038 0.785203 0.151272
H11   H     H_    0.074673 0.831661 0.304113 0.159961
H12   H     H_    0.925597 0.168268 0.695742 0.159918
H13   H     H_    0.932229 0.169596 0.313978 0.153677
H14   H     H_    0.067599 0.830480 0.685929 0.153739
H15   H     H_    0.713143 0.833840 0.356653 0.175480
H16   H     H_    0.287064 0.166097 0.643446 0.175450
H17   H     H_    0.170808 0.239908 0.117446 0.186067
H18   H     H_    0.829266 0.760326 0.882686 0.186053
H19   H     H_    0.167443 0.742359 0.135141 0.181091
H20   H     H_    0.832633 0.257913 0.864715 0.181066
H21   H     H_    0.132474 0.179435 0.290196 0.150837
H22   H     H_    0.867266 0.820608 0.709935 0.150896
O1    O     O_R   0.621380 0.090460 0.561410 -0.615994
O2    O     O_R   0.378620 0.909540 0.438590 -0.615982
O3    O     O_R   0.617150 0.909540 0.438590 -0.625920
O4    O     O_R   0.382850 0.090460 0.561410 -0.625916
O5    O     O_R   0.619720 0.093230 0.440890 -0.615077
O6    O     O_R   0.380280 0.906770 0.559110 -0.615090
O7    O     O_R   0.618800 0.906770 0.559110 -0.625399
O8    O     O_R   0.381200 0.093230 0.440890 -0.625404
O9    O     O_R   0.087590 0.627480 0.058790 -0.647915
O10   O     O_R   0.912410 0.372520 0.941210 -0.647938
O11   O     O_R   0.905660 0.383870 0.059980 -0.584806
O12   O     O_R   0.094340 0.616130 0.940020 -0.584813
O13   O     O_R   0.092570 0.390420 0.063230 -0.633914
O14   O     O_R   0.907430 0.609580 0.936770 -0.633963
O15   O     O_R   0.900680 0.620930 0.055550 -0.577353
O16   O     O_R   0.099320 0.379070 0.944450 -0.577400
Zn1   Zn    Zn3+2 0.501730 0.123520 0.501540 0.991705
Zn2   Zn    Zn3+2 0.498270 0.876480 0.498460 0.991708
Zn3   Zn    Zn3+2 0.125690 0.504390 0.002180 0.960640
Zn4   Zn    Zn3+2 0.874310 0.495610 0.997820 0.960687
C59   C     C_1   0.863854 0.795274 0.283042 0.108440
N1    N     N_1   0.881759 0.708308 0.266394 -0.213884
C60   C     C_1   0.136367 0.204691 0.717059 0.108454
N2    N     N_1   0.118537 0.291655 0.733739 -0.213788
O17   O     O_3   0.800319 0.789727 0.095791 -0.605999
C61   C     C_3   0.720270 0.738957 0.131528 0.133336
H23   H     H_    0.689704 0.797587 0.164387 0.126083
H24   H     H_    0.753996 0.667066 0.153907 0.159840
C62   C     C_3   0.622931 0.699113 0.094256 -0.807454
H25   H     H_    0.650551 0.639087 0.061455 0.257250
H26   H     H_    0.559167 0.659361 0.121881 0.199965
H27   H     H_    0.586181 0.768877 0.071785 0.247306
O18   O     O_3   0.199560 0.210039 0.904344 -0.605998
C63   C     C_3   0.279778 0.260710 0.868671 0.133361
H28   H     H_    0.246224 0.332668 0.846280 0.159882
H29   H     H_    0.310337 0.202051 0.835824 0.126026
C64   C     C_3   0.377080 0.300387 0.906016 -0.807592
H30   H     H_    0.413670 0.230549 0.928496 0.247331
H31   H     H_    0.440969 0.340074 0.878443 0.199907
H32   H     H_    0.349468 0.360428 0.938811 0.257265
O19   O     O_3   0.799594 0.289370 0.142014 -0.596155
C65   C     C_3   0.729723 0.218448 0.108636 0.130924
H33   H     H_    0.698253 0.149239 0.135182 0.125802
H34   H     H_    0.773248 0.185909 0.069996 0.140119
C66   C     C_3   0.631453 0.281016 0.087299 -0.801124
H35   H     H_    0.660129 0.350132 0.060041 0.253612
H36   H     H_    0.575736 0.226140 0.061051 0.197040
H37   H     H_    0.584940 0.313193 0.124735 0.251434
O20   O     O_3   0.200270 0.710191 0.857780 -0.596160
C67   C     C_3   0.270576 0.781026 0.890959 0.130814
H38   H     H_    0.227349 0.814091 0.929569 0.139993
H39   H     H_    0.302314 0.849871 0.864236 0.125822
C68   C     C_3   0.368574 0.718124 0.912355 -0.801106
H40   H     H_    0.414739 0.685325 0.874952 0.251500
H41   H     H_    0.424694 0.772951 0.938397 0.197012
H42   H     H_    0.339640 0.649420 0.939830 0.253601
C69   C     C_1   0.211959 0.798670 0.387259 0.205573
N3    N     N_1   0.222798 0.715445 0.409265 -0.180776
C70   C     C_1   0.788374 0.201215 0.612551 0.205463
N4    N     N_1   0.777673 0.284383 0.590464 -0.180724
C71   C     C_1   0.795571 0.200731 0.396989 0.209350
N5    N     N_1   0.789020 0.281716 0.422756 -0.178461
C72   C     C_1   0.204217 0.799373 0.602889 0.209286
N6    N     N_1   0.210675 0.718437 0.577068 -0.178462

loop_
_geom_bond_atom_site_label_1
_geom_bond_atom_site_label_2
_ccdc_geom_bond_type
C16   C28   A    
C41   O9    A    
C1    O7    A    
C59   N1    T    
C56   H18   S    
C5    C37   A    
C17   C29   A    
O17   C61   S    
C19   C31   A    
C24   C32   S    
C63   H28   S    
C39   C41   S    
C29   C49   A    
C3    O17   S    
C23   O3    A    
O9    Zn3   S    
C2    O2    A    
C42   O16   A    
O4    Zn1   S    
O20   C67   S    
C52   H16   S    
C62   H26   S    
C49   C59   S    
C21   C33   S    
C61   H23   S    
C1    O1    A    
C72   N6    T    
C22   C38   S    
O16   Zn3   S    
C45   C47   A    
C32   C52   A    
O1    Zn1   S    
C43   O13   A    
C18   H14   S    
C38   C58   A    
C53   H3    S    
C4    C40   A    
C49   C51   A    
O3    Zn2   S    
C1    C28   S    
C50   C52   A    
C6    C38   A    
C2    O8    A    
C2    C27   S    
C18   C30   A    
O11   Zn4   S    
C12   C36   A    
C35   C43   S    
O13   Zn3   S    
O8    Zn1   S    
C44   O12   A    
C36   C44   S    
C7    H19   S    
O7    Zn2   S    
C55   H17   S    
C40   C42   S    
C30   C50   A    
C3    C39   A    
C50   C60   S    
C19   C71   S    
C8    H20   S    
C14   H12   S    
C20   C72   S    
C13   C25   A    
C11   O19   S    
O10   Zn4   S    
C48   H2    S    
C46   C48   A    
C53   C55   A    
C33   C53   A    
C22   C34   S    
C54   C56   A    
C12   O20   S    
O2    Zn2   S    
C35   C55   A    
C10   C34   A    
C4    O18   S    
C44   O14   A    
C5    H7    S    
C62   H25   S    
C64   H32   S    
C5    C7    A    
O15   Zn4   S    
C6    C8    A    
C54   H4    S    
C58   H6    S    
C21   C29   S    
C43   O11   A    
C42   O10   A    
C23   C31   S    
C67   H39   S    
C9    H9    S    
C36   C56   A    
C66   H37   S    
C68   H40   S    
C15   C27   A    
O14   Zn4   S    
C45   H21   S    
C14   C26   A    
C9    C11   A    
O19   C65   S    
C10   C12   A    
C9    C33   A    
C68   H42   S    
C3    C57   A    
C17   H13   S    
C13   C15   A    
C23   O5    A    
C66   H35   S    
C14   C16   A    
C62   H27   S    
C67   C68   S    
C65   H34   S    
C25   C45   A    
C66   H36   S    
O18   C63   S    
C20   C32   A    
C27   C47   A    
C21   C25   S    
C28   C48   A    
C22   C30   S    
C51   H15   S    
C57   H5    S    
C31   C51   A    
C63   H29   S    
C70   N4    T    
C34   C54   A    
C10   H10   S    
C69   N3    T    
C13   H11   S    
C65   C66   S    
C64   H31   S    
C67   H38   S    
C24   O4    A    
C64   H30   S    
C46   H22   S    
C41   O15   A    
C61   H24   S    
C11   C35   A    
C17   C19   A    
C18   C20   A    
O6    Zn2   S    
C63   C64   S    
O5    Zn1   S    
C26   C46   A    
C47   H1    S    
C16   C70   S    
C6    H8    S    
C21   C37   S    
C22   C26   S    
C4    C58   A    
C60   N2    T    
C68   H41   S    
C7    C39   A    
C8    C40   A    
C65   H33   S    
C71   N5    T    
C24   O6    A    
C37   C57   A    
O12   Zn3   S    
C15   C69   S    
C61   C62   S    
