data_mof_unit_53839.cif
_audit_creation_date              2012-12-10T18:42:56-0500
_audit_creation_method            fapswitch 2.2
_symmetry_space_group_name_H-M    P1
_symmetry_Int_Tables_number       1
_space_group_crystal_system       triclinic
_cell_length_a                    18.158396
_cell_length_b                    18.138086
_cell_length_c                    18.079523
_cell_angle_alpha                 119.964456
_cell_angle_beta                  89.951709
_cell_angle_gamma                 59.899536
_cell_volume                      4204.64617512

loop_
_atom_site_label
_atom_site_type_symbol
_atom_type_description
_atom_site_fract_x
_atom_site_fract_y
_atom_site_fract_z
_atom_type_partial_charge
C1    C     C_R   0.891592 0.217000 0.608326 0.857309
C2    C     C_3   0.550759 0.897293 0.949133 0.013916
C3    C     C_3   0.449595 0.034522 0.076872 0.139870
C4    C     C_3   0.550405 0.965478 0.923128 0.139870
C5    C     C_3   0.984618 0.430121 0.446855 0.149310
C6    C     C_3   0.015382 0.569879 0.553145 0.149314
C7    C     C_3   0.077608 0.406841 0.448954 0.075746
C8    C     C_3   0.922392 0.593159 0.551046 0.075745
C9    C     C_3   0.050849 0.501594 0.449023 -0.021486
C10   C     C_3   0.949151 0.498406 0.550977 -0.021496
C11   C     C_3   0.956271 0.525599 0.446157 -0.299475
C12   C     C_R   0.108410 0.783000 0.391674 0.857321
C13   C     C_3   0.043729 0.474401 0.553844 -0.299479
C14   C     C_3   0.982150 0.032218 0.446737 0.046567
C15   C     C_3   0.017855 0.967782 0.553260 0.046610
C16   C     C_R   0.608392 0.782995 0.891496 0.811349
C17   C     C_R   0.391608 0.217005 0.108504 0.811353
C18   C     C_3   0.955051 0.964729 0.448214 -0.392574
C19   C     C_3   0.044956 0.035271 0.551785 -0.392540
C20   C     C_3   0.050891 0.896958 0.449050 -0.130421
C21   C     C_3   0.949114 0.103044 0.550949 -0.130461
C22   C     C_3   0.076765 0.964564 0.446563 0.564006
C23   C     C_3   0.516287 0.406621 0.449043 0.108783
C24   C     C_3   0.923241 0.035439 0.553435 0.563988
C25   C     C_3   0.984018 0.431030 0.983901 0.659687
C26   C     C_3   0.015982 0.568970 0.016099 0.659686
C27   C     C_3   0.956409 0.526591 0.079318 -0.336191
C28   C     C_3   0.043591 0.473409 0.920682 -0.336191
C29   C     C_3   0.051154 0.500554 0.051196 -0.079831
C30   C     C_3   0.948846 0.499446 0.948803 -0.079832
C31   C     C_3   0.079106 0.403745 0.956120 -0.333224
C32   C     C_3   0.920894 0.596255 0.043880 -0.333225
C33   C     C_3   0.587848 0.430940 0.984810 -0.281137
C34   C     C_3   0.483712 0.593380 0.550957 0.108775
C35   C     C_3   0.412152 0.569060 0.015189 -0.281135
C36   C     C_3   0.518748 0.405762 0.958071 0.623546
C37   C     C_3   0.481252 0.594238 0.041928 0.623548
C38   C     C_3   0.448335 0.500750 0.051436 -0.090515
C39   C     C_3   0.551664 0.499249 0.948564 -0.090515
C40   C     C_R   0.608502 0.499975 0.891659 0.853481
C41   C     C_R   0.391498 0.500025 0.108341 0.853486
C42   C     C_3   0.516327 0.527823 0.079657 -0.337318
C43   C     C_3   0.483673 0.472177 0.920343 -0.337318
C44   C     C_R   0.891638 0.499518 0.608340 0.805874
C45   C     C_3   0.446341 0.965958 0.983866 -0.209677
C46   C     C_R   0.108362 0.500482 0.391660 0.805887
C47   C     C_R   0.891620 0.499735 0.891546 0.819523
C48   C     C_R   0.108380 0.500265 0.108454 0.819522
C49   C     C_R   0.608767 0.499845 0.608358 0.820223
C50   C     C_R   0.391233 0.500155 0.391642 0.820227
C51   C     C_3   0.585561 0.430455 0.446932 0.105925
C52   C     C_3   0.414438 0.569546 0.553069 0.105929
C53   C     C_3   0.517780 0.525692 0.446091 -0.291149
C54   C     C_3   0.482219 0.474310 0.553909 -0.291154
C55   C     C_3   0.447635 0.501174 0.448976 -0.022264
C56   C     C_3   0.553659 0.034042 0.016134 -0.209675
C57   C     C_3   0.552364 0.498827 0.551024 -0.022270
C58   C     C_3   0.182227 0.989504 0.415269 -0.362333
C59   C     C_3   0.817687 0.010579 0.584658 -0.362428
C60   C     C_3   0.004730 0.307424 0.004438 -0.295712
C61   C     C_3   0.995270 0.692577 0.995562 -0.295709
C62   C     C_3   0.602760 0.234634 0.833770 -0.311076
C63   C     C_3   0.397242 0.765365 0.166231 -0.311090
C64   C     C_3   0.446544 0.034925 0.956650 -0.207863
C65   C     C_3   0.553456 0.965075 0.043350 -0.207868
C66   C     C_3   0.449241 0.102706 0.050867 0.013917
H1    H     H_    0.532115 0.546679 0.402509 0.150626
H2    H     H_    0.339849 0.625928 0.029165 0.177313
H3    H     H_    0.527745 0.551492 0.145744 0.158834
H4    H     H_    0.472255 0.448508 0.854256 0.158831
H5    H     H_    0.403747 0.064538 0.921105 0.142536
H6    H     H_    0.596253 0.935462 0.078895 0.142535
H7    H     H_    0.402881 0.937534 0.971953 0.157638
H8    H     H_    0.597119 0.062466 0.028047 0.157639
H9    H     H_    0.920787 0.546493 0.402621 0.146802
H10   H     H_    0.079213 0.453506 0.597379 0.146801
H11   H     H_    0.997185 0.002637 0.321614 0.206371
H12   H     H_    0.467885 0.453321 0.597491 0.150621
H13   H     H_    0.989449 0.110606 0.399893 0.190763
H14   H     H_    0.002868 0.997360 0.678378 0.206371
H15   H     H_    0.010447 0.889486 0.600150 0.190798
H16   H     H_    0.207026 0.995017 0.472754 0.172734
H17   H     H_    0.125621 0.068311 0.435414 0.148703
H18   H     H_    0.238487 0.958996 0.359882 0.186053
H19   H     H_    0.874277 0.931665 0.564305 0.148719
H20   H     H_    0.792751 0.005332 0.527294 0.172810
H21   H     H_    0.761493 0.041004 0.640060 0.186058
H22   H     H_    0.978727 0.363180 0.079510 0.160321
H23   H     H_    0.920400 0.934587 0.404587 0.166988
H24   H     H_    0.079567 0.262233 0.978271 0.159763
H25   H     H_    0.987978 0.251088 0.987571 0.190832
H26   H     H_    0.920433 0.737767 0.021729 0.159763
H27   H     H_    0.021272 0.636820 0.920490 0.160320
H28   H     H_    0.012022 0.748911 0.012429 0.190832
H29   H     H_    0.667837 0.223398 0.840560 0.178594
H30   H     H_    0.583622 0.257516 0.786412 0.160935
H31   H     H_    0.613401 0.158233 0.803425 0.183164
H32   H     H_    0.416389 0.742487 0.213590 0.160952
H33   H     H_    0.332166 0.776595 0.159446 0.178584
H34   H     H_    0.079607 0.065412 0.595415 0.166974
H35   H     H_    0.386595 0.841769 0.196571 0.183160
H36   H     H_    0.680654 0.317809 0.321692 0.176671
H37   H     H_    0.709461 0.391199 0.397704 0.204340
H38   H     H_    0.319342 0.682218 0.678307 0.176666
H39   H     H_    0.290544 0.608802 0.602315 0.204329
H40   H     H_    0.586055 0.254744 0.404147 0.195079
H41   H     H_    0.559432 0.275379 0.324325 0.194623
H42   H     H_    0.413947 0.745256 0.595852 0.195086
H43   H     H_    0.440568 0.724622 0.675675 0.194616
H44   H     H_    0.406737 0.010951 0.161521 0.184132
H45   H     H_    0.922415 0.547283 0.144416 0.154660
H46   H     H_    0.325972 0.116001 0.166576 0.199867
H47   H     H_    0.593270 0.989050 0.838483 0.184136
H48   H     H_    0.674029 0.883989 0.833419 0.199870
H49   H     H_    0.163031 0.256387 0.407200 0.168744
H50   H     H_    0.214449 0.311673 0.407359 0.184245
H51   H     H_    0.836950 0.743596 0.592766 0.168756
H52   H     H_    0.785548 0.688317 0.592671 0.184244
H53   H     H_    0.002368 0.317688 0.321594 0.188972
H54   H     H_    0.000130 0.293566 0.399555 0.184153
H55   H     H_    0.997640 0.682304 0.678406 0.188975
H56   H     H_    0.077585 0.452717 0.855584 0.154660
H57   H     H_    0.999861 0.706441 0.600452 0.184178
H58   H     H_    0.144032 0.325395 0.921890 0.156547
H59   H     H_    0.855968 0.674605 0.078110 0.156546
H60   H     H_    0.660151 0.374071 0.970834 0.177314
N1    N     N_3   0.962188 0.068605 0.388653 -0.410529
N2    N     N_3   0.837428 0.696076 0.609663 -0.457322
N3    N     N_3   0.968693 0.352005 0.388577 -0.433855
N4    N     N_3   0.031306 0.647995 0.611423 -0.433845
N5    N     N_3   0.037802 0.931388 0.611338 -0.410483
N6    N     N_3   0.679824 0.351933 0.388677 -0.430760
N7    N     N_3   0.320175 0.648069 0.611321 -0.430744
N8    N     N_3   0.534137 0.303783 0.391614 -0.462108
N9    N     N_3   0.465864 0.696217 0.608386 -0.462106
N10   N     N_3   0.393242 0.075067 0.163214 -0.464795
N11   N     N_3   0.606758 0.924933 0.836786 -0.464798
N12   N     N_3   0.162572 0.303924 0.390336 -0.457321
O1    O     O_3   0.750010 0.499980 0.749990 -0.499581
O2    O     O_R   0.305750 0.265450 0.132730 -0.646518
O3    O     O_R   0.867280 0.265410 0.571220 -0.647722
O4    O     O_R   0.132720 0.734590 0.428780 -0.647684
O5    O     O_R   0.571230 0.734580 0.867270 -0.640352
O6    O     O_R   0.428770 0.265420 0.132730 -0.640354
O7    O     O_R   0.694200 0.438470 0.867270 -0.642228
O8    O     O_R   0.305800 0.561530 0.132730 -0.642230
O9    O     O_R   0.867340 0.561470 0.694210 -0.635633
O10   O     O_R   0.132660 0.438530 0.305790 -0.635633
O11   O     O_R   0.867310 0.438430 0.867270 -0.598567
O12   O     O_3   0.249990 0.500020 0.250010 -0.499588
O13   O     O_R   0.132690 0.561570 0.132730 -0.598566
O14   O     O_R   0.694200 0.438520 0.571220 -0.629412
O15   O     O_R   0.305800 0.561480 0.428780 -0.629398
O16   O     O_R   0.867340 0.561440 0.867270 -0.661287
O17   O     O_R   0.132660 0.438560 0.132730 -0.661289
O18   O     O_R   0.571190 0.561530 0.694210 -0.653157
O19   O     O_R   0.428810 0.438470 0.305790 -0.653161
O20   O     O_3   0.157753 0.919399 0.383355 -0.601609
O21   O     O_3   0.842267 0.080592 0.616657 -0.601612
O22   O     O_3   0.963468 0.358927 0.963219 -0.587580
O23   O     O_R   0.571190 0.561490 0.867270 -0.624634
O24   O     O_3   0.036531 0.641073 0.036781 -0.587580
O25   O     O_3   0.533775 0.307766 0.918773 -0.608328
O26   O     O_3   0.466224 0.692234 0.081226 -0.608326
O27   O     O_R   0.428810 0.438510 0.132730 -0.624634
O28   O     O_R   0.867310 0.438490 0.571220 -0.645276
O29   O     O_R   0.132690 0.561510 0.428780 -0.645268
O30   O     O_R   0.867280 0.265380 0.694210 -0.619087
O31   O     O_R   0.132720 0.734620 0.305790 -0.619101
O32   O     O_R   0.694250 0.734550 0.867270 -0.646521
Zn1   Zn    Zn3+2 0.618190 0.587870 0.793920 0.982421
Zn2   Zn    Zn3+2 0.381810 0.412130 0.206080 0.982422
Zn3   Zn    Zn3+2 0.793940 0.412090 0.793920 1.008858
Zn4   Zn    Zn3+2 0.206060 0.587910 0.206080 1.008855
Zn5   Zn    Zn3+2 0.793970 0.587840 0.793920 0.954986
Zn6   Zn    Zn3+2 0.206030 0.412160 0.206080 0.954988
Zn7   Zn    Zn3+2 0.793940 0.412130 0.618200 0.970103
Zn8   Zn    Zn3+2 0.206060 0.587870 0.381800 0.970138

loop_
_geom_bond_atom_site_label_1
_geom_bond_atom_site_label_2
_ccdc_geom_bond_type
O17   Zn6   S    
C25   C31   S    
O12   Zn6   S    
C63   H32   S    
C1    C21   S    
C62   H30   S    
H43   N9    S    
C14   C18   S    
C49   O18   A    
O1    Zn5   S    
H55   N4    S    
C6    N4    S    
C2    C65   S    
C44   O9    A    
C6    C9    S    
C60   H22   S    
C24   O21   S    
C26   C32   S    
C17   C66   S    
O10   Zn6   S    
O16   Zn5   S    
C17   O6    A    
O3    Zn7   S    
C33   C42   S    
C35   H2    S    
C14   C21   S    
C35   C37   S    
H36   N6    S    
C31   H58   S    
C5    C11   S    
H41   N8    S    
C58   H16   S    
O19   Zn2   S    
O9    Zn5   S    
O6    Zn2   S    
H15   N5    S    
C27   C29   S    
H44   N10   S    
C50   O15   A    
C56   C65   S    
C37   C42   S    
C33   C36   S    
C49   C57   S    
C45   H7    S    
C3    N10   S    
C64   H5    S    
O14   Zn7   S    
C63   H33   S    
C4    N11   S    
C59   O21   S    
C8    N2    S    
O12   Zn2   S    
C41   O8    A    
C47   O11   A    
C12   O4    A    
C41   O27   A    
C36   O25   S    
O31   Zn4   S    
H49   N12   S    
O1    Zn1   S    
C51   C57   S    
C2    C16   S    
H37   N6    S    
C18   C20   S    
H11   N1    S    
C52   C55   S    
C63   H35   S    
O12   Zn8   S    
O27   Zn2   S    
C5    N3    S    
C48   O13   A    
C27   H45   S    
C9    C46   S    
C50   O19   A    
H14   N5    S    
C62   H29   S    
C4    C56   S    
C52   N7    S    
C3    C65   S    
H52   N2    S    
H46   N10   S    
C5    C10   S    
C52   C54   S    
H50   N12   S    
O32   Zn5   S    
C53   C55   S    
C2    C45   S    
O30   Zn3   S    
C46   O10   A    
C56   H8    S    
C46   O29   A    
C29   C48   S    
C10   C44   S    
C61   O24   S    
C49   O14   A    
C30   C47   S    
C19   C22   S    
H42   N9    S    
H38   N7    S    
C39   C40   S    
C5    C7    S    
C61   H28   S    
C39   C43   S    
C22   O20   S    
C1    O30   A    
C26   O24   S    
C42   H3    S    
C14   N1    S    
H54   N3    S    
C15   C20   S    
C51   C53   S    
C64   C66   S    
C32   H59   S    
C15   C19   S    
C59   H19   S    
O1    Zn7   S    
C58   H18   S    
C34   C57   S    
C62   H31   S    
C23   C51   S    
C62   O25   S    
C13   H10   S    
C7    C13   S    
O2    Zn6   S    
C63   O26   S    
C12   C20   S    
C25   O22   S    
O28   Zn7   S    
C33   C39   S    
C9    C11   S    
C26   C29   S    
C37   O26   S    
C40   O7    A    
C8    C10   S    
C15   C24   S    
O12   Zn4   S    
C48   O17   A    
O7    Zn3   S    
C43   H4    S    
H57   N4    S    
C58   O20   S    
C18   C24   S    
O1    Zn3   S    
C3    C66   S    
C35   C43   S    
C23   C54   S    
H39   N7    S    
C60   H25   S    
C25   C30   S    
C7    C9    S    
H13   N1    S    
O15   Zn8   S    
O18   Zn1   S    
C23   N8    S    
C19   C21   S    
C27   C32   S    
C18   H23   S    
C34   C52   S    
C28   C31   S    
C60   O22   S    
C20   C22   S    
C10   C13   S    
C7    N12   S    
C6    C8    S    
C51   N6    S    
C61   H26   S    
C23   C55   S    
C12   O31   A    
C47   O16   A    
C60   H24   S    
C25   C27   S    
C65   H6    S    
C4    C64   S    
C45   C64   S    
C26   C28   S    
C50   C55   S    
H47   N11   S    
C14   C22   S    
C28   C30   S    
C59   H20   S    
O5    Zn1   S    
C40   O23   A    
C29   C31   S    
C28   H56   S    
C11   H9    S    
C58   H17   S    
C19   H34   S    
C30   C32   S    
O4    Zn8   S    
C34   N9    S    
C8    C11   S    
C56   C66   S    
C2    C4    S    
O8    Zn4   S    
C16   O5    A    
C36   C38   S    
C33   H60   S    
H53   N3    S    
C3    C45   S    
C17   O2    A    
O11   Zn3   S    
H48   N11   S    
C53   H1    S    
H51   N2    S    
C59   H21   S    
C1    O3    A    
C44   O28   A    
O23   Zn1   S    
C38   C42   S    
C16   O32   A    
H40   N8    S    
O29   Zn8   S    
C15   N5    S    
C34   C53   S    
C37   C39   S    
C21   C24   S    
C38   C41   S    
O13   Zn4   S    
C35   C38   S    
C36   C43   S    
C54   H12   S    
C61   H27   S    
C6    C13   S    
C54   C57   S    
