data_mof_unit_17882.cif
_audit_creation_date              2012-10-26T21:05:20-0400
_audit_creation_method            fapswitch 2.2
_symmetry_space_group_name_H-M    P1
_symmetry_Int_Tables_number       1
_space_group_crystal_system       triclinic
_cell_length_a                    9.660385
_cell_length_b                    10.800201
_cell_length_c                    13.851665
_cell_angle_alpha                 93.312523
_cell_angle_beta                  84.490791
_cell_angle_gamma                 89.717415
_cell_volume                      1436.04196594

loop_
_atom_site_label
_atom_site_type_symbol
_atom_type_description
_atom_site_fract_x
_atom_site_fract_y
_atom_site_fract_z
_atom_type_partial_charge
C1    C     C_R   0.498298 0.737449 0.508069 0.534223
C2    C     C_R   0.613021 0.934193 0.483583 -0.136439
C3    C     C_R   0.615048 0.061426 0.487129 -0.118340
C4    C     C_R   0.477094 0.502521 0.682848 0.530019
C5    C     C_R   0.497874 0.130925 0.524517 0.015937
C6    C     C_R   0.887781 0.426107 0.326457 0.096124
C7    C     C_R   0.977453 0.441774 0.242916 -0.030899
C8    C     C_R   0.114981 0.403995 0.245765 0.029060
C9    C     C_R   0.162298 0.388820 0.337060 0.025306
C10   C     C_R   0.085588 0.446192 0.420874 0.096248
C11   C     C_R   0.937948 0.454714 0.418033 0.125334
C12   C     C_1   0.463900 0.513701 0.786428 0.006455
C13   C     C_R   0.915492 0.545593 0.577503 0.017106
C14   C     C_R   0.062923 0.547857 0.576695 0.009746
C15   C     C_R   0.498963 0.263806 0.509166 0.565283
C16   C     C_R   0.522919 0.501237 0.317237 0.572821
C17   C     C_1   0.537005 0.500947 0.213687 0.031308
C18   C     C_2   0.555141 0.493478 0.022299 -0.077714
C19   C     C_2   0.452096 0.539676 0.977308 -0.096308
C20   C     C_1   0.456632 0.525641 0.873511 -0.016769
C21   C     C_1   0.546881 0.498894 0.126462 0.015393
C22   C     C_1   0.922304 0.457226 0.151125 0.280609
C23   C     C_R   0.275031 0.881695 0.630500 -0.122577
C24   C     C_1   0.243810 0.277896 0.342937 0.305667
C25   C     C_R   0.166364 0.950733 0.681168 -0.096353
C26   C     C_R   0.166278 0.079375 0.681083 0.106352
C27   C     C_R   0.275476 0.139639 0.630755 -0.075680
C28   C     C_R   0.384323 0.071724 0.575320 0.010818
C29   C     C_R   0.383875 0.940183 0.574836 0.027659
C30   C     C_R   0.496085 0.872253 0.522200 0.006678
Cu1   Cu    Cu3+1 0.359340 0.500010 0.500010 0.961599
Cu2   Cu    Cu3+1 0.640660 0.499990 0.499990 0.987857
H1    H     H_    0.362725 0.585546 0.018174 0.159708
H2    H     H_    0.108321 0.588486 0.639344 0.115744
H3    H     H_    0.643323 0.446348 0.981041 0.176193
H4    H     H_    0.702943 0.884038 0.447829 0.152742
H5    H     H_    0.274152 0.783112 0.639124 0.137137
H6    H     H_    0.083719 0.903986 0.722658 0.137990
H7    H     H_    0.275473 0.239464 0.639591 0.164845
H8    H     H_    0.708335 0.104809 0.457349 0.175644
H9    H     H_    0.852533 0.584247 0.640930 0.127562
I1    I     I_    0.783569 0.255231 0.302452 -0.311205
I2    I     I_    0.230377 0.330935 0.115336 -0.306345
I3    I     I_    0.004171 0.184042 0.760820 -0.332676
N1    N     N_R   0.852210 0.498790 0.499090 -0.232051
N2    N     N_R   0.148080 0.498710 0.499060 -0.243899
N3    N     N_1   0.879516 0.469783 0.077092 -0.270648
N4    N     N_1   0.306600 0.186464 0.344052 -0.251762
O1    O     O_R   0.381190 0.680360 0.500010 -0.503357
O2    O     O_R   0.618760 0.680340 0.500000 -0.506984
O3    O     O_R   0.364420 0.499990 0.637850 -0.519589
O4    O     O_R   0.601990 0.499960 0.637840 -0.499793
O5    O     O_R   0.381240 0.319660 0.500000 -0.504814
O6    O     O_R   0.618810 0.319640 0.499990 -0.473565
O7    O     O_R   0.398010 0.500040 0.362160 -0.495005
O8    O     O_R   0.635580 0.500010 0.362150 -0.482395

loop_
_geom_bond_atom_site_label_1
_geom_bond_atom_site_label_2
_ccdc_geom_bond_type
C10   N2    A    
C16   O8    A    
C9    C24   S    
C14   H2    S    
C6    C7    A    
C25   H6    S    
C4    C12   S    
C7    C22   S    
C1    O2    A    
Cu1   Cu2   S    
C8    I2    S    
C2    C30   A    
C12   C20   T    
C13   H9    S    
C22   N3    T    
C8    C9    A    
C16   O7    A    
C26   I3    S    
C7    C8    A    
C14   N2    A    
Cu2   N1    S    
C13   C14   A    
Cu1   O5    S    
C13   N1    A    
Cu2   O2    S    
C26   C27   A    
C29   C30   A    
C1    O1    A    
Cu1   O1    S    
C23   C29   A    
C18   H3    S    
Cu2   O6    S    
C28   C29   A    
C4    O4    A    
C3    H8    S    
C2    C3    A    
C23   C25   A    
C1    C30   S    
C19   H1    S    
C11   N1    A    
C5    C15   S    
C10   C11   A    
C4    O3    A    
C27   H7    S    
C18   C21   S    
C15   O6    A    
C15   O5    A    
C27   C28   A    
C18   C19   D    
C9    C10   A    
C2    H4    S    
C6    C11   A    
Cu2   O8    S    
Cu2   O4    S    
Cu1   O7    S    
C25   C26   A    
C23   H5    S    
C6    I1    S    
C5    C28   A    
C17   C21   T    
C19   C20   S    
Cu1   O3    S    
C16   C17   S    
C3    C5    A    
Cu1   N2    S    
C24   N4    T    
