data_mof_unit_36130.cif
_audit_creation_date              2012-12-10T19:11:31-0500
_audit_creation_method            fapswitch 2.2
_symmetry_space_group_name_H-M    P1
_symmetry_Int_Tables_number       1
_space_group_crystal_system       triclinic
_cell_length_a                    7.774766
_cell_length_b                    9.097921
_cell_length_c                    17.352355
_cell_angle_alpha                 89.988327
_cell_angle_beta                  86.097972
_cell_angle_gamma                 89.987961
_cell_volume                      1224.55973546

loop_
_atom_site_label
_atom_site_type_symbol
_atom_type_description
_atom_site_fract_x
_atom_site_fract_y
_atom_site_fract_z
_atom_type_partial_charge
C1    C     C_R   0.499991 0.780014 0.500001 0.840737
C2    C     C_R   0.500008 0.219985 0.500002 0.839188
C3    C     C_1   0.499986 0.934644 0.500004 -0.177626
C4    C     C_1   0.500012 0.065356 0.500001 -0.177242
C5    C     C_R   0.478076 0.504487 0.650395 0.809084
C6    C     C_R   0.521772 0.494376 0.349597 0.808750
C7    C     C_R   0.465674 0.513838 0.734975 -0.092743
C8    C     C_R   0.532945 0.480323 0.265091 -0.077294
C9    C     C_R   0.605872 0.563235 0.775654 0.149629
C10   C     C_R   0.388846 0.434963 0.225529 0.148234
C11   C     C_R   0.589690 0.565569 0.856131 -0.217477
C12   C     C_R   0.403017 0.428693 0.145141 -0.240308
C13   C     C_R   0.437448 0.519044 0.896836 0.117459
C14   C     C_R   0.557463 0.465924 0.103531 0.143566
C15   C     C_R   0.294751 0.474120 0.856204 0.188596
C16   C     C_R   0.703986 0.502976 0.142573 0.187013
C17   C     C_R   0.310738 0.473312 0.775621 -0.250263
C18   C     C_R   0.690238 0.510429 0.223356 -0.279501
C19   C     C_2   0.431741 0.518805 0.981419 -0.246187
C20   C     C_2   0.564040 0.466640 0.018937 -0.201461
Cu1   Cu    Cu3+1 0.330920 0.500000 0.500000 1.012002
Cu2   Cu    Cu3+1 0.669080 0.500000 0.500000 1.012906
H1    H     H_    0.293060 0.393105 0.114789 0.142684
H2    H     H_    0.696428 0.605373 0.887366 0.150059
H3    H     H_    0.801768 0.542579 0.253560 0.171667
H4    H     H_    0.201959 0.436853 0.744696 0.181746
H5    H     H_    0.680337 0.427352 0.987168 0.183048
H6    H     H_    0.318038 0.562315 0.013407 0.161948
N1    N     N_1   0.923170 0.500000 0.500010 -0.041988
N2    N     N_1   0.076830 0.500000 0.499990 -0.041925
O1    O     O_R   0.357240 0.711600 0.500000 -0.577510
O2    O     O_R   0.642760 0.288400 0.500000 -0.578044
O3    O     O_R   0.642760 0.711600 0.500000 -0.580332
O4    O     O_R   0.357240 0.288400 0.500000 -0.581387
O5    O     O_R   0.340660 0.500000 0.613590 -0.594119
O6    O     O_R   0.659340 0.500000 0.386410 -0.593429
O7    O     O_R   0.626230 0.500000 0.613600 -0.553199
O8    O     O_R   0.373770 0.500000 0.386400 -0.554875
N3    N     N_3   0.133983 0.425320 0.893874 -0.602119
H7    H     H_    0.136965 0.422621 0.953775 0.221944
H8    H     H_    0.114559 0.316574 0.877027 0.218136
N4    N     N_3   0.864326 0.536351 0.099924 -0.619495
H9    H     H_    0.848145 0.635600 0.070908 0.220494
H10   H     H_    0.961960 0.553704 0.137488 0.213135
N5    N     N_3   0.762783 0.613577 0.735427 -0.550659
H11   H     H_    0.858033 0.632745 0.773978 0.220738
H12   H     H_    0.736362 0.714837 0.710283 0.214336
N6    N     N_3   0.229671 0.392824 0.266774 -0.555867
H13   H     H_    0.132635 0.376224 0.228807 0.208532
H14   H     H_    0.250460 0.291447 0.292981 0.219418

loop_
_geom_bond_atom_site_label_1
_geom_bond_atom_site_label_2
_ccdc_geom_bond_type
C2    C4    S    
C6    O8    A    
C9    N5    S    
N1    N2    T    
Cu1   O5    S    
C20   H5    S    
C5    O7    A    
C9    C11   A    
Cu1   N2    S    
Cu2   O2    S    
C19   C20   D    
C2    O4    A    
N6    H14   S    
C1    O3    A    
N3    H8    S    
C16   C18   A    
N5    H11   S    
C19   H6    S    
C11   C13   A    
C12   H1    S    
C15   N3    S    
Cu1   O1    S    
C18   H3    S    
N4    H10   S    
C17   H4    S    
C10   C12   A    
C8    C10   A    
N6    H13   S    
Cu2   N1    S    
C12   C14   A    
C7    C9    A    
C13   C15   A    
C10   N6    S    
C14   C16   A    
N4    H9    S    
C13   C19   S    
C3    C4    T    
C16   N4    S    
C11   H2    S    
C1    O1    A    
Cu2   O6    S    
C14   C20   S    
C2    O2    A    
N5    H12   S    
N3    H7    S    
C15   C17   A    
Cu2   O3    S    
C5    C7    S    
C6    C8    S    
Cu1   O4    S    
C1    C3    S    
Cu1   Cu2   S    
Cu2   O7    S    
C5    O5    A    
C8    C18   A    
Cu1   O8    S    
C6    O6    A    
C7    C17   A    
