data_mof_unit_27842.cif
_audit_creation_date              2012-12-11T16:27:32-0500
_audit_creation_method            fapswitch 2.2
_symmetry_space_group_name_H-M    P1
_symmetry_Int_Tables_number       1
_space_group_crystal_system       triclinic
_cell_length_a                    21.661444
_cell_length_b                    6.910151
_cell_length_c                    14.743477
_cell_angle_alpha                 89.986432
_cell_angle_beta                  104.72024
_cell_angle_gamma                 89.989764
_cell_volume                      2134.42680047

loop_
_atom_site_label
_atom_site_type_symbol
_atom_type_description
_atom_site_fract_x
_atom_site_fract_y
_atom_site_fract_z
_atom_type_partial_charge
O1    O     O_R   0.835850 0.638310 0.002120 -0.532419
O2    O     O_R   0.164150 0.361690 0.997880 -0.532421
O3    O     O_R   0.664150 0.138310 0.997880 -0.532315
O4    O     O_R   0.335850 0.861690 0.002120 -0.532316
O5    O     O_R   0.717530 0.306070 0.861970 -0.542979
O6    O     O_R   0.282470 0.693930 0.138030 -0.542979
O7    O     O_R   0.782470 0.806070 0.138030 -0.543048
O8    O     O_R   0.217530 0.193930 0.861970 -0.543048
C1    C     C_R   0.705405 0.477578 0.824731 0.698885
C2    C     C_R   0.294594 0.522422 0.175269 0.698884
C3    C     C_R   0.794586 0.977505 0.175266 0.698926
C4    C     C_R   0.205414 0.022496 0.824734 0.698924
O9    O     O_R   0.838690 0.308440 0.993250 -0.537669
O10   O     O_R   0.161310 0.691560 0.006750 -0.537667
O11   O     O_R   0.661310 0.808440 0.006750 -0.537853
O12   O     O_R   0.338690 0.191560 0.993250 -0.537852
O13   O     O_R   0.786170 0.140510 0.130090 -0.542914
O14   O     O_R   0.213830 0.859490 0.869910 -0.542913
O15   O     O_R   0.713830 0.640510 0.869910 -0.542964
O16   O     O_R   0.286170 0.359490 0.130090 -0.542963
C5    C     C_R   0.865346 0.477237 0.998236 0.694993
C6    C     C_R   0.134654 0.522763 0.001764 0.694991
C7    C     C_R   0.634655 0.977266 0.001762 0.694992
C8    C     C_R   0.365345 0.022734 0.998238 0.694993
O17   O     O_3   0.732630 0.472520 0.044740 -0.369265
O18   O     O_3   0.267370 0.527480 0.955260 -0.369264
O19   O     O_3   0.767370 0.972520 0.955260 -0.369228
O20   O     O_3   0.232630 0.027480 0.044740 -0.369228
V1    V     V_3+5 0.753220 0.196740 0.991700 1.463077
V2    V     V_3+5 0.246780 0.803260 0.008300 1.463078
V3    V     V_3+5 0.746780 0.696740 0.008300 1.462709
V4    V     V_3+5 0.253220 0.303260 0.991700 1.462708
H1    H     H_    0.612047 0.129945 0.316874 0.109198
H2    H     H_    0.387953 0.870045 0.683126 0.109197
H3    H     H_    0.887938 0.624868 0.682573 0.109248
H4    H     H_    0.112062 0.375119 0.317426 0.109250
C9    C     C_R   0.535078 0.911973 0.832114 -0.093678
C10   C     C_R   0.464922 0.088020 0.167886 -0.093678
C11   C     C_R   0.964933 0.414666 0.168185 -0.093486
C12   C     C_R   0.035067 0.585321 0.831814 -0.093486
C13   C     C_R   0.488299 0.881428 0.748973 -0.103483
C14   C     C_R   0.511701 0.118563 0.251028 -0.103484
C15   C     C_R   0.011716 0.385331 0.251458 -0.103802
C16   C     C_R   0.988284 0.614652 0.748541 -0.103801
C17   C     C_R   0.424077 0.893519 0.747952 -0.116360
C18   C     C_R   0.575922 0.106473 0.252049 -0.116361
C19   C     C_R   0.075936 0.397585 0.252492 -0.116494
C20   C     C_R   0.924064 0.602404 0.747507 -0.116492
C21   C     C_R   0.406128 0.936263 0.830074 -0.122691
C22   C     C_R   0.593872 0.063733 0.169926 -0.122691
C23   C     C_R   0.093881 0.439182 0.170240 -0.122523
C24   C     C_R   0.906119 0.560813 0.829760 -0.122521
C25   C     C_R   0.452462 0.967666 0.915556 0.075765
C26   C     C_R   0.547538 0.032332 0.084444 0.075765
C27   C     C_R   0.047544 0.469166 0.084608 0.075842
C28   C     C_R   0.952456 0.530830 0.915392 0.075841
C29   C     C_R   0.518319 0.955056 0.916656 0.084941
C30   C     C_R   0.481681 0.044941 0.083344 0.084941
C31   C     C_R   0.981688 0.456471 0.083505 0.084853
C32   C     C_R   0.018312 0.543523 0.916494 0.084851
C33   C     C_R   0.434092 0.012734 0.998861 -0.168682
C34   C     C_R   0.565908 0.987266 0.001139 -0.168682
C35   C     C_R   0.065907 0.512809 0.001140 -0.168806
C36   C     C_R   0.934093 0.487190 0.998860 -0.168804
H5    H     H_    0.584398 0.901638 0.829242 0.100140
H6    H     H_    0.415602 0.098354 0.170759 0.100140
H7    H     H_    0.915614 0.404264 0.171048 0.099912
H8    H     H_    0.084386 0.595718 0.828950 0.099910
H9    H     H_    0.501986 0.848374 0.684969 0.117732
H10   H     H_    0.498014 0.151613 0.315032 0.117732
H11   H     H_    0.998033 0.353118 0.315557 0.117708
H12   H     H_    0.001967 0.646859 0.684441 0.117707
H13   H     H_    0.355645 0.945094 0.825855 0.079812
H14   H     H_    0.644355 0.054903 0.174145 0.079811
H15   H     H_    0.144361 0.448205 0.174468 0.079476
H16   H     H_    0.855639 0.551793 0.825532 0.079475
C37   C     C_R   0.175474 0.009613 0.723896 -0.073633
C38   C     C_R   0.824525 0.990390 0.276104 -0.073637
C39   C     C_R   0.324516 0.509182 0.276117 -0.074044
C40   C     C_R   0.675485 0.490819 0.723882 -0.074046
C41   C     C_R   0.183764 0.888614 0.574138 -0.166334
C42   C     C_R   0.816239 0.111421 0.425858 -0.166331
C43   C     C_R   0.316545 0.384536 0.425426 -0.166231
C44   C     C_R   0.683456 0.615474 0.574575 -0.166232
C45   C     C_R   0.212485 0.942977 0.665578 -0.188152
C46   C     C_R   0.787517 0.057056 0.334418 -0.188156
C47   C     C_R   0.287688 0.440024 0.334183 -0.188168
C48   C     C_R   0.712312 0.559990 0.665819 -0.188168
C49   C     C_R   0.108889 0.034368 0.688706 -0.108713
C50   C     C_R   0.891109 0.965616 0.311296 -0.108707
C51   C     C_R   0.391031 0.535294 0.311435 -0.108628
C52   C     C_R   0.608970 0.464697 0.688563 -0.108627
C53   C     C_R   0.079685 0.999644 0.591369 0.032064
C54   C     C_R   0.920315 0.000347 0.408633 0.032059
C55   C     C_R   0.420314 0.499308 0.408647 0.031809
C56   C     C_R   0.579688 0.500682 0.591350 0.031808
C57   C     C_R   0.117815 0.909116 0.537991 0.130279
C58   C     C_R   0.882186 0.090894 0.462007 0.130280
C59   C     C_R   0.382433 0.406316 0.461666 0.130066
C60   C     C_R   0.617568 0.593681 0.538333 0.130068
C61   C     C_R   0.013974 0.039272 0.545581 0.044218
C62   C     C_R   0.986026 0.960714 0.454422 0.044216
C63   C     C_R   0.485919 0.539918 0.454581 0.044013
C64   C     C_R   0.514084 0.460067 0.545415 0.044014
C65   C     C_R   0.024073 0.839475 0.414102 -0.175196
C66   C     C_R   0.975929 0.160516 0.585901 -0.175193
C67   C     C_R   0.476372 0.336664 0.585260 -0.174862
C68   C     C_R   0.523630 0.663318 0.414735 -0.174863
C69   C     C_R   0.089350 0.826466 0.451380 -0.196807
C70   C     C_R   0.910652 0.173541 0.548619 -0.196802
C71   C     C_R   0.411128 0.322486 0.547939 -0.196684
C72   C     C_R   0.588875 0.677504 0.452058 -0.196685
H17   H     H_    0.117350 0.741800 0.414357 0.126878
H18   H     H_    0.882652 0.258218 0.585640 0.126874
H19   H     H_    0.383358 0.236034 0.584615 0.126797
H20   H     H_    0.616645 0.763956 0.415382 0.126797
H21   H     H_    0.736742 0.079939 0.307112 0.103923
H22   H     H_    0.263261 0.920115 0.692883 0.103919
H23   H     H_    0.763011 0.584093 0.693248 0.104253
H24   H     H_    0.236989 0.415931 0.306755 0.104250
H25   H     H_    0.212993 0.824118 0.532420 0.118131
H26   H     H_    0.787011 0.175936 0.467573 0.118130
H27   H     H_    0.287494 0.318070 0.466872 0.118271
H28   H     H_    0.712506 0.681948 0.533131 0.118271
H29   H     H_    0.004379 0.749007 0.354424 0.148781
H30   H     H_    0.995623 0.250979 0.645580 0.148778
H31   H     H_    0.496323 0.245431 0.644589 0.148522
H32   H     H_    0.503680 0.754547 0.355404 0.148524
C73   C     C_1   0.928184 0.939653 0.242827 0.252705
N1    N     N_1   0.957265 0.919589 0.187560 -0.341672
C74   C     C_1   0.071814 0.060310 0.757176 0.252705
N2    N     N_1   0.042731 0.080359 0.812442 -0.341668
C75   C     C_1   0.571921 0.436470 0.756905 0.252806
N3    N     N_1   0.542848 0.414661 0.812060 -0.341935
C76   C     C_1   0.428080 0.563514 0.243091 0.252805
N4    N     N_1   0.457152 0.585318 0.187934 -0.341934

loop_
_geom_bond_atom_site_label_1
_geom_bond_atom_site_label_2
_ccdc_geom_bond_type
O17   V3    S    
C43   C47   A    
O1    C5    A    
C8    C33   S    
C58   C70   A    
C27   C31   A    
O19   V1    S    
O13   V1    S    
O3    C7    A    
C52   C75   S    
C52   C56   A    
O15   V3    S    
C39   C47   A    
C76   N4    T    
C38   C50   A    
O7    C3    A    
C37   C49   A    
C31   C36   A    
C61   C62   A    
C62   C65   A    
C32   C35   A    
C12   C32   A    
O9    V1    S    
C23   H15   S    
C10   C14   A    
C22   H14   S    
C26   C30   A    
O4    C8    A    
C55   C59   A    
C54   C58   A    
O1    V3    S    
H4    C19   S    
O2    V4    S    
C14   C18   A    
O3    V1    S    
C5    C36   S    
C6    C35   S    
C10   C30   A    
C50   C73   S    
C25   C33   A    
C1    O15   A    
C7    C34   S    
C10   H6    S    
C2    O16   A    
C9    H5    S    
O2    C6    A    
C28   C36   A    
C63   C68   A    
O14   V2    S    
C70   H18   S    
C12   C16   A    
C39   C51   A    
C69   H17   S    
C38   C46   A    
C30   C33   A    
O11   C7    A    
C11   C31   A    
O12   C8    A    
C43   C59   A    
C9    C13   A    
H1    C18   S    
C42   C58   A    
C67   C71   A    
O10   V2    S    
C41   H25   S    
H3    C20   S    
C55   C63   A    
C18   C22   A    
C50   C54   A    
O5    V1    S    
O17   V1    S    
O7    V3    S    
O19   V3    S    
C44   C60   A    
O20   V4    S    
C53   C61   A    
C25   C29   A    
O18   V4    S    
C19   C23   A    
C26   C34   A    
C29   C34   A    
C42   C46   A    
C51   C55   A    
O4    V2    S    
C68   C72   A    
C27   C35   A    
C1    C40   S    
O8    V4    S    
C40   C52   A    
C14   H10   S    
O5    C1    A    
C3    C38   S    
C57   C69   A    
C17   C21   A    
O8    C4    A    
C59   C71   A    
C4    C37   S    
O9    C5    A    
H2    C17   S    
C22   C26   A    
C68   H32   S    
C48   H23   S    
O6    V2    S    
C60   C72   A    
C56   C64   A    
C75   N3    T    
C21   H13   S    
O12   V4    S    
C74   N2    T    
C53   C57   A    
C72   H20   S    
C13   H9    S    
C73   N1    T    
O16   V4    S    
C61   C66   A    
C65   C69   A    
C3    O13   A    
C15   H11   S    
C11   H7    S    
C44   C48   A    
C24   H16   S    
O6    C2    A    
C11   C15   A    
C2    C39   S    
O11   V3    S    
C44   H28   S    
C66   H30   S    
C49   C74   S    
C65   H29   S    
O10   C6    A    
O20   V2    S    
C67   H31   S    
C47   H24   S    
C40   C48   A    
C16   C20   A    
C41   C57   A    
C21   C25   A    
C56   C60   A    
C16   H12   S    
C46   H21   S    
C23   C27   A    
C49   C53   A    
C45   H22   S    
C9    C29   A    
C37   C45   A    
C28   C32   A    
C20   C24   A    
C51   C76   S    
C54   C62   A    
C66   C70   A    
C12   H8    S    
C4    O14   A    
C63   C64   A    
C13   C17   A    
C71   H19   S    
C43   H27   S    
C15   C19   A    
C42   H26   S    
C64   C67   A    
C41   C45   A    
C24   C28   A    
O18   V2    S    
