data_mof_unit_29870.cif
_audit_creation_date              2013-03-05T15:58:56-0500
_audit_creation_method            fapswitch 2.2
_symmetry_space_group_name_H-M    P1
_symmetry_Int_Tables_number       1
_space_group_crystal_system       triclinic
_cell_length_a                    10.809202
_cell_length_b                    12.650001
_cell_length_c                    13.439249
_cell_angle_alpha                 86.745131
_cell_angle_beta                  92.873982
_cell_angle_gamma                 100.150952
_cell_volume                      1804.4454972

loop_
_atom_site_label
_atom_site_type_symbol
_atom_site_description
_atom_site_fract_x
_atom_site_fract_y
_atom_site_fract_z
_atom_type_partial_charge
O1    O     O_R   0.468120 0.366740 0.627160 -0.607188
O2    O     O_R   0.510770 0.544830 0.662520 -0.549735
C1    C     C_R   0.497730 0.443633 0.691128 0.985866
O3    O     O_R   0.663880 0.410950 0.482330 -0.587966
O4    O     O_R   0.706530 0.589040 0.517700 -0.620657
C2    C     C_R   0.741146 0.496902 0.506154 0.989468
Zn1   Zn    Zn3+2 0.471520 0.381090 0.476390 1.045611
Zn2   Zn    Zn3+2 0.528480 0.618910 0.523610 1.081350
O5    O     O_R   0.489230 0.455170 0.337480 -0.641261
O6    O     O_R   0.531880 0.633260 0.372840 -0.646714
O7    O     O_R   0.293470 0.410960 0.482300 -0.631400
O8    O     O_R   0.336120 0.589050 0.517670 -0.579881
C3    C     C_R   0.514567 0.557187 0.310269 0.964570
C4    C     C_R   0.258618 0.499430 0.505802 1.048190
C5    C     C_3   0.908403 0.384135 0.564766 0.379408
C6    C     C_3   0.052431 0.384668 0.550811 -0.043805
H1    H     H_    0.057309 0.331003 0.489082 0.148603
H2    H     H_    0.879748 0.432868 0.362604 0.184210
H3    H     H_    0.077326 0.439159 0.361562 0.097300
C7    C     C_3   0.921840 0.506898 0.400085 0.072888
C8    C     C_3   0.947842 0.587094 0.571741 -0.457462
C9    C     C_3   0.877069 0.492571 0.509691 -0.341447
H4    H     H_    0.923951 0.665448 0.544305 0.254189
H5    H     H_    0.908561 0.576767 0.645917 0.264480
C10   C     C_3   0.122530 0.500371 0.510352 -0.377002
C11   C     C_3   0.067122 0.512795 0.398694 0.015654
C12   C     C_3   0.092923 0.592776 0.578090 0.476812
C13   C     C_R   0.688324 0.700858 0.098516 -0.052666
H6    H     H_    0.645365 0.747316 0.240504 0.183017
H7    H     H_    0.783117 0.715391 0.924201 0.193589
H8    H     H_    0.749481 0.776971 0.082743 0.168678
C14   C     C_R   0.548083 0.586525 0.208429 -0.030710
C15   C     C_R   0.450791 0.309263 0.828270 -0.097142
C16   C     C_R   0.461677 0.267978 0.925269 -0.125083
C17   C     C_R   0.522289 0.332638 0.999888 0.291488
C18   C     C_R   0.564752 0.443562 0.976232 -0.053219
C19   C     C_R   0.578541 0.481060 0.874814 -0.071662
C20   C     C_R   0.589071 0.521031 0.050071 0.130717
C21   C     C_R   0.669837 0.619217 0.030696 0.072528
C22   C     C_R   0.720098 0.639750 0.939008 -0.170305
C23   C     C_R   0.662917 0.581673 0.859355 0.384512
C24   C     C_R   0.523923 0.508292 0.137719 -0.135053
C25   C     C_R   0.625909 0.685206 0.186791 -0.053240
C26   C     C_R   0.510274 0.413853 0.799408 -0.057932
H9    H     H_    0.452608 0.438756 0.150079 0.139612
H10   H     H_    0.399215 0.256055 0.774262 0.228669
H11   H     H_    0.424217 0.183946 0.941449 0.218507
C27   C     C_R   0.314482 0.077043 0.354904 -0.206108
H12   H     H_    0.251807 0.052664 0.292120 0.204574
N1    N     N_R   0.433240 0.222190 0.444680 -0.129771
C28   C     C_R   0.683952 0.818587 0.589077 0.075242
C29   C     C_R   0.710666 0.921883 0.627012 0.008803
C30   C     C_R   0.612380 0.983507 0.621663 0.321110
C31   C     C_R   0.516331 0.957802 0.546868 -0.079271
C32   C     C_R   0.492791 0.849186 0.516978 0.129783
C33   C     C_R   0.453210 0.036314 0.493653 -0.008306
C34   C     C_R   0.366165 0.001584 0.414566 -0.009035
C35   C     C_R   0.343311 0.893793 0.387621 0.306380
C36   C     C_R   0.405905 0.820084 0.439522 -0.138068
C37   C     C_R   0.482537 0.149586 0.507588 0.065791
C38   C     C_R   0.354369 0.186122 0.365461 0.284920
N2    N     N_R   0.566070 0.776970 0.554790 -0.117372
H13   H     H_    0.548147 0.181781 0.565566 0.205193
H14   H     H_    0.755940 0.769995 0.589913 0.194590
H15   H     H_    0.391431 0.741000 0.413356 0.241484
N3    N     N_R   0.836477 0.284670 0.521857 0.209955
O9    O     O_R   0.845267 0.263047 0.429251 -0.423147
O10   O     O_R   0.783700 0.206859 0.581237 -0.360850
N4    N     N_R   0.151637 0.702083 0.542089 0.194962
O11   O     O_R   0.110755 0.745333 0.459890 -0.336115
O12   O     O_R   0.223779 0.765502 0.602337 -0.322047
N5    N     N_R   0.871896 0.591970 0.340180 0.253963
O13   O     O_R   0.823773 0.570576 0.251468 -0.362992
O14   O     O_R   0.881849 0.689341 0.369694 -0.318732
N6    N     N_R   0.137394 0.598987 0.333387 0.282821
O15   O     O_R   0.255964 0.599258 0.322264 -0.452298
O16   O     O_R   0.080253 0.645886 0.260789 -0.187651
N7    N     N_R   0.554551 0.282494 0.094580 0.184571
O17   O     O_R   0.652586 0.325907 0.147553 -0.328079
O18   O     O_R   0.503114 0.183859 0.118145 -0.396324
N8    N     N_R   0.875058 0.382613 0.671334 0.234003
O19   O     O_R   0.757620 0.374424 0.692878 -0.394123
O20   O     O_R   0.958254 0.390981 0.745040 -0.254895
N9    N     N_R   0.674256 0.643144 0.769280 0.191329
O21   O     O_R   0.786339 0.668294 0.735276 -0.458359
O22   O     O_R   0.599779 0.713718 0.758108 -0.366422
C39   C     C_3   0.328244 0.255959 0.275155 -0.355548
C40   C     C_3   0.220575 0.316573 0.285539 -0.768199
H16   H     H_    0.155690 0.276667 0.343235 0.261094
H17   H     H_    0.258503 0.400385 0.302912 0.287356
H18   H     H_    0.165760 0.319772 0.213575 0.262945
H19   H     H_    0.416355 0.306329 0.254023 0.249044
H20   H     H_    0.302732 0.206716 0.208749 0.219610
N10   N     N_R   0.269321 0.860301 0.299327 0.238172
O23   O     O_R   0.318469 0.814251 0.230638 -0.314477
O24   O     O_R   0.151954 0.871697 0.288774 -0.277058
N11   N     N_R   0.594003 0.051020 0.701338 0.227400
O25   O     O_R   0.679422 0.074492 0.771994 -0.321072
O26   O     O_R   0.480960 0.067177 0.716717 -0.380644
C41   C     C_3   0.842164 0.961936 0.669737 -0.325405
C42   C     C_3   0.942554 0.961670 0.593371 -0.689775
H21   H     H_    0.949057 0.878560 0.574675 0.261731
H22   H     H_    0.920997 0.008597 0.524216 0.281690
H23   H     H_    0.035846 0.999204 0.624916 0.290376
H24   H     H_    0.853624 0.045782 0.692468 0.303279
H25   H     H_    0.861421 0.910287 0.736360 0.251519
N12   N     N_R   0.112518 0.329118 0.634362 0.274713
O27   O     O_R   0.070917 0.227496 0.653985 -0.336220
O28   O     O_R   0.210761 0.375043 0.684922 -0.351381
N13   N     N_R   0.138649 0.577646 0.683569 0.254539
O29   O     O_R   0.258132 0.579327 0.702846 -0.287900
O30   O     O_R   0.074785 0.600682 0.756639 -0.283688

loop_
_geom_bond_atom_site_label_1
_geom_bond_atom_site_label_2
_geom_bond_distance
_ccdc_geom_bond_type
N3    O10   1.299869 A    
C39   C40   1.518174 S    
C42   H21   1.109591 S    
C32   C36   1.387356 A    
C3    C14   1.444588 S    
C17   C18   1.420447 A    
N8    O19   1.301181 A    
C34   C35   1.407047 A    
C27   C34   1.386475 A    
C5    N8    1.492535 S    
C30   C31   1.416857 A    
Zn1   O7    2.031785 S    
C41   H24   1.104690 S    
C37   H13   1.074598 S    
C18   C19   1.423719 A    
N9    O22   1.301393 A    
C20   C24   1.389607 A    
C20   C21   1.405885 A    
O7    C4    1.301868 A    
N7    O18   1.301738 A    
C5    C6    1.576190 S    
C2    C9    1.478148 S    
C32   N2    1.371911 A    
N11   O25   1.299923 A    
C33   C34   1.419512 A    
C16   C17   1.393668 A    
N4    O12   1.302774 A    
H3    C11   1.106074 S    
O5    C3    1.306156 A    
N13   O29   1.301147 A    
C38   C39   1.504985 S    
C6    N12   1.474648 S    
N8    O20   1.300051 A    
C5    C9    1.602342 S    
C12   N13   1.490859 S    
C6    H1    1.110306 S    
N12   O27   1.301526 A    
C12   N4    1.481319 S    
N3    O9    1.300947 A    
C8    C12   1.555402 S    
C42   H22   1.111238 S    
C39   H19   1.089220 S    
H6    C25   1.083306 S    
C19   C23   1.440378 A    
C15   H10   1.083185 S    
N12   O28   1.296886 A    
N4    O11   1.297151 A    
C28   N2    1.358421 A    
O3    Zn1   2.045069 S    
N11   O26   1.302181 A    
C11   N6    1.484031 S    
C31   C33   1.439667 A    
C1    C26   1.487913 S    
C28   C29   1.406646 A    
N9    O21   1.296532 A    
N5    O14   1.300225 A    
C21   C22   1.364566 A    
N7    O17   1.301906 A    
C13   C21   1.397546 A    
C30   N11   1.449273 S    
C35   C36   1.383790 A    
C5    N3    1.487534 S    
C29   C41   1.517923 S    
C33   C37   1.432888 A    
O1    C1    1.321087 A    
C24   H9    1.073691 S    
N6    O15   1.297142 A    
C40   H18   1.111126 S    
Zn2   O8    2.045069 S    
C15   C16   1.383809 A    
H7    C22   1.086939 S    
N10   O24   1.301711 A    
N6    O16   1.299382 A    
O3    C2    1.294176 A    
C27   H12   1.079163 S    
O8    C4    1.298021 A    
C42   H23   1.110529 S    
C8    H4    1.106464 S    
C7    C9    1.564318 S    
C29   C30   1.421065 A    
C6    C10   1.603770 S    
Zn1   O5    2.043009 S    
C31   C32   1.429396 A    
C22   C23   1.389451 A    
C13   C25   1.381416 A    
O1    Zn1   2.025657 S    
C15   C26   1.407557 A    
C13   H8    1.084207 S    
O2    Zn2   2.043009 S    
C28   H14   1.072560 S    
Zn1   N1    2.044428 S    
C40   H17   1.100888 S    
N5    O13   1.300010 A    
O6    C3    1.296472 A    
O4    Zn2   2.031786 S    
C10   C12   1.606067 S    
C17   N7    1.444043 S    
C41   H25   1.111172 S    
N1    C37   1.371639 A    
C19   C26   1.447748 A    
C18   C20   1.416920 A    
O2    C1    1.300919 A    
C10   C11   1.597332 S    
C36   H15   1.062181 S    
C23   N9    1.399823 S    
C27   C38   1.384343 A    
O4    C2    1.304862 A    
C7    C11   1.559969 S    
C39   H20   1.112843 S    
C41   C42   1.531077 S    
C14   C25   1.401325 A    
H2    C7    1.103680 S    
C4    C10   1.477501 S    
C35   N10   1.438635 S    
N10   O23   1.301175 A    
N13   O30   1.302762 A    
C40   H16   1.110525 S    
Zn2   O6    2.025655 S    
C8    H5    1.095072 S    
N1    C38   1.376764 A    
C14   C24   1.393355 A    
C7    N5    1.469887 S    
C16   H11   1.082630 S    
C8    C9    1.561141 S    
Zn2   N2    2.032296 S    
