data_mof_unit_36927.cif
_audit_creation_date              2012-12-10T16:38:06-0500
_audit_creation_method            fapswitch 2.2
_symmetry_space_group_name_H-M    P1
_symmetry_Int_Tables_number       1
_space_group_crystal_system       triclinic
_cell_length_a                    28.088217
_cell_length_b                    18.665052
_cell_length_c                    16.830234
_cell_angle_alpha                 90.000016
_cell_angle_beta                  61.525433
_cell_angle_gamma                 90.0
_cell_volume                      7756.15804801

loop_
_atom_site_label
_atom_site_type_symbol
_atom_type_description
_atom_site_fract_x
_atom_site_fract_y
_atom_site_fract_z
_atom_type_partial_charge
C1    C     C_R   0.701227 0.266675 0.677061 0.867274
C2    C     C_R   0.100719 0.499918 0.493775 0.037713
C3    C     C_R   0.196231 0.211237 0.903896 0.057091
C4    C     C_R   0.602594 0.307758 0.058386 -0.099671
C5    C     C_R   0.364957 0.643974 0.964983 -0.076867
C6    C     C_R   0.397406 0.307758 0.941614 -0.099672
C7    C     C_R   0.635044 0.643972 0.035016 -0.076865
C8    C     C_R   0.102594 0.807758 0.058386 -0.099672
C9    C     C_R   0.864956 0.143973 0.964983 -0.076865
C10   C     C_R   0.897406 0.807758 0.941614 -0.099672
C11   C     C_R   0.135044 0.143972 0.035016 -0.076865
C12   C     C_R   0.632035 0.294749 0.106408 -0.088158
C13   C     C_R   0.399280 0.999918 0.506227 0.037713
C14   C     C_R   0.323166 0.630866 0.944453 -0.009735
C15   C     C_R   0.367965 0.294749 0.893592 -0.088157
C16   C     C_R   0.676835 0.630865 0.055545 -0.009737
C17   C     C_R   0.132035 0.794749 0.106408 -0.088158
C18   C     C_R   0.823165 0.130865 0.944454 -0.009735
C19   C     C_R   0.867966 0.794748 0.893592 -0.088158
C20   C     C_R   0.176835 0.130865 0.055545 -0.009736
C21   C     C_R   0.732259 0.179838 0.802074 -0.024289
C22   C     C_R   0.254599 0.805117 0.202205 -0.029671
C23   C     C_R   0.267741 0.179838 0.197925 -0.024289
C24   C     C_R   0.600719 0.999918 0.493776 0.037713
C25   C     C_R   0.745401 0.805116 0.797795 -0.029671
C26   C     C_R   0.232259 0.679838 0.802074 -0.024288
C27   C     C_R   0.754599 0.305117 0.202205 -0.029671
C28   C     C_R   0.767741 0.679837 0.197925 -0.024289
C29   C     C_R   0.245401 0.305116 0.797795 -0.029672
C30   C     C_R   0.763418 0.166682 0.845185 -0.063210
C31   C     C_R   0.218328 0.809417 0.166607 -0.226093
C32   C     C_R   0.236582 0.166681 0.154815 -0.063211
C33   C     C_R   0.781672 0.809417 0.833392 -0.226094
C34   C     C_R   0.263418 0.666682 0.845184 -0.063208
C35   C     C_R   0.110058 0.374628 0.460400 -0.071200
C36   C     C_R   0.718328 0.309417 0.166607 -0.226092
C37   C     C_R   0.736582 0.666681 0.154815 -0.063213
C38   C     C_R   0.281672 0.309417 0.833392 -0.226093
C39   C     C_R   0.074002 0.101013 0.934824 0.914456
C40   C     C_R   0.927733 0.897811 0.063623 1.024792
C41   C     C_R   0.925998 0.101013 0.065176 0.914457
C42   C     C_R   0.072266 0.897811 0.936377 1.024793
C43   C     C_R   0.574002 0.601013 0.934824 0.914456
C44   C     C_R   0.427733 0.397811 0.063623 1.024793
C45   C     C_R   0.425998 0.601013 0.065176 0.914456
C46   C     C_R   0.890724 0.625749 0.536986 0.002028
C47   C     C_R   0.572267 0.397811 0.936377 1.024793
C48   C     C_R   0.554095 0.130747 0.484864 -0.015893
C49   C     C_R   0.445242 0.869545 0.518208 -0.005857
C50   C     C_R   0.445904 0.130747 0.515139 -0.015893
C51   C     C_R   0.554755 0.869545 0.481798 -0.005859
C52   C     C_R   0.054095 0.630747 0.484863 -0.015893
C53   C     C_R   0.945243 0.369545 0.518206 -0.005856
C54   C     C_R   0.945904 0.630748 0.515138 -0.015893
C55   C     C_R   0.054756 0.369545 0.481795 -0.005856
C56   C     C_R   0.526974 0.197031 0.493360 -0.033271
C57   C     C_R   0.889941 0.374628 0.539601 -0.071200
C58   C     C_R   0.472174 0.803229 0.510476 -0.081343
C59   C     C_R   0.473025 0.197031 0.506642 -0.033269
C60   C     C_R   0.527823 0.803229 0.489531 -0.081347
C61   C     C_R   0.026974 0.697032 0.493359 -0.033270
C62   C     C_R   0.972175 0.303229 0.510474 -0.081348
C63   C     C_R   0.973026 0.697032 0.506641 -0.033269
C64   C     C_R   0.027824 0.303229 0.489528 -0.081346
C65   C     C_R   0.473849 0.065809 0.505130 0.014540
C66   C     C_R   0.526292 0.934323 0.494228 0.028386
C67   C     C_R   0.526150 0.065809 0.494874 0.014540
C68   C     C_R   0.109276 0.625749 0.463014 0.002027
C69   C     C_R   0.473706 0.934323 0.505777 0.028386
C70   C     C_R   0.973849 0.565809 0.505128 0.014540
C71   C     C_R   0.026293 0.434323 0.494226 0.028386
C72   C     C_R   0.026150 0.565809 0.494872 0.014540
C73   C     C_R   0.973706 0.434323 0.505775 0.028386
C74   C     C_R   0.948341 0.500025 0.508555 -0.014791
C75   C     C_R   0.051658 0.500025 0.491446 -0.014791
C76   C     C_R   0.448341 0.000025 0.508556 -0.014791
C77   C     C_R   0.551658 0.000025 0.491448 -0.014791
C78   C     C_R   0.873673 0.435526 0.508055 -0.044608
C79   C     C_R   0.610058 0.874627 0.460402 -0.071202
C80   C     C_R   0.126164 0.564264 0.492462 0.044730
C81   C     C_R   0.126326 0.435526 0.491945 -0.044608
C82   C     C_R   0.873836 0.564264 0.507539 0.044730
C83   C     C_R   0.373673 0.935526 0.508056 -0.044608
C84   C     C_R   0.626164 0.064264 0.492463 0.044729
C85   C     C_R   0.626326 0.935526 0.491946 -0.044603
C86   C     C_R   0.373835 0.064264 0.507539 0.044729
C87   C     C_R   0.833436 0.436105 0.478857 -0.168099
C88   C     C_R   0.166349 0.563778 0.521580 -0.150269
C89   C     C_R   0.166564 0.436105 0.521143 -0.168099
C90   C     C_R   0.390723 0.125750 0.536987 0.002028
C91   C     C_R   0.833651 0.563778 0.478420 -0.150269
C92   C     C_R   0.333436 0.936105 0.478857 -0.168099
C93   C     C_R   0.666349 0.063778 0.521580 -0.150270
C94   C     C_R   0.666563 0.936105 0.521144 -0.168095
C95   C     C_R   0.333650 0.063778 0.478421 -0.150269
C96   C     C_R   0.821084 0.499993 0.450212 -0.174169
C97   C     C_R   0.178916 0.499993 0.549788 -0.174170
C98   C     C_R   0.321084 0.999993 0.450212 -0.174169
C99   C     C_R   0.678916 0.999993 0.549789 -0.174170
C100  C     C_2   0.057386 0.234954 0.480570 0.597124
C101  C     C_R   0.389940 0.874628 0.539602 -0.071200
C102  C     C_2   0.946986 0.766313 0.505619 0.315893
C103  C     C_2   0.942614 0.234954 0.519432 0.597125
C104  C     C_2   0.053014 0.766313 0.494381 0.315894
C105  C     C_2   0.557384 0.734954 0.480574 0.597123
C106  C     C_2   0.446986 0.266313 0.505619 0.315895
C107  C     C_2   0.442613 0.734954 0.519435 0.597129
C108  C     C_2   0.553014 0.266313 0.494382 0.315894
C109  C     C_2   0.803371 0.500489 0.380109 0.503850
C110  C     C_2   0.196629 0.500489 0.619891 0.503851
C111  C     C_2   0.303372 0.000489 0.380109 0.503848
C112  C     C_R   0.299149 0.734504 0.322496 0.986891
C113  C     C_R   0.609276 0.125749 0.463015 0.002027
C114  C     C_2   0.696629 0.000489 0.619891 0.503852
C115  C     C_2   0.152546 0.338778 0.377502 0.460984
C116  C     C_2   0.849888 0.665364 0.617794 0.527111
C117  C     C_2   0.847453 0.338778 0.622498 0.460983
C118  C     C_2   0.150112 0.665364 0.382207 0.527111
C119  C     C_2   0.652545 0.838778 0.377504 0.460984
C120  C     C_2   0.349887 0.165365 0.617794 0.527112
C121  C     C_2   0.347452 0.838778 0.622499 0.460981
C122  C     C_2   0.650112 0.165364 0.382207 0.527110
C123  C     C_3   0.673200 0.441115 0.742977 0.093237
C124  C     C_R   0.703572 0.240443 0.971308 0.008507
C125  C     C_3   0.657171 0.506253 0.705909 -0.362946
C126  C     C_3   0.668495 0.494717 0.609177 -0.623240
C127  C     C_3   0.433016 0.747441 0.208261 0.091642
C128  C     C_3   0.452462 0.748692 0.278997 -0.321465
C129  C     C_3   0.487961 0.813886 0.267527 -0.898870
C130  C     C_3   0.326800 0.441115 0.257023 0.093237
C131  C     C_3   0.342829 0.506253 0.294091 -0.362947
C132  C     C_3   0.331505 0.494717 0.390823 -0.623243
C133  C     C_3   0.566982 0.747441 0.791745 0.091639
C134  C     C_3   0.547538 0.748698 0.721008 -0.321471
C135  C     C_R   0.268463 0.718439 0.056763 0.007520
C136  C     C_3   0.512031 0.813887 0.732489 -0.898872
C137  C     C_3   0.173200 0.941115 0.742977 0.093236
C138  C     C_3   0.157171 0.006253 0.705909 -0.362947
C139  C     C_3   0.168495 0.994717 0.609177 -0.623242
C140  C     C_3   0.933016 0.247442 0.208261 0.091642
C141  C     C_3   0.952462 0.248693 0.278997 -0.321465
C142  C     C_3   0.987961 0.313888 0.267527 -0.898875
C143  C     C_3   0.826800 0.941115 0.257023 0.093236
C144  C     C_3   0.842829 0.006253 0.294091 -0.362948
C145  C     C_3   0.831504 0.994718 0.390823 -0.623240
C146  C     C_R   0.296428 0.240443 0.028692 0.008507
C147  C     C_3   0.066984 0.247442 0.791740 0.091641
C148  C     C_3   0.047538 0.248694 0.721004 -0.321459
C149  C     C_3   0.012039 0.313889 0.732474 -0.898880
C150  C     C_2   0.542183 0.309105 0.109203 0.494453
C151  C     C_2   0.419606 0.656800 0.887289 0.460964
C152  C     C_2   0.457817 0.309105 0.890797 0.494453
C153  C     C_2   0.580396 0.656799 0.112711 0.460967
C154  C     C_2   0.042183 0.809105 0.109203 0.494453
C155  C     C_2   0.919605 0.156799 0.887289 0.460969
C156  C     C_2   0.957817 0.809105 0.890797 0.494454
C157  C     C_R   0.731537 0.718439 0.943236 0.007520
C158  C     C_2   0.080395 0.156799 0.112711 0.460968
C159  C     C_2   0.602599 0.297438 0.206662 0.353127
C160  C     C_2   0.322081 0.558981 0.907452 0.412436
C161  C     C_2   0.397401 0.297438 0.793338 0.353127
C162  C     C_2   0.677920 0.558979 0.092546 0.412437
C163  C     C_2   0.102599 0.797438 0.206662 0.353128
C164  C     C_2   0.822080 0.058980 0.907454 0.412436
C165  C     C_2   0.897401 0.797438 0.793338 0.353128
C166  C     C_2   0.177920 0.058979 0.092546 0.412437
C167  C     C_2   0.732354 0.124206 0.739261 0.553237
C168  C     C_R   0.203572 0.740444 0.971308 0.008507
C169  C     C_2   0.258350 0.869489 0.250562 0.501869
C170  C     C_2   0.267646 0.124206 0.260739 0.553239
C171  C     C_2   0.741650 0.869489 0.749438 0.501870
C172  C     C_2   0.232354 0.624206 0.739261 0.553238
C173  C     C_2   0.758350 0.369489 0.250562 0.501871
C174  C     C_2   0.767646 0.624206 0.260739 0.553238
C175  C     C_2   0.241650 0.369489 0.749438 0.501870
C176  C     C_R   0.768463 0.218439 0.056764 0.007520
C177  C     C_R   0.796428 0.740443 0.028691 0.008507
C178  C     C_R   0.231537 0.218439 0.943236 0.007520
C179  C     C_R   0.749021 0.194580 0.931422 0.033990
C180  C     C_R   0.298773 0.266675 0.322939 0.867275
C181  C     C_R   0.222431 0.763479 0.097183 0.111007
C182  C     C_R   0.250979 0.194580 0.068578 0.033989
C183  C     C_R   0.777569 0.763479 0.902816 0.111008
C184  C     C_R   0.249021 0.694581 0.931421 0.033989
C185  C     C_R   0.722431 0.263479 0.097184 0.111007
C186  C     C_R   0.750980 0.694580 0.068578 0.033990
C187  C     C_R   0.277569 0.263479 0.902816 0.111007
C188  C     C_R   0.778978 0.178936 0.978119 0.024377
C189  C     C_R   0.186103 0.767768 0.059388 0.050662
C190  C     C_R   0.221022 0.178936 0.021881 0.024377
C191  C     C_R   0.700851 0.734504 0.677504 0.986893
C192  C     C_R   0.813897 0.767767 0.940612 0.050662
C193  C     C_R   0.278979 0.678937 0.978118 0.024377
C194  C     C_R   0.686103 0.267767 0.059388 0.050662
C195  C     C_R   0.721022 0.678936 0.021881 0.024377
C196  C     C_R   0.313897 0.267767 0.940612 0.050662
C197  C     C_R   0.629933 0.304473 0.962172 0.005434
C198  C     C_R   0.351709 0.670271 0.052120 -0.102535
C199  C     C_R   0.370067 0.304473 0.037827 0.005433
C200  C     C_R   0.648292 0.670270 0.947879 -0.102535
C201  C     C_R   0.129933 0.804473 0.962172 0.005433
C202  C     C_R   0.201227 0.766675 0.677061 0.867274
C203  C     C_R   0.851708 0.170270 0.052120 -0.102536
C204  C     C_R   0.870067 0.804473 0.037827 0.005434
C205  C     C_R   0.148292 0.170270 0.947880 -0.102536
C206  C     C_R   0.613051 0.341235 0.904582 -0.184554
C207  C     C_R   0.383942 0.657135 0.096567 -0.239221
C208  C     C_R   0.386949 0.341235 0.095418 -0.184554
C209  C     C_R   0.616059 0.657135 0.903433 -0.239223
C210  C     C_R   0.113051 0.841236 0.904582 -0.184554
C211  C     C_R   0.883941 0.157135 0.096567 -0.239220
C212  C     C_R   0.886949 0.841235 0.095418 -0.184555
C213  C     C_R   0.799149 0.234504 0.322496 0.986890
C214  C     C_R   0.116059 0.157135 0.903433 -0.239220
C215  C     C_R   0.642045 0.332914 0.811639 0.389643
C216  C     C_R   0.371397 0.691313 0.177609 0.333356
C217  C     C_R   0.357955 0.332914 0.188361 0.389643
C218  C     C_R   0.628603 0.691313 0.822391 0.333356
C219  C     C_R   0.142045 0.832915 0.811639 0.389642
C220  C     C_R   0.871397 0.191313 0.177609 0.333356
C221  C     C_R   0.857955 0.832914 0.188361 0.389643
C222  C     C_R   0.128603 0.191313 0.822391 0.333356
C223  C     C_R   0.677218 0.275505 0.775523 -0.229182
C224  C     C_R   0.798773 0.766675 0.322939 0.867274
C225  C     C_R   0.322713 0.728350 0.223039 -0.188614
C226  C     C_R   0.322782 0.275505 0.224477 -0.229182
C227  C     C_R   0.677288 0.728350 0.776961 -0.188611
C228  C     C_R   0.177218 0.775505 0.775523 -0.229181
C229  C     C_R   0.822713 0.228350 0.223039 -0.188614
C230  C     C_R   0.822782 0.775505 0.224477 -0.229182
C231  C     C_R   0.177287 0.228350 0.776961 -0.188613
C232  C     C_R   0.695045 0.237671 0.831543 -0.089568
C233  C     C_R   0.292878 0.748004 0.176141 0.059813
C234  C     C_R   0.304955 0.237671 0.168457 -0.089568
C235  C     C_R   0.200851 0.234504 0.677504 0.986891
C236  C     C_R   0.707122 0.748003 0.823859 0.059812
C237  C     C_R   0.195045 0.737671 0.831542 -0.089568
C238  C     C_R   0.792878 0.248004 0.176141 0.059813
C239  C     C_R   0.804955 0.737671 0.168457 -0.089569
C240  C     C_R   0.207122 0.248003 0.823859 0.059814
C241  C     C_R   0.694185 0.128443 0.524200 0.898410
C242  C     C_R   0.305771 0.871525 0.475897 0.876952
C243  C     C_R   0.305815 0.128443 0.475800 0.898409
C244  C     C_R   0.694229 0.871525 0.524104 0.876951
C245  C     C_R   0.194185 0.628444 0.524200 0.898410
C246  C     C_R   0.899280 0.499918 0.506226 0.037713
C247  C     C_R   0.805771 0.371525 0.475897 0.876952
C248  C     C_R   0.805815 0.628444 0.475800 0.898409
C249  C     C_R   0.194229 0.371525 0.524103 0.876952
C250  C     C_R   0.676578 0.261414 0.921454 0.054493
C251  C     C_R   0.303769 0.711237 0.096104 0.057091
C252  C     C_R   0.323422 0.261414 0.078546 0.054493
C253  C     C_R   0.696231 0.711237 0.903895 0.057090
C254  C     C_R   0.176578 0.761414 0.921454 0.054493
C255  C     C_R   0.803769 0.211237 0.096104 0.057090
C256  C     C_R   0.823422 0.761413 0.078546 0.054494
H1    H     H_    0.798271 0.132652 0.810449 0.203541
H2    H     H_    0.953208 0.813637 0.536923 0.074731
H3    H     H_    0.140780 0.028335 0.128174 0.097813
H4    H     H_    0.699589 0.122148 0.722490 0.015134
H5    H     H_    0.224023 0.905503 0.283384 0.106718
H6    H     H_    0.300411 0.122148 0.277510 0.015134
H7    H     H_    0.775977 0.905503 0.716616 0.106717
H8    H     H_    0.199589 0.622148 0.722490 0.015134
H9    H     H_    0.724023 0.405503 0.283384 0.106718
H10   H     H_    0.800411 0.622149 0.277510 0.015134
H11   H     H_    0.275977 0.405503 0.716616 0.106718
H12   H     H_    0.914133 0.231174 0.493222 0.021986
H13   H     H_    0.046792 0.813637 0.463077 0.074731
H14   H     H_    0.585865 0.731174 0.506784 0.021988
H15   H     H_    0.453208 0.313637 0.536924 0.074731
H16   H     H_    0.414133 0.731173 0.493224 0.021985
H17   H     H_    0.546792 0.313637 0.463077 0.074731
H18   H     H_    0.833333 0.508105 0.309927 0.062455
H19   H     H_    0.166667 0.508105 0.690073 0.062456
H20   H     H_    0.333333 0.008105 0.309927 0.062456
H21   H     H_    0.190230 0.853904 0.187209 0.138214
H22   H     H_    0.666667 0.008105 0.690073 0.062455
H23   H     H_    0.195028 0.348092 0.356415 0.059300
H24   H     H_    0.860224 0.714552 0.639762 0.112191
H25   H     H_    0.804971 0.348092 0.643585 0.059302
H26   H     H_    0.139776 0.714552 0.360238 0.112191
H27   H     H_    0.695027 0.848091 0.356416 0.059304
H28   H     H_    0.360223 0.214552 0.639762 0.112191
H29   H     H_    0.304970 0.848092 0.643586 0.059301
H30   H     H_    0.639776 0.214551 0.360239 0.112191
H31   H     H_    0.715634 0.425311 0.695273 0.123412
H32   H     H_    0.201729 0.132652 0.189550 0.203541
H33   H     H_    0.671577 0.458100 0.807801 0.087300
H34   H     H_    0.613412 0.517047 0.747962 0.270932
H35   H     H_    0.680201 0.553902 0.708361 0.200524
H36   H     H_    0.712274 0.485532 0.566632 0.270789
H37   H     H_    0.656644 0.543176 0.584496 0.246437
H38   H     H_    0.645565 0.447888 0.604472 0.273006
H39   H     H_    0.407534 0.796134 0.219072 0.141373
H40   H     H_    0.468365 0.750216 0.139299 0.122417
H41   H     H_    0.416829 0.750123 0.347491 0.232931
H42   H     H_    0.475557 0.699138 0.273725 0.269519
H43   H     H_    0.809770 0.853904 0.812791 0.138214
H44   H     H_    0.523789 0.814100 0.199104 0.267762
H45   H     H_    0.502395 0.812084 0.318454 0.281412
H46   H     H_    0.464421 0.863999 0.277488 0.259817
H47   H     H_    0.284366 0.425311 0.304727 0.123412
H48   H     H_    0.328423 0.458100 0.192198 0.087300
H49   H     H_    0.386588 0.517047 0.252038 0.270932
H50   H     H_    0.319799 0.553902 0.291639 0.200525
H51   H     H_    0.287726 0.485532 0.433367 0.270790
H52   H     H_    0.343356 0.543176 0.415504 0.246436
H53   H     H_    0.354435 0.447888 0.395528 0.273007
H54   H     H_    0.298272 0.632653 0.810448 0.203541
H55   H     H_    0.592462 0.796135 0.780942 0.141369
H56   H     H_    0.531632 0.750211 0.860707 0.122421
H57   H     H_    0.583171 0.750139 0.652515 0.232928
H58   H     H_    0.524448 0.699141 0.726267 0.269523
H59   H     H_    0.476199 0.814083 0.800906 0.267767
H60   H     H_    0.497606 0.812094 0.681553 0.281408
H61   H     H_    0.535563 0.864003 0.722555 0.259818
H62   H     H_    0.215634 0.925311 0.695273 0.123412
H63   H     H_    0.171577 0.958100 0.807801 0.087301
H64   H     H_    0.113412 0.017047 0.747962 0.270932
H65   H     H_    0.690230 0.353904 0.187209 0.138213
H66   H     H_    0.180201 0.053902 0.708360 0.200525
H67   H     H_    0.212274 0.985532 0.566632 0.270790
H68   H     H_    0.156644 0.043176 0.584496 0.246436
H69   H     H_    0.145564 0.947888 0.604473 0.273006
H70   H     H_    0.907534 0.296134 0.219072 0.141374
H71   H     H_    0.968365 0.250216 0.139299 0.122417
H72   H     H_    0.916829 0.250123 0.347491 0.232931
H73   H     H_    0.975557 0.199139 0.273724 0.269519
H74   H     H_    0.023788 0.314102 0.199104 0.267763
H75   H     H_    0.002395 0.312085 0.318453 0.281412
H76   H     H_    0.701729 0.632651 0.189550 0.203541
H77   H     H_    0.964420 0.363999 0.277490 0.259819
H78   H     H_    0.784366 0.925311 0.304727 0.123412
H79   H     H_    0.828423 0.958100 0.192198 0.087300
H80   H     H_    0.886588 0.017047 0.252038 0.270932
H81   H     H_    0.819799 0.053902 0.291639 0.200525
H82   H     H_    0.787726 0.985532 0.433367 0.270789
H83   H     H_    0.843356 0.043176 0.415504 0.246436
H84   H     H_    0.854435 0.947889 0.395527 0.273006
H85   H     H_    0.092465 0.296135 0.780930 0.141375
H86   H     H_    0.031635 0.250215 0.860702 0.122416
H87   H     H_    0.309770 0.353904 0.812791 0.138214
H88   H     H_    0.083171 0.250124 0.652510 0.232930
H89   H     H_    0.024442 0.199140 0.726276 0.269519
H90   H     H_    0.976213 0.314105 0.800898 0.267762
H91   H     H_    0.997603 0.312086 0.681551 0.281414
H92   H     H_    0.035581 0.364000 0.722509 0.259819
H93   H     H_    0.520802 0.330699 0.177081 0.047775
H94   H     H_    0.450096 0.684417 0.897813 0.055424
H95   H     H_    0.479198 0.330699 0.822919 0.047776
H96   H     H_    0.549905 0.684418 0.102187 0.055423
H97   H     H_    0.020802 0.830699 0.177081 0.047776
H98   H     H_    0.085867 0.231174 0.506779 0.021988
H99   H     H_    0.950095 0.184418 0.897813 0.055423
H100  H     H_    0.979198 0.830699 0.822919 0.047776
H101  H     H_    0.049905 0.184418 0.102187 0.055424
H102  H     H_    0.576304 0.342314 0.241326 0.048675
H103  H     H_    0.359221 0.528337 0.871823 0.097813
H104  H     H_    0.423696 0.342314 0.758674 0.048675
H105  H     H_    0.640780 0.528335 0.128174 0.097812
H106  H     H_    0.076304 0.842314 0.241326 0.048674
H107  H     H_    0.859220 0.028336 0.871825 0.097813
H108  H     H_    0.923696 0.842314 0.758674 0.048674
O1    O     O_R   0.746490 0.236330 0.638080 -0.659233
O2    O     O_R   0.325830 0.813840 0.483730 -0.683766
O3    O     O_2   0.199371 0.384667 0.749447 -0.604425
O4    O     O_R   0.325830 0.186160 0.483730 -0.595015
O5    O     O_R   0.674170 0.813840 0.516270 -0.683769
O6    O     O_R   0.174170 0.686160 0.516270 -0.595014
O7    O     O_R   0.825830 0.313840 0.483730 -0.683766
O8    O     O_R   0.825830 0.686160 0.483730 -0.595015
O9    O     O_R   0.174170 0.313840 0.516270 -0.683766
O10   O     O_R   0.739960 0.127620 0.525000 -0.607423
O11   O     O_R   0.260040 0.872380 0.475000 -0.579501
O12   O     O_R   0.260040 0.127620 0.475000 -0.607423
O13   O     O_R   0.253510 0.763670 0.361920 -0.621727
O14   O     O_R   0.739960 0.872380 0.525000 -0.579502
O15   O     O_R   0.239960 0.627620 0.525000 -0.607424
O16   O     O_R   0.760040 0.372380 0.475000 -0.579502
O17   O     O_R   0.760040 0.627620 0.475000 -0.607423
O18   O     O_R   0.239960 0.372380 0.525000 -0.579502
O19   O     O_R   0.680700 0.294870 0.629350 -0.543193
O20   O     O_R   0.319300 0.705130 0.370650 -0.603527
O21   O     O_R   0.319300 0.294870 0.370650 -0.543193
O22   O     O_R   0.680700 0.705130 0.629350 -0.603525
O23   O     O_R   0.180700 0.794870 0.629350 -0.543193
O24   O     O_R   0.253510 0.236330 0.361920 -0.659233
O25   O     O_R   0.819300 0.205130 0.370650 -0.603527
O26   O     O_R   0.819300 0.794870 0.370650 -0.543193
O27   O     O_R   0.180700 0.205130 0.629350 -0.603527
O28   O     O_R   0.062020 0.072840 0.007170 -0.649746
O29   O     O_R   0.937980 0.927160 0.992830 -0.667028
O30   O     O_R   0.937980 0.072840 0.992830 -0.649747
O31   O     O_R   0.062020 0.927160 0.007170 -0.667028
O32   O     O_R   0.562020 0.572840 0.007170 -0.649746
O33   O     O_R   0.437980 0.427160 0.992830 -0.667028
O34   O     O_R   0.437980 0.572840 0.992830 -0.649747
O35   O     O_R   0.746490 0.763670 0.638080 -0.621728
O36   O     O_R   0.562020 0.427160 0.007170 -0.667028
O37   O     O_R   0.947860 0.073950 0.109290 -0.587503
O38   O     O_R   0.052140 0.926050 0.890710 -0.576120
O39   O     O_R   0.052140 0.073950 0.890710 -0.587503
O40   O     O_R   0.947860 0.926050 0.109290 -0.576120
O41   O     O_R   0.447860 0.573950 0.109290 -0.587503
O42   O     O_R   0.552140 0.426050 0.890710 -0.576120
O43   O     O_R   0.552140 0.573950 0.890710 -0.587504
O44   O     O_R   0.447860 0.426050 0.109290 -0.576120
O45   O     O_2   0.052834 0.184066 0.439102 -0.504305
O46   O     O_R   0.246490 0.736330 0.638080 -0.659234
O47   O     O_2   0.919212 0.771486 0.467974 -0.557029
O48   O     O_2   0.947165 0.184066 0.560901 -0.504304
O49   O     O_2   0.080788 0.771486 0.532026 -0.557029
O50   O     O_2   0.552833 0.684066 0.439107 -0.504308
O51   O     O_2   0.419211 0.271486 0.467975 -0.557030
O52   O     O_2   0.447163 0.684067 0.560905 -0.504302
O53   O     O_2   0.580788 0.271486 0.532027 -0.557029
O54   O     O_2   0.755767 0.493895 0.400158 -0.505614
O55   O     O_2   0.244233 0.493895 0.599842 -0.505614
O56   O     O_2   0.255767 0.993895 0.400158 -0.505614
O57   O     O_R   0.753510 0.263670 0.361920 -0.621727
O58   O     O_2   0.744233 0.993895 0.599842 -0.505615
O59   O     O_2   0.141041 0.302887 0.328394 -0.561372
O60   O     O_2   0.804213 0.641498 0.663010 -0.609578
O61   O     O_2   0.858958 0.302889 0.671608 -0.561371
O62   O     O_2   0.195786 0.641498 0.336990 -0.609578
O63   O     O_2   0.641040 0.802888 0.328396 -0.561371
O64   O     O_2   0.304213 0.141498 0.663010 -0.609579
O65   O     O_2   0.358957 0.802889 0.671609 -0.561369
O66   O     O_2   0.695786 0.141497 0.336991 -0.609577
O67   O     O_3   0.637388 0.383570 0.755215 -0.583797
O68   O     O_R   0.753510 0.736330 0.361920 -0.659233
O69   O     O_3   0.404584 0.682770 0.216980 -0.616187
O70   O     O_3   0.362611 0.383570 0.244785 -0.583798
O71   O     O_3   0.595416 0.682771 0.783020 -0.616184
O72   O     O_3   0.137388 0.883570 0.755215 -0.583797
O73   O     O_3   0.904584 0.182771 0.216980 -0.616186
O74   O     O_3   0.862611 0.883570 0.244785 -0.583797
O75   O     O_3   0.095416 0.182771 0.783020 -0.616186
O76   O     O_2   0.515546 0.283837 0.076061 -0.538385
O77   O     O_2   0.430795 0.637626 0.810956 -0.583843
O78   O     O_2   0.484454 0.283837 0.923939 -0.538386
O79   O     O_R   0.246490 0.263670 0.638080 -0.621727
O80   O     O_2   0.569207 0.637624 0.189043 -0.583851
O81   O     O_2   0.015546 0.783837 0.076061 -0.538386
O82   O     O_2   0.930794 0.137625 0.810957 -0.583849
O83   O     O_2   0.984454 0.783837 0.923939 -0.538386
O84   O     O_2   0.069206 0.137624 0.189043 -0.583850
O85   O     O_2   0.606157 0.248141 0.251109 -0.585376
O86   O     O_2   0.279406 0.531545 0.920852 -0.571648
O87   O     O_2   0.393843 0.248140 0.748891 -0.585377
O88   O     O_2   0.720595 0.531544 0.079146 -0.571647
O89   O     O_2   0.106157 0.748140 0.251108 -0.585376
O90   O     O_R   0.674170 0.186160 0.516270 -0.595015
O91   O     O_2   0.779405 0.031544 0.920854 -0.571648
O92   O     O_2   0.893843 0.748140 0.748891 -0.585376
O93   O     O_2   0.220595 0.031544 0.079146 -0.571647
O94   O     O_2   0.768560 0.079765 0.706635 -0.533483
O95   O     O_2   0.300629 0.884667 0.250553 -0.604423
O96   O     O_2   0.231440 0.079765 0.293365 -0.533483
O97   O     O_2   0.699371 0.884666 0.749447 -0.604424
O98   O     O_2   0.268560 0.579765 0.706635 -0.533483
O99   O     O_2   0.800629 0.384667 0.250553 -0.604424
O100  O     O_2   0.731440 0.579765 0.293365 -0.533483
Zn1   Zn    Zn3+2 0.792340 0.208750 0.507670 1.000202
Zn2   Zn    Zn3+2 0.494040 0.500000 0.919480 0.985290
Zn3   Zn    Zn3+2 0.005960 0.000000 0.080520 0.985291
Zn4   Zn    Zn3+2 0.994040 0.000000 0.919480 0.985290
Zn5   Zn    Zn3+2 0.207660 0.791250 0.492330 1.071141
Zn6   Zn    Zn3+2 0.207660 0.208750 0.492330 1.000202
Zn7   Zn    Zn3+2 0.792340 0.791250 0.507670 1.071141
Zn8   Zn    Zn3+2 0.292340 0.708750 0.507670 1.000201
Zn9   Zn    Zn3+2 0.707660 0.291250 0.492330 1.071141
Zn10  Zn    Zn3+2 0.707660 0.708750 0.492330 1.000205
Zn11  Zn    Zn3+2 0.292340 0.291250 0.507670 1.071141
Zn12  Zn    Zn3+2 0.505960 0.500000 0.080520 0.985290

loop_
_geom_bond_atom_site_label_1
_geom_bond_atom_site_label_2
_ccdc_geom_bond_type
C141  H72   S    
C130  H47   S    
C30   H1    S    
O5    Zn10  S    
C151  H94   S    
C245  O15   A    
O79   Zn11  S    
C202  O23   A    
O18   Zn11  S    
C211  C220  A    
C161  O87   D    
O10   Zn1   S    
C50   C59   A    
C155  O82   D    
C118  H26   S    
C52   C61   A    
C72   C75   A    
C54   C63   A    
C58   C60   A    
C143  C144  S    
C42   O38   A    
C208  C217  A    
C43   O43   A    
C243  O12   A    
C61   C63   A    
C104  H13   S    
C62   C64   A    
C214  C222  A    
C91   C96   A    
C23   C234  A    
C198  C251  A    
C50   C90   A    
C113  C122  S    
C149  H92   S    
C70   C74   A    
C123  O67   S    
C110  O55   D    
C47   O42   A    
C35   C115  S    
C236  C253  A    
C4    C12   A    
C24   C85   A    
C134  H58   S    
C88   C97   A    
C217  C226  A    
C219  O72   S    
C25   C171  S    
C172  O98   D    
C26   C172  S    
C112  O13   A    
C49   C69   A    
C31   C181  A    
O6    Zn5   S    
C197  C206  A    
C29   C175  S    
C176  C188  A    
C203  C255  A    
C129  H46   S    
C143  H78   S    
C237  C254  A    
C128  H41   S    
C61   C104  S    
C140  C141  S    
C108  H17   S    
C86   C90   A    
O40   Zn3   S    
C71   C73   A    
C119  H27   S    
C179  C188  A    
C16   C162  S    
C177  C186  A    
C51   C66   A    
C172  H8    S    
C52   C72   A    
O28   Zn3   S    
C242  O11   A    
C54   C70   A    
C168  C254  A    
C204  C212  A    
C169  H5    S    
C107  O52   D    
C171  H7    S    
C15   C196  A    
C131  H50   S    
C205  C214  A    
C138  H66   S    
O90   Zn9   S    
C118  O62   D    
C132  H51   S    
C234  C252  A    
O42   Zn2   S    
C79   C85   A    
C213  C229  S    
C223  C232  A    
O19   Zn9   S    
C127  H39   S    
C105  H14   S    
C66   C77   A    
C40   C212  S    
C91   C248  S    
C144  H81   S    
C107  H16   S    
C157  C195  A    
C57   C78   A    
C15   C161  S    
C8    C17   A    
C213  O25   A    
C144  C145  S    
C144  H80   S    
C34   H54   S    
C171  O97   D    
C4    C150  S    
C96   C109  S    
C200  C209  A    
C5    C151  S    
C56   C59   A    
C1    C223  S    
C130  C131  S    
C24   C84   A    
C216  O69   S    
C80   C88   A    
C16   C195  A    
C20   C190  A    
C26   C237  A    
C74   C246  A    
O44   Zn12  S    
C207  C216  A    
O4    Zn11  S    
C84   C93   A    
C12   C159  S    
O9    Zn6   S    
C43   C209  S    
C86   C95   A    
C40   O40   A    
C33   H43   S    
C24   C77   A    
C139  H68   S    
C124  C194  A    
C140  H70   S    
C120  O64   D    
C2    C81   A    
C235  O27   A    
C19   C165  S    
O33   Zn2   S    
C138  H64   S    
C2    C75   A    
C184  C193  A    
C27   C238  A    
O13   Zn5   S    
C126  H38   S    
C78   C87   A    
C148  H89   S    
C147  C148  S    
C67   C77   A    
C40   O29   A    
C99   C114  S    
C173  O99   D    
C220  C229  A    
C175  O3    D    
C37   H76   S    
C28   C239  A    
C6    C199  A    
C204  C256  A    
O12   Zn6   S    
C201  C254  A    
O14   Zn7   S    
C69   C76   A    
C159  O85   D    
C58   C107  S    
C85   C94   A    
C147  O75   S    
C151  O77   D    
C56   C108  S    
C124  C250  A    
C68   C118  S    
C42   O31   A    
C46   C82   A    
C1    O19   A    
C221  C230  A    
C153  O80   D    
C132  H53   S    
C161  H104  S    
C133  H56   S    
C140  O73   S    
C3    C240  A    
C242  O2    A    
C106  H15   S    
C48   C67   A    
O15   Zn8   S    
C87   C96   A    
C203  C211  A    
C230  C239  A    
C137  O72   S    
C181  C189  A    
C63   C102  S    
C142  H74   S    
C45   O41   A    
C136  H59   S    
C112  O20   A    
C82   C246  A    
C3    C205  A    
C116  H24   S    
C41   O37   A    
C145  H82   S    
C162  O88   D    
C202  C228  S    
O31   Zn3   S    
C21   C232  A    
C102  O47   D    
C143  H79   S    
O26   Zn7   S    
C102  H2    S    
C231  C240  A    
O41   Zn12  S    
C90   C120  S    
C100  O45   D    
C64   C100  S    
C111  H20   S    
C125  H35   S    
C126  H36   S    
O11   Zn5   S    
O24   Zn6   S    
C135  C181  A    
O35   Zn7   S    
C108  O53   D    
C112  C225  S    
C83   C101  A    
C130  H48   S    
C198  C207  A    
C133  O71   S    
C135  C251  A    
C32   H32   S    
C182  C190  A    
C226  C234  A    
C238  C255  A    
C170  H6    S    
C6    C152  S    
C93   C241  S    
C176  C255  A    
C174  O100  D    
C28   C174  S    
C28   C37   A    
C47   O36   A    
C180  C226  S    
C199  C208  A    
C78   C246  A    
C114  O58   D    
C50   C65   A    
C51   C79   A    
C110  H19   S    
C235  O79   A    
C9    C18   A    
C9    C155  S    
C149  H91   S    
C191  O22   A    
C127  H40   S    
C231  C235  S    
C51   C60   A    
C11   C205  A    
C247  O16   A    
C106  O51   D    
C25   C33   A    
C206  C215  A    
C139  H69   S    
C158  O84   D    
C187  C196  A    
C169  O95   D    
C73   C74   A    
C185  C194  A    
C145  H84   S    
C183  C192  A    
C173  H9    S    
C133  C134  S    
C176  C185  A    
C227  C236  A    
C129  H45   S    
C65   C76   A    
C89   C249  S    
C148  H88   S    
C158  H101  S    
C8    C201  A    
C3    C178  A    
O36   Zn12  S    
C49   C101  A    
C45   O34   A    
C178  C190  A    
C19   C192  A    
C123  C125  S    
C154  H97   S    
C115  O59   D    
C180  O24   A    
C160  O86   D    
C36   C185  A    
C7    C200  A    
C89   C97   A    
C244  O5    A    
C124  C179  A    
C224  O26   A    
C17   C163  S    
C18   C164  S    
O32   Zn12  S    
C25   C236  A    
C65   C67   A    
C79   C119  S    
C93   C99   A    
C29   C240  A    
C46   C54   A    
C42   C210  S    
C147  H86   S    
C81   C89   A    
C249  O9    A    
C131  H49   S    
C177  C192  A    
C217  O70   S    
C128  C129  S    
C27   C173  S    
C244  O14   A    
C132  H52   S    
O1    Zn1   S    
O39   Zn4   S    
C11   C20   A    
C149  H90   S    
C222  O75   S    
C146  C182  A    
O29   Zn4   S    
C59   C106  S    
C103  O48   D    
C43   O32   A    
O46   Zn8   S    
C142  H77   S    
C39   O39   A    
C53   C57   A    
C218  O71   S    
C247  O7    A    
C101  C121  S    
C168  C189  A    
C119  O63   D    
O2    Zn8   S    
C224  C230  S    
C22   C233  A    
C215  O67   S    
C37   C186  A    
C10   C19   A    
C213  O57   A    
C156  H100  S    
C121  H29   S    
C103  H12   S    
C164  H107  S    
C134  H57   S    
C5    C14   A    
C44   O44   A    
C123  H31   S    
C178  C187  A    
C7    C16   A    
C14   C193  A    
C248  O8    A    
C243  O4    A    
C150  O76   D    
C167  H4    S    
C175  H11   S    
C127  C128  S    
C159  H102  S    
C218  C227  A    
C233  C251  A    
C57   C117  S    
C152  H95   S    
C115  H23   S    
C177  C256  A    
C191  O35   A    
O16   Zn9   S    
C47   C206  S    
C121  O65   D    
C44   O33   A    
C27   C36   A    
C20   C166  S    
C21   C30   A    
C13   C83   A    
C170  O96   D    
C216  C225  A    
C21   C167  S    
C164  O91   D    
C46   C116  S    
C225  C233  A    
C23   C32   A    
C160  H103  S    
C228  C237  A    
C197  C250  A    
O30   Zn4   S    
C39   O28   A    
C117  H25   S    
C123  H33   S    
C22   C169  S    
C138  C139  S    
C82   C91   A    
C66   C69   A    
C120  H28   S    
C165  O92   D    
C146  C252  A    
C239  C256  A    
C157  C183  A    
C229  C238  A    
C162  H105  S    
C133  H55   S    
C241  O10   A    
C11   C158  S    
C48   C113  A    
O37   Zn3   S    
C68   C80   A    
C71   C75   A    
C241  O90   A    
C84   C113  A    
O43   Zn2   S    
O23   Zn5   S    
O25   Zn1   S    
C105  O50   D    
C142  H75   S    
C18   C188  A    
C35   C81   A    
C95   C98   A    
C92   C98   A    
C249  O18   A    
C163  H106  S    
C136  H60   S    
C83   C92   A    
C41   O30   A    
C209  C218  A    
C94   C99   A    
C32   C182  A    
C154  O81   D    
O27   Zn6   S    
C38   C187  A    
C44   C208  S    
C153  H96   S    
O22   Zn10  S    
C94   C244  S    
C9    C203  A    
C88   C245  S    
C92   C242  S    
C26   C34   A    
C111  O56   D    
C168  C184  A    
C13   C86   A    
C33   C183  A    
C30   C179  A    
C87   C247  S    
C55   C71   A    
C8    C154  S    
C104  O49   D    
C125  H34   S    
C52   C68   A    
O57   Zn9   S    
C200  C253  A    
C174  H10   S    
C126  H37   S    
O17   Zn10  S    
C6    C15   A    
C45   C207  S    
O68   Zn10  S    
C155  H99   S    
O8    Zn7   S    
C212  C221  A    
C22   C31   A    
O7    Zn1   S    
C35   C55   A    
C156  O83   D    
C117  O61   D    
C186  C195  A    
C148  C149  S    
C163  O89   D    
C10   C156  S    
C116  O60   D    
C134  C136  S    
C224  O68   A    
C17   C189  A    
C49   C58   A    
C14   C160  S    
C41   C211  S    
C29   C38   A    
C157  C253  A    
C135  C193  A    
C53   C62   A    
C199  C252  A    
C7    C153  S    
C13   C76   A    
C136  H61   S    
C55   C64   A    
C34   C184  A    
O20   Zn8   S    
C4    C197  A    
C222  C231  A    
C109  O54   D    
C219  C228  A    
C220  O73   S    
C232  C250  A    
C146  C196  A    
C137  H62   S    
C201  C210  A    
C165  H108  S    
C62   C103  S    
C167  O94   D    
C48   C56   A    
C248  O17   A    
C191  C227  S    
C98   C111  S    
C130  O70   S    
C39   C214  S    
C1    O1    A    
C12   C194  A    
C53   C73   A    
C109  H18   S    
C139  H67   S    
C145  H83   S    
C215  C223  A    
O38   Zn4   S    
C128  H42   S    
C5    C198  A    
C137  C138  S    
C38   H87   S    
C129  H44   S    
C166  H3    S    
C122  H30   S    
O21   Zn11  S    
C137  H63   S    
C141  C142  S    
C245  O6    A    
C221  O74   S    
C100  H98   S    
C97   C110  S    
C125  C126  S    
C23   C170  S    
C210  C219  A    
C180  O21   A    
C140  H71   S    
C141  H73   S    
C31   H21   S    
C150  H93   S    
C2    C80   A    
C114  H22   S    
C127  O69   S    
C143  O74   S    
C202  O46   A    
C152  O78   D    
O34   Zn2   S    
C36   H65   S    
C70   C72   A    
C122  O66   D    
C10   C204  A    
C60   C105  S    
C131  C132  S    
C95   C243  S    
C147  H85   S    
C166  O93   D    
