data_mof_unit_45858.cif
_audit_creation_date              2013-03-05T15:47:56-0500
_audit_creation_method            fapswitch 2.2
_symmetry_space_group_name_H-M    P1
_symmetry_Int_Tables_number       1
_space_group_crystal_system       triclinic
_cell_length_a                    11.665079
_cell_length_b                    13.021295
_cell_length_c                    13.480237
_cell_angle_alpha                 92.355025
_cell_angle_beta                  76.633705
_cell_angle_gamma                 99.693943
_cell_volume                      1963.65863282

loop_
_atom_site_label
_atom_site_type_symbol
_atom_site_description
_atom_site_fract_x
_atom_site_fract_y
_atom_site_fract_z
_atom_type_partial_charge
O1    O     O_R   0.419710 0.645650 0.494620 -0.594151
O2    O     O_R   0.611450 0.658430 0.507430 -0.580312
C1    C     C_R   0.521860 0.700717 0.497209 0.861271
O3    O     O_R   0.357340 0.490460 0.641450 -0.581628
O4    O     O_R   0.549080 0.503250 0.654260 -0.585132
C2    C     C_R   0.436291 0.494526 0.695473 0.870919
Cu1   Cu    Cu3+1 0.386470 0.492430 0.492410 0.991619
Cu2   Cu    Cu3+1 0.613530 0.507570 0.507590 0.970102
O5    O     O_R   0.388550 0.341570 0.492570 -0.594536
O6    O     O_R   0.580290 0.354350 0.505380 -0.598990
O7    O     O_R   0.450920 0.496750 0.345740 -0.532922
O8    O     O_R   0.642660 0.509540 0.358550 -0.596375
C3    C     C_R   0.479695 0.299410 0.496979 0.843447
C4    C     C_R   0.563147 0.501944 0.304104 0.837451
C5    C     C_R   0.720070 0.614977 0.050976 -0.151460
H1    H     H_    0.766024 0.611254 0.194773 0.180116
H2    H     H_    0.705571 0.704957 0.885208 0.186300
H3    H     H_    0.795629 0.675197 0.022386 0.156525
C6    C     C_R   0.599365 0.510251 0.192564 -0.147672
C7    C     C_R   0.311127 0.382955 0.831836 -0.197676
C8    C     C_R   0.308381 0.326613 0.917419 -0.137200
C9    C     C_R   0.389097 0.360090 0.977831 -0.059786
C10   C     C_R   0.463889 0.458426 0.962214 0.051869
C11   C     C_R   0.468594 0.515339 0.873012 -0.030130
C12   C     C_R   0.539089 0.499200 0.029175 -0.031208
C13   C     C_R   0.634727 0.581430 0.993680 0.048789
C14   C     C_R   0.638721 0.636040 0.905889 -0.265842
C15   C     C_R   0.549005 0.610927 0.851958 0.321818
C16   C     C_R   0.518842 0.466709 0.132103 0.302343
C17   C     C_R   0.703643 0.577996 0.149158 -0.247790
C18   C     C_R   0.397595 0.471731 0.804484 -0.055035
H4    H     H_    0.256003 0.349536 0.780210 0.155260
H5    H     H_    0.394724 0.305322 0.033534 0.187116
H6    H     H_    0.249460 0.252557 0.932748 0.160074
C19   C     C_R   0.469313 0.186693 0.489395 -0.110409
C20   C     C_R   0.533633 0.814083 0.493315 -0.114434
C21   C     C_R   0.630700 0.982033 0.539181 -0.159878
C22   C     C_R   0.623275 0.874954 0.533265 -0.138555
C23   C     C_R   0.454143 0.862278 0.452739 0.190898
C24   C     C_R   0.453454 0.969904 0.468334 0.014240
C25   C     C_R   0.545812 0.029702 0.508838 0.074414
C26   C     C_R   0.553440 0.137156 0.518086 -0.240073
C27   C     C_R   0.375411 0.128585 0.452914 -0.228326
C28   C     C_R   0.365054 0.020718 0.443536 0.353198
H7    H     H_    0.625031 0.182332 0.548037 0.162961
H8    H     H_    0.308158 0.166872 0.433105 0.196920
H9    H     H_    0.701386 0.027486 0.569925 0.155703
H10   H     H_    0.687876 0.839700 0.560481 0.203568
N1    N     N_R   0.215880 0.481050 0.481000 -0.204747
N2    N     N_R   0.784100 0.518950 0.519000 -0.192108
C29   C     C_R   0.949135 0.605031 0.586974 -0.287329
C30   C     C_R   0.829319 0.593607 0.579970 0.093483
C31   C     C_R   0.855255 0.453333 0.463748 0.037200
C32   C     C_R   0.976258 0.461498 0.468826 0.047625
C33   C     C_R   0.023830 0.538755 0.530980 0.066784
C34   C     C_R   0.145004 0.547224 0.535647 0.022570
C35   C     C_R   0.169988 0.405103 0.421611 0.165517
C36   C     C_R   0.050520 0.394372 0.413831 -0.295565
H11   H     H_    0.182541 0.606067 0.583503 0.144674
H12   H     H_    0.225940 0.351933 0.380403 0.188140
H13   H     H_    0.982938 0.665187 0.635680 0.163673
H14   H     H_    0.016434 0.333647 0.365808 0.160216
H15   H     H_    0.772526 0.645098 0.623087 0.171567
H16   H     H_    0.817912 0.394851 0.415462 0.128507
N3    N     N_R   0.259469 0.964681 0.416958 0.139296
O9    O     O_R   0.186348 0.898693 0.481460 -0.366982
O10   O     O_R   0.223745 0.995455 0.340250 -0.333253
N4    N     N_2   0.384591 0.806461 0.387587 -0.388844
H17   H     H_    0.316300 0.749050 0.421294 0.300837
C37   C     C_3   0.450795 0.780864 0.287593 -0.577141
H18   H     H_    0.387495 0.746085 0.240558 0.248529
H19   H     H_    0.509723 0.723829 0.293410 0.192481
H20   H     H_    0.505700 0.852414 0.248921 0.230298
N5    N     N_R   0.409080 0.402519 0.180493 0.089941
O11   O     O_R   0.411136 0.316830 0.226088 -0.401618
O12   O     O_R   0.307561 0.433920 0.185955 -0.370861
N6    N     N_R   0.535318 0.686674 0.782348 0.113433
O13   O     O_R   0.428946 0.700273 0.776812 -0.371486
O14   O     O_R   0.625986 0.756222 0.741394 -0.412236

loop_
_geom_bond_atom_site_label_1
_geom_bond_atom_site_label_2
_geom_bond_distance
_ccdc_geom_bond_type
C36   H14   1.083270 S    
C5    H3    1.084110 S    
C33   C34   1.414976 A    
C25   C26   1.389274 A    
C29   H13   1.083307 S    
Cu1   Cu2   2.677244 S    
N6    O13   1.301731 A    
Cu1   O7    1.945542 S    
C13   C14   1.393149 A    
N5    O12   1.302026 A    
C3    C19   1.453570 S    
C32   C36   1.403143 A    
O4    C2    1.292088 A    
C31   H16   1.082579 S    
H1    C17   1.083516 S    
N1    C35   1.363917 A    
C23   N4    1.426973 S    
C19   C26   1.392071 A    
O5    C3    1.289883 A    
N4    H17   1.029521 S    
N3    O10   1.301153 A    
N2    C30   1.364132 A    
C10   C11   1.423786 A    
C37   H18   1.110208 S    
C21   H9    1.084172 S    
C19   C27   1.397700 A    
C22   H10   1.082299 S    
C2    C18   1.461279 S    
C8    C9    1.388121 A    
C28   N3    1.434451 S    
O3    Cu1   1.959142 S    
N6    O14   1.300795 A    
C12   C16   1.422317 A    
N2    C31   1.369097 A    
N5    O11   1.302114 A    
C29   C30   1.405116 A    
H2    C14   1.084213 S    
Cu1   N1    2.011427 S    
O3    C2    1.292992 A    
C23   C24   1.409631 A    
C5    C13   1.399911 A    
C16   N5    1.435881 S    
C12   C13   1.418828 A    
C31   C32   1.414878 A    
C30   H15   1.079731 S    
O1    C1    1.290218 A    
C26   H7    1.085071 S    
C27   C28   1.392374 A    
C21   C22   1.382506 A    
Cu2   O8    1.959143 S    
C37   H20   1.111110 S    
C15   N6    1.441250 S    
Cu2   O6    1.967660 S    
C24   C25   1.421142 A    
O8    C4    1.298713 A    
C6    C16   1.415858 A    
Cu2   N2    2.011195 S    
C5    C17   1.387210 A    
C7    H4    1.083954 S    
Cu1   O5    1.968721 S    
C9    H5    1.076714 S    
C32   C33   1.407003 A    
O1    Cu1   1.967658 S    
C4    C6    1.468070 S    
C20   C23   1.418283 A    
O2    Cu2   1.968718 S    
C11   C15   1.422104 A    
C35   H12   1.080215 S    
O6    C3    1.293696 A    
O4    Cu2   1.945542 S    
C8    H6    1.082821 S    
N1    C34   1.369246 A    
C34   H11   1.082577 S    
C20   C22   1.399239 A    
O2    C1    1.296525 A    
C11   C18   1.419134 A    
C35   C36   1.404800 A    
C1    C20   1.461322 S    
O7    C4    1.291127 A    
C29   C33   1.403342 A    
C10   C12   1.426896 A    
C21   C25   1.395805 A    
C27   H8    1.083892 S    
C24   C28   1.421361 A    
C7    C8    1.383758 A    
N4    C37   1.446688 S    
N3    O9    1.301378 A    
C14   C15   1.395609 A    
C9    C10   1.416364 A    
C37   H19   1.109889 S    
C6    C17   1.397190 A    
C7    C18   1.400010 A    
