data_mof_unit_53183.cif
_audit_creation_date              2012-10-26T20:13:56-0400
_audit_creation_method            fapswitch 2.2
_symmetry_space_group_name_H-M    P1
_symmetry_Int_Tables_number       1
_space_group_crystal_system       triclinic
_cell_length_a                    8.784053
_cell_length_b                    10.906105
_cell_length_c                    9.604043
_cell_angle_alpha                 91.164237
_cell_angle_beta                  97.974896
_cell_angle_gamma                 92.045175
_cell_volume                      910.290167716

loop_
_atom_site_label
_atom_site_type_symbol
_atom_type_description
_atom_site_fract_x
_atom_site_fract_y
_atom_site_fract_z
_atom_type_partial_charge
C1    C     C_R   0.497098 0.262436 0.497735 0.540789
C2    C     C_R   0.631293 0.529218 0.943924 0.169795
C3    C     C_3   0.733992 0.640988 0.949926 0.105879
C4    C     C_R   0.204335 0.494416 0.463788 0.536440
C5    C     C_3   0.727467 0.649028 0.108292 0.124476
C6    C     C_R   0.497634 0.737529 0.500780 0.557857
C7    C     C_R   0.795704 0.498355 0.535626 0.557435
C8    C     C_2   0.039345 0.477150 0.443838 -0.068041
C9    C     C_2   0.961768 0.501524 0.552377 -0.129341
C10   C     C_R   0.467576 0.067145 0.615202 -0.039566
C11   C     C_R   0.481985 0.128691 0.491416 -0.015248
C12   C     C_R   0.473939 0.930194 0.369909 -0.126293
C13   C     C_R   0.479282 0.057959 0.365131 -0.033419
C14   C     C_1   0.966837 0.423727 0.310082 0.239840
C15   C     C_1   0.498807 0.110224 0.231437 0.283967
C16   C     C_1   0.732059 0.911188 0.757964 0.237834
C17   C     C_1   0.278708 0.358346 0.113405 0.344019
C18   C     C_R   0.483831 0.870393 0.498711 -0.025024
C19   C     C_R   0.473102 0.940678 0.620060 0.014182
C20   C     C_3   0.572974 0.949171 0.760825 0.204682
C21   C     C_3   0.560167 0.087403 0.756658 -0.155069
C22   C     C_R   0.629242 0.533418 0.089820 0.135426
C23   C     C_R   0.384643 0.441970 0.058847 0.117903
C24   C     C_R   0.381756 0.444656 0.910294 0.313322
Cu1   Cu    Cu3+1 0.499990 0.499980 0.640670 0.998361
Cu2   Cu    Cu3+1 0.500010 0.500020 0.359330 1.020094
H1    H     H_    0.681112 0.715193 0.886706 0.165087
H2    H     H_    0.454534 0.818622 0.836982 0.327868
H3    H     H_    0.839754 0.638617 0.175182 0.178675
H4    H     H_    0.021723 0.531535 0.654736 0.187570
H5    H     H_    0.471420 0.878065 0.272729 0.189671
H6    H     H_    0.489275 0.125389 0.833372 0.195459
H7    H     H_    0.670402 0.140012 0.752450 0.131613
H8    H     H_    0.301465 0.338622 0.754270 0.363212
H9    H     H_    0.944271 0.688612 0.935859 0.344212
H10   H     H_    0.546801 0.751112 0.090714 0.335515
N1    N     N_R   0.500980 0.500930 0.148050 -0.294915
N2    N     N_R   0.500990 0.500890 0.852140 -0.284459
N3    N     N_1   0.907809 0.380667 0.204241 -0.235288
N4    N     N_1   0.516164 0.150831 0.124131 -0.264090
N5    N     N_1   0.857017 0.882184 0.754822 -0.293630
N6    N     N_1   0.195932 0.287801 0.155392 -0.249927
O1    O     O_R   0.500000 0.319640 0.618810 -0.537138
O2    O     O_3   0.879977 0.611698 0.919438 -0.678592
O3    O     O_3   0.650036 0.751791 0.148078 -0.681390
O4    O     O_3   0.503122 0.899218 0.870951 -0.694183
O5    O     O_R   0.500020 0.319680 0.381230 -0.496168
O6    O     O_R   0.274830 0.499980 0.591380 -0.491956
O7    O     O_R   0.274850 0.500020 0.353800 -0.507436
O8    O     O_R   0.499980 0.680320 0.618770 -0.523374
O9    O     O_R   0.500000 0.680360 0.381190 -0.470152
O10   O     O_R   0.725150 0.499980 0.646200 -0.448911
O11   O     O_R   0.725170 0.500020 0.408620 -0.495717
O12   O     O_3   0.259586 0.385048 0.828304 -0.681856

loop_
_geom_bond_atom_site_label_1
_geom_bond_atom_site_label_2
_ccdc_geom_bond_type
C2    C22   A    
C24   N2    A    
C23   C24   A    
Cu2   N1    S    
Cu1   N2    S    
C2    N2    A    
C19   C20   S    
C1    C11   S    
C4    C8    S    
C10   C19   A    
C16   C20   S    
C15   N4    T    
Cu1   O1    S    
C3    H1    S    
C2    C3    S    
Cu1   Cu2   S    
Cu1   O10   S    
H10   O3    S    
C10   C21   S    
C23   N1    A    
Cu2   O9    S    
C20   C21   S    
H9    O2    S    
C11   C13   A    
Cu1   O6    S    
H2    O4    S    
C17   C23   S    
C9    H4    S    
C4    O7    A    
C6    C18   S    
Cu2   O5    S    
C7    O10   A    
H8    O12   S    
C5    H3    S    
C13   C15   S    
C12   H5    S    
C6    O9    A    
C21   H6    S    
C20   O4    S    
C3    O2    S    
C21   H7    S    
C10   C11   A    
C7    O11   A    
C24   O12   S    
Cu2   O11   S    
C12   C13   A    
C18   C19   A    
C4    O6    A    
Cu2   O7    S    
C12   C18   A    
C7    C9    S    
C17   N6    T    
C1    O5    A    
C8    C14   S    
C14   N3    T    
Cu1   O8    S    
C22   N1    A    
C5    O3    S    
C16   N5    T    
C1    O1    A    
C6    O8    A    
C5    C22   S    
C8    C9    D    
C3    C5    S    
