data_mof_unit_63359.cif
_audit_creation_date              2013-03-05T16:08:08-0500
_audit_creation_method            fapswitch 2.2
_symmetry_space_group_name_H-M    P1
_symmetry_Int_Tables_number       1
_space_group_crystal_system       triclinic
_cell_length_a                    13.134404
_cell_length_b                    14.429337
_cell_length_c                    17.276632
_cell_angle_alpha                 90.009294
_cell_angle_beta                  85.605148
_cell_angle_gamma                 89.940912
_cell_volume                      3264.6507198

loop_
_atom_site_label
_atom_site_type_symbol
_atom_site_description
_atom_site_fract_x
_atom_site_fract_y
_atom_site_fract_z
_atom_type_partial_charge
O1    O     O_R   0.421720 0.623950 0.500010 -0.570918
O2    O     O_R   0.578280 0.376050 0.499990 -0.573281
O3    O     O_R   0.578280 0.623950 0.499990 -0.544504
O4    O     O_R   0.421720 0.376050 0.500010 -0.540343
C1    C     C_R   0.499954 0.671304 0.500083 0.850636
C2    C     C_R   0.500033 0.328703 0.499993 0.849056
O5    O     O_R   0.412660 0.500000 0.613600 -0.558925
O6    O     O_R   0.587340 0.500000 0.386400 -0.568358
O7    O     O_R   0.569190 0.500000 0.613590 -0.541866
O8    O     O_R   0.430810 0.500000 0.386410 -0.540339
C3    C     C_R   0.487014 0.501061 0.652203 0.922575
C4    C     C_R   0.513089 0.498581 0.347693 0.946035
Cu1   Cu    Cu3+1 0.407320 0.500000 0.500010 1.046766
Cu2   Cu    Cu3+1 0.592680 0.500000 0.499990 1.034340
C5    C     C_R   0.477664 0.505532 0.737129 -0.280674
C6    C     C_R   0.522090 0.491083 0.262738 -0.281401
C7    C     C_R   0.541971 0.565346 0.775574 0.196354
C8    C     C_R   0.449407 0.439024 0.225277 0.203744
C9    C     C_R   0.528459 0.575460 0.856364 0.224560
C10   C     C_R   0.456550 0.432470 0.144111 0.214519
C11   C     C_R   0.451729 0.524015 0.898655 -0.167310
C12   C     C_R   0.534711 0.480700 0.100475 -0.159872
C13   C     C_R   0.384834 0.466812 0.860391 0.286360
C14   C     C_R   0.609416 0.530019 0.137580 0.298504
C15   C     C_R   0.398910 0.456036 0.779308 0.107969
C16   C     C_R   0.603868 0.534479 0.219048 0.086083
C17   C     C_2   0.451218 0.518649 0.983413 -0.014566
C18   C     C_2   0.533694 0.486854 0.015836 -0.025770
H1    H     H_    0.602545 0.469551 0.979836 0.201959
H2    H     H_    0.382241 0.536441 0.019035 0.205700
C19   C     C_1   0.499886 0.772879 0.500196 -0.152578
C20   C     C_1   0.500036 0.227144 0.500158 -0.159785
C21   C     C_1   0.499878 0.857698 0.500278 0.039538
C22   C     C_1   0.499976 0.142333 0.500270 0.034635
C23   C     C_1   0.499891 0.957608 0.500333 0.048865
C24   C     C_1   0.499919 0.042427 0.500333 0.047277
N1    N     N_1   0.731930 0.500000 0.499980 -0.116710
N2    N     N_1   0.268070 0.500000 0.500020 -0.114180
C25   C     C_1   0.826397 0.500009 0.499943 0.197352
C26   C     C_1   0.173607 0.499989 0.499983 0.215362
C27   C     C_1   0.949318 0.500005 0.499924 -0.024579
C28   C     C_1   0.050686 0.499993 0.499940 -0.019984
N3    N     N_R   0.616514 0.620936 0.732124 0.160016
O9    O     O_R   0.602562 0.709854 0.726397 -0.302580
O10   O     O_R   0.703947 0.585013 0.707491 -0.291868
N4    N     N_R   0.372635 0.387095 0.269844 0.171807
O11   O     O_R   0.280737 0.420442 0.281925 -0.286777
O12   O     O_R   0.397974 0.313019 0.306760 -0.338534
N5    N     N_2   0.678879 0.584326 0.257494 -0.414300
H3    H     H_    0.691594 0.650765 0.237203 0.297017
C29   C     C_3   0.772566 0.533646 0.265705 -0.522742
H4    H     H_    0.814335 0.522614 0.208078 0.256667
H5    H     H_    0.756136 0.465425 0.293740 0.229762
H6    H     H_    0.822025 0.573811 0.302786 0.217024
N6    N     N_2   0.332857 0.397114 0.739592 -0.396906
H7    H     H_    0.259238 0.392162 0.764604 0.298104
C30   C     C_3   0.376223 0.308187 0.716181 -0.547885
H8    H     H_    0.391399 0.266229 0.767926 0.261124
H9    H     H_    0.448618 0.317116 0.679422 0.190991
H10   H     H_    0.321793 0.270028 0.681805 0.222898
N7    N     N_R   0.305890 0.416296 0.904370 0.149418
O13   O     O_R   0.237716 0.460219 0.949055 -0.284605
O14   O     O_R   0.302261 0.326357 0.900397 -0.284711
N8    N     N_R   0.689376 0.577714 0.092513 0.143049
O15   O     O_R   0.692385 0.667808 0.092161 -0.276469
O16   O     O_R   0.756508 0.531242 0.048884 -0.299797
N9    N     N_R   0.387342 0.373703 0.106055 0.164537
O17   O     O_R   0.422259 0.314996 0.053306 -0.272812
O18   O     O_R   0.289326 0.379366 0.123018 -0.226841
N10   N     N_R   0.592443 0.638193 0.895576 0.173248
O19   O     O_R   0.690698 0.639377 0.878717 -0.218371
O20   O     O_R   0.552635 0.694086 0.948765 -0.272710

loop_
_geom_bond_atom_site_label_1
_geom_bond_atom_site_label_2
_geom_bond_distance
_ccdc_geom_bond_type
C9    C11   1.410458 A    
C2    C20   1.465441 S    
O7    Cu2   1.963233 S    
C7    N3    1.433412 S    
C20   C22   1.223772 T    
N10   O19   1.301165 A    
O7    C3    1.224673 A    
C27   C28   1.331429 T    
C10   N9    1.438975 S    
C8    C10   1.401384 A    
C23   C24   1.223879 T    
C13   N7    1.436917 S    
O6    C4    1.224207 A    
N3    O9    1.300715 A    
C29   H6    1.110279 S    
C17   C18   1.337829 D    
N8    O15   1.300648 A    
N6    H7    1.030990 S    
C26   C28   1.614559 S    
C11   C17   1.465885 S    
C29   H4    1.110682 S    
C14   N8    1.434977 S    
C6    C8    1.410861 A    
C12   C18   1.466063 S    
Cu1   Cu2   2.434567 S    
C17   H2    1.086039 S    
N2    C26   1.240763 T    
N3    O10   1.300910 A    
Cu1   N2    1.828951 S    
O2    C2    1.234664 A    
O3    Cu2   1.798295 S    
O8    C4    1.226740 A    
O1    C1    1.234662 A    
C8    N4    1.433121 S    
O4    C2    1.234199 A    
C18   H1    1.086393 S    
C21   C23   1.441640 S    
C10   C12   1.410520 A    
O5    C3    1.224179 A    
C22   C24   1.441579 S    
N6    C30   1.448276 S    
C11   C13   1.407349 A    
C6    C16   1.411683 A    
N7    O13   1.300836 A    
O2    Cu2   1.798683 S    
C12   C14   1.406357 A    
C5    C15   1.413230 A    
C30   H9    1.109866 S    
C19   C21   1.223878 T    
C29   H5    1.111187 S    
N9    O17   1.301271 A    
N4    O12   1.300785 A    
O3    C1    1.234317 A    
O5    Cu1   1.969068 S    
C13   C15   1.407441 A    
O1    Cu1   1.798683 S    
C25   C27   1.614468 S    
N1    C25   1.240714 T    
N5    H3    1.030187 S    
C16   N5    1.425054 S    
N9    O18   1.300712 A    
O4    Cu1   1.798295 S    
C5    C7    1.409532 A    
N5    C29   1.447075 S    
N4    O11   1.300833 A    
C30   H10   1.110297 S    
O6    Cu2   1.969071 S    
C4    C6    1.467397 S    
C7    C9    1.401050 A    
C30   H8    1.110267 S    
C9    N10   1.439862 S    
C3    C5    1.464370 S    
N10   O20   1.301339 A    
N7    O14   1.300675 A    
C15   N6    1.427905 S    
Cu2   N1    1.828954 S    
C14   C16   1.405248 A    
C1    C19   1.465663 S    
O8    Cu1   1.963233 S    
N8    O16   1.300776 A    
