data_mof_unit_36378.cif
_audit_creation_date              2012-10-26T21:05:45-0400
_audit_creation_method            fapswitch 2.2
_symmetry_space_group_name_H-M    P1
_symmetry_Int_Tables_number       1
_space_group_crystal_system       triclinic
_cell_length_a                    12.997407
_cell_length_b                    9.092087
_cell_length_c                    7.776876
_cell_angle_alpha                 90.00773
_cell_angle_beta                  96.684585
_cell_angle_gamma                 89.988931
_cell_volume                      912.773559932

loop_
_atom_site_label
_atom_site_type_symbol
_atom_type_description
_atom_site_fract_x
_atom_site_fract_y
_atom_site_fract_z
_atom_type_partial_charge
C1    C     C_R   0.499987 0.219998 0.499994 0.558599
C2    C     C_R   0.868746 0.403681 0.692054 0.110784
C3    C     C_R   0.135552 0.452768 0.573284 -0.116980
C4    C     C_R   0.864448 0.547232 0.426716 -0.116979
C5    C     C_R   0.028496 0.462203 0.569673 0.011152
C6    C     C_R   0.971504 0.537797 0.430327 0.011152
C7    C     C_1   0.500000 0.065369 0.499996 -0.010993
C8    C     C_1   0.500000 0.934631 0.500004 -0.010993
C9    C     C_R   0.500013 0.780002 0.500006 0.558599
C10   C     C_R   0.300013 0.507553 0.466890 0.553271
C11   C     C_R   0.699987 0.492447 0.533110 0.553271
C12   C     C_R   0.812946 0.481507 0.554100 -0.012490
C13   C     C_R   0.187054 0.518493 0.445899 -0.012490
C14   C     C_R   0.022497 0.603462 0.298115 0.124678
C15   C     C_R   0.977503 0.396537 0.701885 0.124678
C16   C     C_R   0.131253 0.596318 0.307946 0.110784
Cu1   Cu    Cu3+1 0.500010 0.500000 0.669080 1.094260
Cu2   Cu    Cu3+1 0.499990 0.500000 0.330920 1.094260
H1    H     H_    0.818853 0.606627 0.324581 0.174569
H2    H     H_    0.181146 0.393373 0.675419 0.174569
I1    I     I_    0.789860 0.285271 0.877069 -0.212681
I2    I     I_    0.210140 0.714729 0.122931 -0.212682
I3    I     I_    0.936529 0.713132 0.081559 -0.248475
I4    I     I_    0.063471 0.286867 0.918441 -0.248475
N1    N     N_1   0.499980 0.500000 0.076820 -0.057457
N2    N     N_1   0.500020 0.500000 0.923180 -0.057457
O1    O     O_R   0.500000 0.288400 0.642760 -0.491428
O2    O     O_R   0.500000 0.711600 0.357240 -0.491428
O3    O     O_R   0.500000 0.288400 0.357240 -0.493436
O4    O     O_R   0.500000 0.711600 0.642760 -0.493436
O5    O     O_R   0.349000 0.500000 0.619590 -0.506437
O6    O     O_R   0.651000 0.500000 0.380410 -0.506437
O7    O     O_R   0.348990 0.500000 0.334020 -0.476935
O8    O     O_R   0.651010 0.500000 0.665980 -0.476935

loop_
_geom_bond_atom_site_label_1
_geom_bond_atom_site_label_2
_ccdc_geom_bond_type
C14   I3    S    
C11   C12   S    
Cu1   O4    S    
C4    C12   A    
C3    C13   A    
C2    C12   A    
C2    I1    S    
C1    O3    A    
Cu1   Cu2   S    
Cu2   O6    S    
C7    C8    T    
Cu2   O3    S    
C2    C15   A    
Cu2   N1    S    
C9    O4    A    
Cu1   N2    S    
C15   I4    S    
C11   O6    A    
C10   O7    A    
C5    C6    A    
Cu1   O5    S    
Cu2   O7    S    
C14   C16   A    
C5    C15   A    
C6    C14   A    
Cu1   O8    S    
Cu1   O1    S    
C3    H2    S    
Cu2   O2    S    
C4    C6    A    
C13   C16   A    
C1    O1    A    
C16   I2    S    
N1    N2    T    
C1    C7    S    
C4    H1    S    
C10   O5    A    
C11   O8    A    
C9    O2    A    
C8    C9    S    
C3    C5    A    
C10   C13   S    
