data_mof_unit_32585.cif
_audit_creation_date              2012-12-11T15:34:50-0500
_audit_creation_method            fapswitch 2.2
_symmetry_space_group_name_H-M    P1
_symmetry_Int_Tables_number       1
_space_group_crystal_system       triclinic
_cell_length_a                    29.903998
_cell_length_b                    7.234516
_cell_length_c                    26.547026
_cell_angle_alpha                 89.881886
_cell_angle_beta                  112.27401
_cell_angle_gamma                 89.861934
_cell_volume                      5314.61778185

loop_
_atom_site_label
_atom_site_type_symbol
_atom_type_description
_atom_site_fract_x
_atom_site_fract_y
_atom_site_fract_z
_atom_type_partial_charge
O1    O     O_R   0.295360 0.592990 0.320420 -0.495779
O2    O     O_R   0.704640 0.407010 0.679580 -0.491775
O3    O     O_R   0.204640 0.092990 0.179580 -0.543334
O4    O     O_R   0.795360 0.907010 0.820420 -0.490703
O5    O     O_R   0.294060 0.265620 0.213230 -0.540516
O6    O     O_R   0.705940 0.734380 0.786770 -0.491570
O7    O     O_R   0.205940 0.765620 0.286770 -0.495222
O8    O     O_R   0.794060 0.234380 0.713230 -0.491305
C1    C     C_R   0.303934 0.431904 0.199391 0.844717
C2    C     C_R   0.696465 0.567313 0.801456 0.781441
C3    C     C_R   0.196805 0.932146 0.301879 0.884031
C4    C     C_R   0.803613 0.067137 0.698739 0.779702
O9    O     O_R   0.300850 0.263360 0.322080 -0.542921
O10   O     O_R   0.699150 0.736640 0.677920 -0.555526
O11   O     O_R   0.199150 0.763360 0.177920 -0.521362
O12   O     O_R   0.800850 0.236640 0.822080 -0.554924
O13   O     O_R   0.211480 0.091820 0.289210 -0.528337
O14   O     O_R   0.788520 0.908180 0.710790 -0.522255
O15   O     O_R   0.288520 0.591820 0.210790 -0.519017
O16   O     O_R   0.711480 0.408180 0.789210 -0.521665
C5    C     C_R   0.313918 0.431359 0.342907 0.749185
C6    C     C_R   0.685994 0.569723 0.656975 0.737083
C7    C     C_R   0.186429 0.931950 0.156752 0.704615
C8    C     C_R   0.814047 0.069021 0.842917 0.736835
O17   O     O_3   0.220670 0.426670 0.239090 -0.363125
O18   O     O_3   0.779330 0.573330 0.760910 -0.348820
O19   O     O_3   0.279330 0.926670 0.260910 -0.369662
O20   O     O_3   0.720670 0.073330 0.739090 -0.350423
V1    V     V_3+5 0.255440 0.152290 0.252020 1.674571
V2    V     V_3+5 0.744560 0.847710 0.747980 1.787837
V3    V     V_3+5 0.244560 0.652290 0.247980 1.782296
V4    V     V_3+5 0.755440 0.347710 0.752020 1.788122
C9    C     C_R   0.852392 0.073237 0.898453 -0.029206
C10   C     C_R   0.150348 0.939285 0.099963 -0.076127
C11   C     C_R   0.647715 0.575847 0.601294 -0.030724
C12   C     C_R   0.350395 0.436951 0.399261 -0.093953
C13   C     C_R   0.878311 0.219505 0.987150 -0.114049
C14   C     C_R   0.128590 0.858641 0.005065 -0.060735
C15   C     C_R   0.621777 0.724292 0.512534 -0.110327
C16   C     C_R   0.372896 0.353915 0.494113 -0.085082
C17   C     C_R   0.841590 0.162056 0.939281 -0.067622
C18   C     C_R   0.161157 0.852072 0.058983 -0.014027
C19   C     C_R   0.658494 0.666201 0.560588 -0.068106
C20   C     C_R   0.340309 0.346802 0.440341 -0.020201
C21   C     C_R   0.901376 0.038100 0.907428 -0.120694
C22   C     C_R   0.105451 0.030778 0.086071 -0.069184
C23   C     C_R   0.598743 0.540378 0.592030 -0.119291
C24   C     C_R   0.394771 0.530569 0.412583 -0.057472
C25   C     C_R   0.939464 0.108364 0.954024 0.107827
C26   C     C_R   0.071980 0.041523 0.031356 0.113922
C27   C     C_R   0.560637 0.610947 0.545159 0.107401
C28   C     C_R   0.428445 0.541053 0.467302 0.101232
C29   C     C_R   0.926965 0.195912 0.994540 0.048137
C30   C     C_R   0.084089 0.950487 0.991058 0.029630
C31   C     C_R   0.573089 0.699671 0.504753 0.045930
C32   C     C_R   0.416799 0.448435 0.507832 0.030961
C33   C     C_R   0.989667 0.089055 0.962922 -0.105402
C34   C     C_R   0.025211 0.126264 0.015758 -0.090590
C35   C     C_R   0.510460 0.590771 0.535942 -0.104909
C36   C     C_R   0.474911 0.627296 0.482887 -0.091706
C37   C     C_R   0.011881 0.248634 0.049425 0.399916
C38   C     C_R   0.006799 0.040076 0.921712 0.411709
C39   C     C_R   0.487976 0.750403 0.449125 0.402674
C40   C     C_R   0.493406 0.541237 0.577139 0.410252
C41   C     C_R   0.963028 0.271931 0.040248 -0.191984
C42   C     C_R   0.052536 0.959423 0.936605 -0.219554
C43   C     C_R   0.536884 0.775490 0.458751 -0.183858
C44   C     C_R   0.448142 0.458359 0.562303 -0.222526
H1    H     H_    0.953019 0.360142 0.067301 0.189785
H2    H     H_    0.064681 0.912894 0.905089 0.168634
H3    H     H_    0.546775 0.864402 0.431714 0.190968
H4    H     H_    0.436111 0.411035 0.593859 0.169565
H5    H     H_    0.095821 0.086419 0.117992 0.185574
H6    H     H_    0.909845 0.962795 0.877362 0.178281
H7    H     H_    0.403393 0.588504 0.379975 0.215531
H8    H     H_    0.590312 0.464578 0.622134 0.178315
H9    H     H_    0.195303 0.780625 0.068681 0.178366
H10   H     H_    0.804511 0.195315 0.932959 0.158646
H11   H     H_    0.306638 0.272873 0.430848 0.170106
H12   H     H_    0.695547 0.699839 0.567111 0.157745
H13   H     H_    0.868594 0.290300 0.017508 0.149128
H14   H     H_    0.138177 0.790919 0.974161 0.156241
H15   H     H_    0.631503 0.796048 0.482292 0.150365
H16   H     H_    0.363780 0.284600 0.525166 0.147921
C45   C     C_R   0.082894 0.114584 0.464252 0.614602
C46   C     C_R   0.924902 0.880665 0.545326 0.609404
C47   C     C_R   0.423445 0.629011 0.044989 0.645246
C48   C     C_R   0.577399 0.384782 0.958194 0.609459
N1    N     N_R   0.081303 0.958867 0.434154 -0.528515
N2    N     N_R   0.926337 0.036565 0.575316 -0.531790
N3    N     N_R   0.424861 0.472126 0.074730 -0.528454
N4    N     N_R   0.575637 0.540479 0.927779 -0.531316
C49   C     C_R   0.050270 0.816981 0.431964 0.659012
C50   C     C_R   0.957776 0.177576 0.578057 0.663898
C51   C     C_R   0.455477 0.328825 0.076250 0.631425
C52   C     C_R   0.544806 0.683535 0.926003 0.664773
C53   C     C_R   0.019044 0.828971 0.460420 -0.061945
C54   C     C_R   0.989313 0.165011 0.549970 -0.063132
C55   C     C_R   0.486295 0.340002 0.047220 -0.053525
C56   C     C_R   0.514347 0.673409 0.955548 -0.063249
C57   C     C_R   0.019979 0.988846 0.491046 -0.009836
C58   C     C_R   0.988414 0.005123 0.519364 -0.009895
C59   C     C_R   0.485096 0.499924 0.016325 -0.008102
C60   C     C_R   0.515656 0.513907 0.986637 -0.009446
C61   C     C_R   0.052253 0.132830 0.493223 -0.039365
C62   C     C_R   0.955999 0.861475 0.516974 -0.036323
C63   C     C_R   0.453405 0.645837 0.015048 -0.047788
C64   C     C_R   0.547391 0.368131 0.988026 -0.037648
C65   C     C_R   0.986588 0.686347 0.458462 -0.147417
C66   C     C_R   0.021853 0.307456 0.552023 -0.147636
C67   C     C_R   0.518204 0.195561 0.048345 -0.146041
C68   C     C_R   0.482482 0.818006 0.954513 -0.145180
C69   C     C_R   0.955464 0.702341 0.486416 -0.126986
C70   C     C_R   0.052889 0.291702 0.523930 -0.128627
C71   C     C_R   0.548366 0.209429 0.019127 -0.130026
C72   C     C_R   0.452473 0.804570 0.983970 -0.130832
O21   O     O_2   0.114003 0.251585 0.466085 -0.502108
O22   O     O_2   0.893345 0.744620 0.542803 -0.504144
O23   O     O_2   0.393260 0.768516 0.044495 -0.492620
O24   O     O_2   0.608272 0.246522 0.959794 -0.503982
O25   O     O_2   0.049174 0.665889 0.401813 -0.485938
O26   O     O_2   0.958852 0.328586 0.608227 -0.482549
O27   O     O_2   0.456018 0.175811 0.105612 -0.488783
O28   O     O_2   0.543303 0.834412 0.895446 -0.482212
H17   H     H_    0.985105 0.561790 0.435320 0.177870
H18   H     H_    0.023334 0.431997 0.575171 0.177293
H19   H     H_    0.519915 0.070968 0.071709 0.178455
H20   H     H_    0.480700 0.942412 0.931050 0.177027
H21   H     H_    0.931064 0.589321 0.484071 0.181086
H22   H     H_    0.077222 0.404868 0.526181 0.180028
H23   H     H_    0.572299 0.094883 0.020831 0.180967
H24   H     H_    0.428582 0.919188 0.982332 0.179274
C73   C     C_R   0.903224 0.927775 0.649317 -0.144732
C74   C     C_R   0.100070 0.064210 0.356930 -0.177066
C75   C     C_R   0.597633 0.431133 0.852796 -0.146395
C76   C     C_R   0.413105 0.492667 0.161165 -0.158607
H25   H     H_    0.933018 0.830848 0.659433 0.202827
H26   H     H_    0.069413 0.156864 0.347140 0.202498
H27   H     H_    0.567805 0.335271 0.843070 0.203248
H28   H     H_    0.451078 0.526257 0.180467 0.196554
C77   C     C_R   0.873319 0.927538 0.678949 0.314411
C78   C     C_R   0.127446 0.061262 0.324451 0.357762
C79   C     C_R   0.627002 0.430502 0.822411 0.313790
C80   C     C_R   0.384172 0.483637 0.192003 0.322723
C81   C     C_R   0.834017 0.055333 0.665234 -0.322696
C82   C     C_R   0.167993 0.940722 0.337482 -0.317278
C83   C     C_R   0.666443 0.556421 0.835583 -0.322698
C84   C     C_R   0.334457 0.440079 0.166500 -0.332195
C85   C     C_R   0.823003 0.166946 0.617520 0.321149
C86   C     C_R   0.181528 0.832129 0.386187 0.352154
C87   C     C_R   0.677975 0.667372 0.883349 0.321028
C88   C     C_R   0.314371 0.405088 0.109441 0.339373
C89   C     C_R   0.855387 0.168328 0.589601 0.149913
C90   C     C_R   0.151386 0.832194 0.416941 0.140696
C91   C     C_R   0.646105 0.669601 0.911968 0.148517
C92   C     C_R   0.344970 0.412256 0.079341 0.147519
C93   C     C_R   0.895359 0.048365 0.605856 0.256276
C94   C     C_R   0.110940 0.949266 0.402037 0.256058
C95   C     C_R   0.606047 0.551084 0.896403 0.257026
C96   C     C_R   0.393972 0.458561 0.105338 0.263334
S1    S     S_3+6 0.766872 0.289976 0.590200 0.009664
O29   O     O_2   0.773044 0.475748 0.616988 -0.309221
O30   O     O_2   0.750153 0.318778 0.529784 -0.333718
O31   O     O_3   0.723321 0.173567 0.602301 -0.500845
H29   H     H_    0.720745 0.054024 0.583295 0.316676
S2    S     S_3+6 0.237064 0.705580 0.409660 -0.013905
O32   O     O_2   0.255363 0.666040 0.469696 -0.353048
O33   O     O_2   0.229088 0.525249 0.379641 -0.325315
O34   O     O_3   0.279498 0.828489 0.397154 -0.515003
H30   H     H_    0.310819 0.784449 0.424131 0.374347
S3    S     S_3+6 0.734073 0.789311 0.909724 0.007393
O35   O     O_2   0.727507 0.974606 0.882302 -0.310093
O36   O     O_2   0.751367 0.819094 0.970093 -0.335623
O37   O     O_3   0.777338 0.671266 0.897331 -0.500680
H31   H     H_    0.780120 0.552021 0.916707 0.316478
S4    S     S_3+6 0.252310 0.341503 0.076117 -0.016018
O38   O     O_2   0.231260 0.421719 0.019688 -0.331036
O39   O     O_2   0.249882 0.134296 0.072302 -0.346085
O40   O     O_3   0.218148 0.414170 0.109994 -0.513839
H32   H     H_    0.186990 0.349270 0.092499 0.385839
N5    N     N_3   0.848299 0.287484 0.543989 -0.578259
H33   H     H_    0.841052 0.421663 0.553394 0.318614
H34   H     H_    0.819593 0.237840 0.510207 0.280373
N6    N     N_3   0.160950 0.716524 0.463788 -0.579077
H35   H     H_    0.191085 0.766913 0.495807 0.282437
H36   H     H_    0.166877 0.580866 0.454269 0.318380
N7    N     N_3   0.653831 0.788269 0.957660 -0.578594
H37   H     H_    0.660860 0.922387 0.947975 0.318557
H38   H     H_    0.682840 0.737686 0.991151 0.279951
N8    N     N_3   0.327647 0.369983 0.022412 -0.596811
H39   H     H_    0.303462 0.472972 0.000722 0.293213
H40   H     H_    0.310457 0.241600 0.015633 0.300237
S5    S     S_3+6 0.050605 0.426241 0.087813 0.029461
O41   O     O_2   0.058523 0.403649 0.146740 -0.245401
O42   O     O_2   0.098409 0.427208 0.081424 -0.362955
O43   O     O_3   0.023348 0.631527 0.066579 -0.474406
H41   H     H_    0.020649 0.643454 0.028344 0.336074
S6    S     S_3+6 0.984101 0.143949 0.856196 0.054888
O44   O     O_2   0.973549 0.996866 0.813527 -0.300661
O45   O     O_2   0.939607 0.258945 0.846087 -0.305335
O46   O     O_3   0.027141 0.283509 0.851104 -0.442316
H42   H     H_    0.049856 0.200800 0.842761 0.355039
S7    S     S_3+6 0.448472 0.926152 0.409763 0.055821
O47   O     O_2   0.440912 0.902550 0.350978 -0.217687
O48   O     O_2   0.400486 0.925711 0.415816 -0.354608
O49   O     O_3   0.474737 0.132675 0.430229 -0.467706
H43   H     H_    0.477524 0.144693 0.468475 0.332537
S8    S     S_3+6 0.515179 0.647361 0.642147 0.053493
O50   O     O_2   0.525180 0.501991 0.685470 -0.297537
O51   O     O_2   0.559746 0.761143 0.652537 -0.306623
O52   O     O_3   0.471689 0.788797 0.645612 -0.445856
H44   H     H_    0.448322 0.706985 0.652946 0.352827
S9    S     S_3+6 0.885237 0.753373 0.729848 0.138899
O53   O     O_2   0.850988 0.596134 0.706824 -0.274868
O54   O     O_2   0.936017 0.681437 0.746277 -0.240526
O55   O     O_3   0.877552 0.832155 0.785363 -0.477967
H45   H     H_    0.882154 0.967365 0.784770 0.316156
S10   S     S_3+6 0.109363 0.215326 0.268619 0.103403
O56   O     O_2   0.057021 0.267142 0.252234 -0.258158
O57   O     O_2   0.139476 0.387449 0.284956 -0.297983
O58   O     O_3   0.117128 0.116175 0.215553 -0.512995
H46   H     H_    0.134481 0.210084 0.202816 0.367437
S11   S     S_3+6 0.614221 0.258638 0.771067 0.137799
O59   O     O_2   0.648136 0.098939 0.793440 -0.274659
O60   O     O_2   0.563305 0.189908 0.755033 -0.241627
O61   O     O_3   0.621604 0.338684 0.715409 -0.478974
H47   H     H_    0.616720 0.473846 0.715874 0.319177
S12   S     S_3+6 0.411654 0.524378 0.262873 0.070405
O62   O     O_2   0.461247 0.604866 0.277333 -0.254007
O63   O     O_2   0.381325 0.657807 0.279568 -0.336788
O64   O     O_3   0.416690 0.323994 0.296876 -0.434654
H48   H     H_    0.384130 0.299797 0.296835 0.326662

loop_
_geom_bond_atom_site_label_1
_geom_bond_atom_site_label_2
_ccdc_geom_bond_type
O17   V3    S    
C55   C59   A    
S7    O47   D    
C25   C29   A    
O1    C5    A    
N8    H39   S    
C54   C66   A    
C47   N3    A    
O19   V1    S    
O13   V1    S    
O34   H30   S    
C78   C82   A    
O3    C7    A    
S11   O59   D    
C10   C18   A    
C56   C60   A    
S3    O35   D    
C11   C23   A    
S12   O63   D    
S1    O29   D    
C33   C34   A    
S11   O61   S    
C87   S3    S    
C33   C38   A    
C5    C12   S    
C71   H23   S    
N5    H33   S    
C73   H25   S    
C6    C11   S    
C40   S8    S    
O5    C1    A    
C57   C58   A    
C69   H21   S    
C36   C39   A    
C40   C44   A    
C64   C71   A    
O9    V1    S    
O31   H29   S    
C49   O25   S    
C23   H8    S    
C14   C18   A    
C13   C17   A    
C79   S11   S    
C48   C64   A    
C51   C55   A    
C44   H4    S    
C50   C54   A    
C37   S5    S    
C86   S2    S    
C60   C64   A    
O1    V3    S    
C9    C21   A    
N6    H35   S    
O2    V4    S    
O46   H42   S    
C32   C44   A    
O3    V1    S    
C16   H16   S    
O37   H31   S    
C78   S10   S    
C85   C89   A    
C28   C36   A    
C82   C86   A    
C1    O15   A    
S4    O40   S    
C15   C31   A    
C88   C92   A    
C68   H20   S    
C2    O16   A    
S8    O50   D    
C16   C32   A    
C90   N6    S    
O2    C6    A    
C58   C62   A    
S6    O44   D    
C10   C22   A    
C87   C91   A    
C48   O24   S    
C11   C19   A    
C66   C70   A    
C16   C20   A    
C27   C31   A    
S5    O41   D    
C76   H28   S    
C2    C83   S    
C13   C29   A    
C7    C10   S    
C34   C37   A    
S4    O39   D    
O15   V3    S    
C35   C36   A    
O12   C8    A    
C14   H14   S    
S2    O33   D    
C70   H22   S    
C24   H7    S    
C13   H13   S    
C46   C62   A    
O10   V2    S    
C45   C61   A    
S12   O62   D    
S1    O30   D    
N2    C50   A    
O5    V1    S    
N5    H34   S    
N4    C52   A    
C57   C61   A    
O20   V2    S    
S3    O37   S    
C39   C43   A    
C75   C95   A    
C38   C42   A    
C62   C69   A    
C91   C95   A    
O8    V4    S    
C48   N4    A    
S7    O49   S    
C92   C96   A    
O7    V3    S    
O55   H45   S    
C38   S6    S    
O64   H48   S    
C46   N2    A    
C77   S9    S    
C17   H10   S    
C45   N1    A    
O49   H43   S    
C15   C19   A    
S5    O42   D    
C19   H12   S    
S9    O53   D    
C75   C79   A    
N1    C49   A    
O4    V2    S    
C21   H6    S    
C26   C34   A    
C4    C81   S    
O7    C3    A    
C47   O23   S    
O58   H46   S    
C54   C58   A    
C74   C78   A    
S7    O48   D    
C61   C70   A    
S10   O57   D    
O52   H44   S    
C14   C30   A    
C21   C25   A    
O4    C8    A    
O8    C4    A    
S5    O43   S    
C55   C67   A    
S6    O46   S    
C76   C96   A    
C35   C40   A    
O9    C5    A    
C46   O22   S    
C26   C30   A    
C45   O21   S    
N3    C96   S    
C39   S7    S    
C66   H18   S    
O14   V2    S    
C23   C27   A    
C50   O26   S    
C52   O28   S    
C65   H17   S    
S4    O38   D    
O6    V2    S    
C73   C93   A    
C89   N5    S    
C56   C68   A    
N4    C95   S    
C67   H19   S    
S2    O32   D    
C12   C20   A    
C85   S1    S    
C49   C53   A    
C79   C83   A    
C68   C72   A    
S1    O31   S    
C29   C41   A    
S10   O58   S    
O16   V4    S    
S9    O55   S    
C51   O27   S    
C3    O13   A    
N8    H40   S    
C74   C94   A    
C20   H11   S    
C84   C88   A    
O43   H41   S    
C47   C63   A    
C74   H26   S    
C25   C33   A    
C31   C43   A    
S11   O60   D    
C3    C82   S    
O11   V3    S    
O18   V4    S    
C65   C69   A    
O12   V4    S    
C22   C26   A    
C1    C84   S    
C73   C77   A    
C8    C9    S    
C75   H27   S    
C9    C17   A    
O10   C6    A    
N2    C93   S    
S6    O45   D    
C53   C65   A    
S9    O54   D    
C15   H15   S    
N7    H37   S    
C76   C80   A    
C91   N7    S    
C67   C71   A    
N1    C94   S    
S10   O56   D    
C42   H2    S    
S8    O52   S    
C41   H1    S    
C83   C87   A    
C52   C56   A    
O11   C7    A    
C77   C81   A    
N6    H36   S    
C12   C24   A    
C43   H3    S    
C22   H5    S    
C37   C41   A    
C89   C93   A    
C81   C85   A    
C63   C72   A    
N7    H38   S    
O6    C2    A    
N3    C51   A    
O40   H32   S    
C88   S4    S    
S3    O36   D    
C24   C28   A    
C27   C35   A    
S2    O34   S    
S8    O51   D    
O61   H47   S    
C86   C90   A    
C4    O14   A    
C59   C60   A    
C90   C94   A    
C18   H9    S    
C80   S12   S    
C59   C63   A    
C30   C42   A    
S12   O64   S    
C53   C57   A    
C28   C32   A    
C72   H24   S    
C80   C84   A    
C92   N8    S    
