data_mof_unit_46811.cif
_audit_creation_date              2012-12-10T18:16:17-0500
_audit_creation_method            fapswitch 2.2
_symmetry_space_group_name_H-M    P1
_symmetry_Int_Tables_number       1
_space_group_crystal_system       triclinic
_cell_length_a                    12.577081
_cell_length_b                    13.19024
_cell_length_c                    27.72004
_cell_angle_alpha                 90.78357
_cell_angle_beta                  103.006639
_cell_angle_gamma                 82.532297
_cell_volume                      4442.04541971

loop_
_atom_site_label
_atom_site_type_symbol
_atom_type_description
_atom_site_fract_x
_atom_site_fract_y
_atom_site_fract_z
_atom_type_partial_charge
C1    C     C_R   0.439027 0.691261 0.493232 0.860618
C2    C     C_R   0.458274 0.603398 0.022511 0.053446
C3    C     C_R   0.496540 0.415351 0.023308 0.043932
C4    C     C_R   0.500541 0.501417 0.593812 0.877934
C5    C     C_R   0.475245 0.508081 0.047924 0.075938
C6    C     C_R   0.426076 0.692843 0.047202 -0.222964
C7    C     C_R   0.420804 0.689483 0.096584 -0.136665
C8    C     C_R   0.446078 0.596820 0.122928 -0.026643
C9    C     C_R   0.471727 0.505602 0.098578 -0.054268
C10   C     C_R   0.494867 0.412036 0.125083 -0.024718
C11   C     C_R   0.495158 0.411833 0.175579 0.510062
C12   C     C_R   0.394868 0.521618 0.710850 0.144284
C13   C     C_R   0.446478 0.593031 0.173358 0.512733
C14   C     C_R   0.400206 0.461085 0.269655 -0.101149
C15   C     C_R   0.407530 0.460936 0.320335 -0.300084
C16   C     C_R   0.561041 0.308994 0.505409 0.866312
C17   C     C_R   0.576585 0.540081 0.333480 0.423974
C18   C     C_R   0.567937 0.539580 0.282185 -0.224816
C19   C     C_R   0.480084 0.500639 0.250631 0.282054
C20   C     C_R   0.472958 0.606272 0.973322 0.004587
C21   C     C_R   0.486262 0.514110 0.947610 0.068691
C22   C     C_R   0.494216 0.418262 0.972024 0.056368
C23   C     C_R   0.495362 0.518075 0.746263 0.302513
C24   C     C_R   0.478062 0.698871 0.949834 -0.213105
C25   C     C_R   0.501413 0.331709 0.894657 -0.149342
C26   C     C_R   0.520630 0.322745 0.051121 -0.218265
C27   C     C_R   0.519712 0.321353 0.101050 -0.138218
C28   C     C_R   0.498778 0.500152 0.405991 0.891870
C29   C     C_R   0.498979 0.328200 0.944161 -0.222344
C30   C     C_R   0.720064 0.058169 0.486249 -0.196516
C31   C     C_R   0.598167 0.200390 0.506552 -0.049955
C32   C     C_R   0.313797 0.832296 0.515875 -0.218864
C33   C     C_R   0.309000 0.924123 0.540658 -0.181783
C34   C     C_R   0.491517 0.517439 0.897138 -0.068627
C35   C     C_R   0.393057 0.986208 0.544623 0.113474
C36   C     C_R   0.471152 0.964479 0.513754 0.049617
C37   C     C_R   0.476456 0.869620 0.489496 0.051140
C38   C     C_R   0.546933 0.030571 0.507147 0.063536
C39   C     C_R   0.640311 0.994116 0.488135 0.163072
C40   C     C_R   0.491264 0.609416 0.821725 0.479294
C41   C     C_R   0.645634 0.899147 0.466059 -0.233886
C42   C     C_R   0.559414 0.842116 0.462812 -0.166582
C43   C     C_R   0.523227 0.134917 0.511603 -0.254907
C44   C     C_R   0.700130 0.161466 0.496843 -0.202223
C45   C     C_R   0.489206 0.612270 0.872747 -0.069082
C46   C     C_R   0.403471 0.800572 0.494957 -0.109408
C47   C     C_R   0.086685 0.346162 0.431776 -0.296270
C48   C     C_R   0.800772 0.629605 0.558714 0.020518
C49   C     C_R   0.906350 0.657016 0.571310 -0.259176
C50   C     C_R   0.987620 0.607560 0.549342 -0.196113
C51   C     C_R   0.963363 0.529792 0.514497 0.015764
C52   C     C_R   0.501787 0.427427 0.821186 0.488405
C53   C     C_R   0.854603 0.503955 0.503373 0.240086
C54   C     C_R   0.042113 0.476815 0.490343 -0.015815
C55   C     C_R   0.010734 0.398994 0.456075 0.184465
C56   C     C_R   0.485782 0.704649 0.900220 0.107094
C57   C     C_R   0.903953 0.374373 0.446396 -0.280488
C58   C     C_R   0.827310 0.426031 0.469772 -0.163549
C59   C     C_R   0.151378 0.497673 0.498561 -0.049690
C60   C     C_R   0.193177 0.370558 0.441554 0.010421
C61   C     C_R   0.595658 0.511048 0.731859 -0.124855
C62   C     C_R   0.597907 0.506136 0.682097 -0.230108
C63   C     C_R   0.398633 0.515748 0.660735 -0.224809
C64   C     C_3   0.287181 0.531162 0.728093 -0.414696
C65   C     C_3   0.181606 0.538224 0.686816 -0.368511
C66   C     C_3   0.079106 0.549753 0.708243 -0.860333
C67   C     C_R   0.498852 0.424999 0.871005 -0.004845
C68   C     C_3   0.405193 0.060102 0.588006 -0.433997
C69   C     C_3   0.517075 0.036638 0.624685 -0.350979
C70   C     C_3   0.525825 0.108738 0.668565 -0.811065
C71   C     C_3   0.490878 0.808445 0.877074 -0.326041
C72   C     C_3   0.493678 0.901969 0.911027 -0.437058
C73   C     C_3   0.500685 0.998877 0.882983 -0.837054
C74   C     C_R   0.499532 0.507427 0.646346 -0.073902
C75   C     C_R   0.495097 0.500340 0.352684 -0.090394
H1    H     H_    0.323540 0.518132 0.632477 0.151341
H2    H     H_    0.793729 0.030063 0.473525 0.139844
H3    H     H_    0.440774 0.166498 0.512942 0.164855
H4    H     H_    0.255624 0.780350 0.519124 0.158991
H5    H     H_    0.245452 0.940852 0.561356 0.138694
H6    H     H_    0.560248 0.774126 0.440491 0.184887
H7    H     H_    0.253315 0.330351 0.423287 0.134864
H8    H     H_    0.879348 0.314752 0.420540 0.158086
H9    H     H_    0.063922 0.286618 0.405596 0.149242
H10   H     H_    0.182955 0.554973 0.523855 0.119556
H11   H     H_    0.737210 0.667902 0.575592 0.140268
H12   H     H_    0.672061 0.508435 0.759518 0.140607
H13   H     H_    0.068102 0.631653 0.560419 0.128370
H14   H     H_    0.925200 0.716439 0.598016 0.152673
H15   H     H_    0.747136 0.402950 0.460821 0.208211
H16   H     H_    0.344444 0.429655 0.334169 0.183652
H17   H     H_    0.332244 0.430872 0.245067 0.153186
H18   H     H_    0.397362 0.760218 0.114107 0.189808
H19   H     H_    0.401590 0.766627 0.028976 0.140375
H20   H     H_    0.480407 0.767349 0.971008 0.139689
H21   H     H_    0.676457 0.500029 0.671670 0.165101
H22   H     H_    0.711176 0.604147 0.345201 0.331674
H23   H     H_    0.504944 0.260347 0.874879 0.187507
H24   H     H_    0.080394 0.482940 0.732429 0.264039
H25   H     H_    0.074701 0.620817 0.730072 0.261156
H26   H     H_    0.004474 0.554188 0.677620 0.253821
H27   H     H_    0.176806 0.605612 0.662384 0.221345
H28   H     H_    0.181990 0.467682 0.664401 0.229591
H29   H     H_    0.289354 0.463950 0.752218 0.217062
H30   H     H_    0.282473 0.600869 0.750918 0.217784
H31   H     H_    0.517646 0.189312 0.655587 0.264642
H32   H     H_    0.460579 0.100452 0.688845 0.266095
H33   H     H_    0.607290 0.089939 0.694409 0.252292
H34   H     H_    0.544107 0.249972 0.035812 0.142658
H35   H     H_    0.527402 0.956506 0.638632 0.230498
H36   H     H_    0.585416 0.044919 0.606407 0.233647
H37   H     H_    0.388937 0.141299 0.576323 0.197457
H38   H     H_    0.341094 0.052830 0.609181 0.200876
H39   H     H_    0.576917 0.990426 0.868592 0.267746
H40   H     H_    0.428029 0.014880 0.851584 0.266796
H41   H     H_    0.502364 0.064852 0.908345 0.241814
H42   H     H_    0.417497 0.914303 0.925506 0.228926
H43   H     H_    0.566776 0.889477 0.942481 0.232769
H44   H     H_    0.566715 0.802022 0.862368 0.240487
H45   H     H_    0.539402 0.248621 0.120837 0.189477
H46   H     H_    0.417219 0.825420 0.846195 0.241022
H47   H     H_    0.629110 0.569738 0.266507 0.137186
H48   H     H_    0.497835 0.253537 0.959157 0.138112
H49   H     H_    0.759121 0.211806 0.492725 0.152628
H50   H     H_    0.711874 0.872572 0.447986 0.159721
N1    N     N_R   0.496619 0.518418 0.797835 -0.349757
N2    N     N_R   0.472349 0.501652 0.198556 -0.346091
N3    N     N_R   0.222180 0.444690 0.474320 -0.101989
N4    N     N_R   0.776980 0.554780 0.525420 -0.129739
O1    O     O_R   0.366730 0.627160 0.487740 -0.614534
O2    O     O_R   0.410930 0.482330 0.420550 -0.629524
O3    O     O_R   0.589030 0.517690 0.436960 -0.575429
O4    O     O_2   0.486593 0.695613 0.795401 -0.600363
O5    O     O_3   0.662183 0.580206 0.364880 -0.755139
O6    O     O_2   0.421918 0.679824 0.197214 -0.556909
O7    O     O_2   0.508793 0.339541 0.795816 -0.575344
O8    O     O_2   0.519643 0.323025 0.201755 -0.560411
O9    O     O_R   0.544830 0.662520 0.504140 -0.617179
O10   O     O_R   0.410970 0.482310 0.563040 -0.626383
O11   O     O_R   0.589070 0.517670 0.579450 -0.622278
O12   O     O_R   0.455170 0.337480 0.495860 -0.622029
O13   O     O_R   0.633270 0.372840 0.512260 -0.645747
Zn1   Zn    Zn3+2 0.381080 0.476390 0.489050 0.938719
Zn2   Zn    Zn3+2 0.618920 0.523610 0.510950 0.950959

loop_
_geom_bond_atom_site_label_1
_geom_bond_atom_site_label_2
_ccdc_geom_bond_type
C10   C27   A    
O3    Zn2   S    
C15   C75   A    
C8    C13   A    
C22   C29   A    
C62   H21   S    
C41   C42   A    
C16   O13   A    
C35   C36   A    
C25   C67   A    
C64   H30   S    
C39   C41   A    
N4    Zn2   S    
C27   H45   S    
C16   C31   S    
C12   C23   A    
C26   C27   A    
C73   H41   S    
C31   C43   A    
C65   H27   S    
C36   C37   A    
C70   H32   S    
O12   Zn1   S    
C38   C39   A    
C12   C64   S    
C1    C46   S    
C63   H1    S    
C18   C19   A    
C68   H37   S    
C66   H25   S    
C37   C42   A    
C61   H12   S    
C47   C60   A    
C30   H2    S    
O10   Zn1   S    
C20   C24   A    
C45   C56   A    
C68   C69   S    
C6    H19   S    
C72   H42   S    
C57   H8    S    
C9    C10   A    
C4    C74   S    
C50   H13   S    
C68   H38   S    
C21   C22   A    
C13   O6    S    
C66   H26   S    
C30   C44   A    
C2    C6    A    
C42   H6    S    
C60   H7    S    
H22   O5    S    
C50   C51   A    
C28   O3    A    
C54   C59   A    
C25   C29   A    
C40   C45   A    
C7    H18   S    
C31   C44   A    
C2    C20   A    
C41   H50   S    
C7    C8    A    
C1    O1    A    
C70   H31   S    
C24   H20   S    
C12   C63   A    
C52   N1    A    
C8    C9    A    
C21   C34   A    
C59   N3    A    
C44   H49   S    
C73   H39   S    
C43   H3    S    
C66   H24   S    
C11   N2    A    
C59   H10   S    
C5    C9    A    
C4    O11   A    
C69   H35   S    
C60   N3    A    
C56   C71   S    
C40   N1    A    
C17   C18   A    
C34   C45   A    
C47   H9    S    
O1    Zn1   S    
C58   H15   S    
C26   H34   S    
C14   H17   S    
C52   C67   A    
C18   H47   S    
C23   N1    S    
C48   C49   A    
C49   C50   A    
C55   C57   A    
C52   O7    S    
O13   Zn2   S    
C48   N4    A    
C2    C5    A    
C53   N4    A    
C65   H28   S    
O2    Zn1   S    
C47   C55   A    
C64   H29   S    
C54   C55   A    
C32   C46   A    
C14   C19   A    
C71   H46   S    
C3    C26   A    
O11   Zn2   S    
C49   H14   S    
C72   C73   S    
C3    C5    A    
C34   C67   A    
C53   C58   A    
C33   H5    S    
C6    C7    A    
C63   C74   A    
C24   C56   A    
C40   O4    S    
C73   H40   S    
C71   H44   S    
C28   O2    A    
C64   C65   S    
C51   C54   A    
C36   C38   A    
C16   O12   A    
C11   O8    S    
C38   C43   A    
C70   H33   S    
C32   C33   A    
C32   H4    S    
C69   H36   S    
C57   C58   A    
C35   C68   S    
C29   H48   S    
C19   N2    S    
C33   C35   A    
C30   C39   A    
C48   H11   S    
C61   C62   A    
N3    Zn1   S    
C69   C70   S    
C10   C11   A    
C15   H16   S    
C13   N2    A    
C25   H23   S    
C23   C61   A    
C71   C72   S    
C20   C21   A    
C65   C66   S    
C72   H43   S    
C17   O5    S    
C17   C75   A    
C14   C15   A    
C62   C74   A    
C3    C22   A    
O9    Zn2   S    
C51   C53   A    
C37   C46   A    
C28   C75   S    
C1    O9    A    
C4    O10   A    
