data_mof_unit_47702.cif
_audit_creation_date              2012-12-10T16:37:22-0500
_audit_creation_method            fapswitch 2.2
_symmetry_space_group_name_H-M    P1
_symmetry_Int_Tables_number       1
_space_group_crystal_system       triclinic
_cell_length_a                    16.842415
_cell_length_b                    16.94718
_cell_length_c                    16.908323
_cell_angle_alpha                 65.76076
_cell_angle_beta                  65.747836
_cell_angle_gamma                 65.805221
_cell_volume                      3839.72871369

loop_
_atom_site_label
_atom_site_type_symbol
_atom_type_description
_atom_site_fract_x
_atom_site_fract_y
_atom_site_fract_z
_atom_type_partial_charge
C1    C     C_R   0.397991 0.055973 0.665258 0.711543
C2    C     C_R   0.402425 0.669278 0.038947 0.709341
C3    C     C_R   0.035354 0.560504 0.316987 0.704882
C4    C     C_R   0.048652 0.400623 0.667418 0.711902
C5    C     C_R   0.963279 0.178901 0.437734 0.884059
C6    C     C_R   0.022592 0.822982 0.568209 0.893395
C7    C     C_R   0.179009 0.438060 0.962527 0.866861
C8    C     C_R   0.823652 0.568998 0.020665 0.910666
C9    C     C_R   0.429953 0.982050 0.175376 0.880413
C10   C     C_R   0.562636 0.036389 0.820774 0.905919
C11   C     C_R   0.562090 0.821032 0.037023 0.908236
C12   C     C_R   0.532024 0.087728 0.299443 0.710171
C13   C     C_R   0.432492 0.177602 0.975653 0.871087
C14   C     C_R   0.036947 0.562203 0.821069 0.864153
C15   C     C_R   0.978385 0.431423 0.176671 0.910787
C16   C     C_R   0.820548 0.036731 0.562446 0.868355
C17   C     C_R   0.179332 0.963545 0.437652 0.901655
C18   C     C_R   0.443222 0.071498 0.707901 -0.281454
C19   C     C_R   0.489768 0.067231 0.257705 -0.291176
C20   C     C_R   0.975096 0.726884 0.483909 -0.283444
C21   C     C_R   0.935964 0.292405 0.553161 -0.280226
C22   C     C_R   0.733631 0.496971 0.954884 -0.279609
C23   C     C_R   0.975857 0.679151 0.433606 0.697245
C24   C     C_R   0.293473 0.555117 0.927664 -0.286012
C25   C     C_R   0.297271 0.941374 0.548553 -0.270537
C26   C     C_R   0.703592 0.076235 0.443873 -0.290583
C27   C     C_R   0.524374 0.277332 0.010717 -0.285116
C28   C     C_R   0.447154 0.708032 0.060479 -0.275339
C29   C     C_R   0.033943 0.510602 0.270127 -0.283665
C30   C     C_R   0.067613 0.446374 0.707012 -0.284404
C31   C     C_R   0.530015 0.053164 0.533839 -0.130925
C32   C     C_R   0.440174 0.019848 0.446515 -0.128717
C33   C     C_R   0.014871 0.539810 0.549399 -0.135854
C34   C     C_R   0.955820 0.331800 0.598474 0.711731
C35   C     C_R   0.992500 0.447645 0.457935 -0.136525
C36   C     C_R   0.544860 0.556632 0.997964 -0.132135
C37   C     C_R   0.454501 0.463773 0.974865 -0.134245
C38   C     C_R   0.567369 0.060444 0.440135 -0.042027
C39   C     C_R   0.405833 0.007615 0.541058 -0.042539
C40   C     C_R   0.016328 0.447981 0.590824 -0.040306
C41   C     C_R   0.008111 0.532869 0.412038 -0.037613
C42   C     C_R   0.451663 0.595574 0.002544 -0.040314
C43   C     C_R   0.542727 0.420848 0.984464 -0.046103
C44   C     C_R   0.515290 0.055416 0.394532 -0.041367
C45   C     C_R   0.687942 0.448029 0.949784 0.709847
C46   C     C_R   0.444051 0.036961 0.581437 -0.042416
C47   C     C_R   0.411483 0.554900 0.975584 -0.039568
C48   C     C_R   0.592524 0.473365 0.978523 -0.036578
C49   C     C_R   0.989710 0.407308 0.550337 -0.042177
C50   C     C_R   0.001765 0.584426 0.462903 -0.032545
C51   C     C_R   0.537399 0.062779 0.671967 0.001456
C52   C     C_R   0.428442 0.015017 0.308588 -0.000551
C53   C     C_R   0.010235 0.682266 0.559285 0.001963
C54   C     C_R   0.954511 0.322785 0.457760 0.009125
C55   C     C_R   0.686033 0.566671 0.997309 -0.004835
C56   C     C_R   0.333333 0.601472 0.945539 0.712170
C57   C     C_R   0.325508 0.459982 0.945784 0.005340
C58   C     C_R   0.323040 0.963387 0.453482 0.007019
C59   C     C_R   0.669073 0.065976 0.537894 0.006729
C60   C     C_R   0.445382 0.320334 0.980737 -0.003663
C61   C     C_R   0.542859 0.678460 0.041878 0.008607
C62   C     C_R   0.995691 0.437539 0.316019 -0.002068
C63   C     C_R   0.049103 0.541544 0.676019 0.004935
C64   C     C_R   0.591137 0.058334 0.722014 -0.089942
C65   C     C_R   0.392173 0.982957 0.268430 -0.070448
C66   C     C_R   0.027646 0.727808 0.603033 -0.078160
C67   C     C_R   0.337877 0.962410 0.591814 0.704721
C68   C     C_R   0.949437 0.275877 0.406922 -0.086897
C69   C     C_R   0.729382 0.606104 0.022165 -0.081071
C70   C     C_R   0.276991 0.407879 0.945497 -0.082588
C71   C     C_R   0.276788 0.951861 0.405958 -0.095721
C72   C     C_R   0.721050 0.059298 0.591151 -0.081898
C73   C     C_R   0.399235 0.273510 0.967767 -0.072139
C74   C     C_R   0.593027 0.724339 0.049831 -0.092514
C75   C     C_R   0.975144 0.395539 0.271407 -0.082625
C76   C     C_R   0.052094 0.592842 0.723664 -0.080481
C77   C     C_R   0.679550 0.061028 0.679647 -0.288871
C78   C     C_R   0.656164 0.069804 0.396926 0.696598
C79   C     C_R   0.318052 0.950945 0.317830 -0.288386
C80   C     C_R   0.050352 0.681800 0.682621 -0.296374
C81   C     C_R   0.950646 0.317056 0.317976 -0.288337
C82   C     C_R   0.681966 0.682882 0.049471 -0.286316
C83   C     C_R   0.318031 0.318791 0.947718 -0.295423
C84   C     C_R   0.578787 0.061112 0.581009 0.058310
C85   C     C_R   0.398025 0.998338 0.403171 0.056208
C86   C     C_R   0.025951 0.587651 0.594343 0.058287
C87   C     C_R   0.979821 0.403151 0.410815 0.060864
C88   C     C_R   0.590983 0.600157 0.013299 0.062176
C89   C     C_R   0.574631 0.326390 0.007829 0.729464
C90   C     C_R   0.409073 0.414895 0.965773 0.059412
F1    F     F_    0.306737 0.069801 0.701880 -0.579096
F2    F     F_    0.310136 0.698051 0.063590 -0.579452
F3    F     F_    0.073067 0.629759 0.268878 -0.587699
F4    F     F_    0.071838 0.309006 0.698610 -0.581163
F5    F     F_    0.580157 0.148238 0.246745 -0.582062
F6    F     F_    0.940704 0.726358 0.362429 -0.602188
F7    F     F_    0.931937 0.301613 0.690389 -0.575040
F8    F     F_    0.737223 0.381760 0.908350 -0.586936
F9    F     F_    0.300637 0.692976 0.923717 -0.579246
F10   F     F_    0.316114 0.930072 0.683575 -0.583299
F11   F     F_    0.703122 0.063034 0.311745 -0.581280
F12   F     F_    0.648476 0.280171 0.039292 -0.563364
H1    H     H_    0.719292 0.056721 0.718819 0.199100
H2    H     H_    0.903441 0.239448 0.594575 0.201340
H3    H     H_    0.806074 0.479916 0.922909 0.210092
H4    H     H_    0.238291 0.595435 0.897791 0.201529
H5    H     H_    0.248082 0.904006 0.590806 0.199335
H6    H     H_    0.767372 0.090830 0.403274 0.212226
H7    H     H_    0.548856 0.205960 0.040645 0.215765
H8    H     H_    0.405140 0.759642 0.094509 0.201873
H9    H     H_    0.066295 0.529608 0.198147 0.214506
H10   H     H_    0.099127 0.405499 0.760835 0.202131
H11   H     H_    0.287087 0.932858 0.285128 0.194931
H12   H     H_    0.059516 0.717745 0.717114 0.197395
H13   H     H_    0.939493 0.283500 0.282525 0.197664
H14   H     H_    0.716739 0.715149 0.063363 0.196953
H15   H     H_    0.282295 0.282067 0.941293 0.197801
H16   H     H_    0.401744 0.093246 0.767769 0.207836
H17   H     H_    0.502674 0.096878 0.185312 0.186251
H18   H     H_    0.942982 0.798494 0.463232 0.215894
O1    O     O_R   0.982940 0.138950 0.510160 -0.623869
O2    O     O_R   0.982940 0.510160 0.138950 -0.628516
O3    O     O_R   0.861050 0.017060 0.489840 -0.639552
O4    O     O_R   0.138950 0.982940 0.510160 -0.620484
O5    O     O_R   0.867700 0.025880 0.612340 -0.625928
O6    O     O_R   0.132300 0.974120 0.387660 -0.610019
O7    O     O_R   0.025880 0.612340 0.867700 -0.626916
O8    O     O_R   0.974120 0.387660 0.132300 -0.614410
O9    O     O_R   0.612340 0.867700 0.025880 -0.612431
O10   O     O_R   0.387660 0.132300 0.974120 -0.630321
O11   O     O_R   0.387660 0.974120 0.132300 -0.631176
O12   O     O_R   0.017060 0.861050 0.489840 -0.634617
O13   O     O_R   0.612340 0.025880 0.867700 -0.614887
O14   O     O_R   0.132300 0.387660 0.974120 -0.626798
O15   O     O_R   0.867700 0.612340 0.025880 -0.617157
O16   O     O_R   0.974120 0.132300 0.387660 -0.621185
O17   O     O_R   0.025880 0.867700 0.612340 -0.626509
O18   O     O_R   0.138950 0.510160 0.982940 -0.636134
O19   O     O_R   0.861050 0.489840 0.017060 -0.623874
O20   O     O_R   0.510160 0.982940 0.138950 -0.631783
O21   O     O_R   0.489840 0.017060 0.861050 -0.625078
O22   O     O_R   0.489840 0.861050 0.017060 -0.622754
O23   O     O_R   0.510160 0.138950 0.982940 -0.649149
O24   O     O_R   0.017060 0.489840 0.861050 -0.637981
Zn1   Zn    Zn3+2 0.004880 0.004880 0.583590 1.037564
Zn2   Zn    Zn3+2 0.995120 0.995120 0.416410 1.031097
Zn3   Zn    Zn3+2 0.004880 0.583590 0.004880 1.032322
Zn4   Zn    Zn3+2 0.995120 0.416410 0.995120 1.038285
Zn5   Zn    Zn3+2 0.583590 0.004880 0.004880 1.031897
Zn6   Zn    Zn3+2 0.416410 0.995120 0.995120 1.035762

loop_
_geom_bond_atom_site_label_1
_geom_bond_atom_site_label_2
_ccdc_geom_bond_type
C5    O16   A    
C15   C75   S    
C65   C79   A    
C15   O2    A    
C89   F12   S    
C64   C77   A    
C36   C42   A    
C16   C72   S    
C10   O13   A    
O24   Zn4   S    
C7    C70   S    
C71   C79   A    
O6    Zn2   S    
C36   C88   A    
C38   C44   A    
C1    C18   A    
C43   C89   A    
C37   C90   A    
C8    O19   A    
C68   C81   A    
O17   Zn1   S    
C52   C85   A    
C16   O3    A    
C45   F8    S    
C54   C87   A    
C9    O20   A    
C17   O6    A    
C54   C68   A    
C63   C76   A    
C40   C49   A    
C5    O1    A    
C60   C73   A    
C34   F7    S    
C23   F6    S    
C32   C39   A    
C55   C88   A    
C3    C29   A    
C69   C82   A    
C21   H2    S    
C35   C87   A    
C19   C52   A    
O10   Zn6   S    
C4    C40   A    
C24   C57   A    
C31   C46   A    
C25   C67   A    
C35   C49   A    
C13   O10   A    
O3    Zn2   S    
C12   F5    S    
C36   C48   A    
C53   C86   A    
C57   C70   A    
C37   C47   A    
C43   C48   A    
C18   H16   S    
C59   C72   A    
C28   C61   A    
C19   H17   S    
C1    F1    S    
C30   C63   A    
C8    O15   A    
C74   C82   A    
C5    C68   S    
C11   O9    A    
O21   Zn6   S    
C9    O11   A    
C32   C44   A    
C14   O24   A    
O19   Zn4   S    
C33   C40   A    
C57   C90   A    
O13   Zn5   S    
C59   C84   A    
C7    O14   A    
C6    O12   A    
O4    Zn1   S    
C26   H6    S    
C75   C81   A    
C23   C50   A    
C21   C34   A    
C38   C78   A    
C28   H8    S    
C33   C50   A    
C4    C30   A    
C14   O7    A    
C30   H10   S    
C10   O21   A    
C14   C76   S    
C37   C43   A    
C33   C86   A    
O9    Zn5   S    
C72   C77   A    
C70   C83   A    
C61   C88   A    
C17   O4    A    
C20   C23   A    
O23   Zn5   S    
O18   Zn3   S    
C81   H13   S    
C8    C69   S    
C3    F3    S    
C26   C78   A    
O2    Zn3   S    
C2    F2    S    
C53   C66   A    
C55   C69   A    
C67   F10   S    
C39   C46   A    
C4    F4    S    
C16   O5    A    
C80   H12   S    
C17   C71   S    
O15   Zn3   S    
C15   O8    A    
C79   H11   S    
C63   C86   A    
C61   C74   A    
O1    Zn1   S    
C62   C75   A    
C77   H1    S    
C24   H4    S    
C25   C58   A    
C58   C85   A    
C41   C50   A    
C20   H18   S    
C66   C80   A    
C25   H5    S    
C26   C59   A    
C45   C48   A    
C29   C62   A    
C3    C41   A    
C34   C49   A    
C39   C67   A    
C29   H9    S    
O8    Zn4   S    
C51   C64   A    
C76   C80   A    
C13   C73   S    
C20   C53   A    
C11   C74   S    
C7    O18   A    
C22   C55   A    
C60   C90   A    
C18   C51   A    
C24   C56   A    
C22   H3    S    
O14   Zn4   S    
C62   C87   A    
C10   C64   S    
C31   C38   A    
C27   C60   A    
O12   Zn2   S    
C83   H15   S    
C6    O17   A    
C82   H14   S    
C12   C44   A    
O5    Zn1   S    
O22   Zn6   S    
C21   C54   A    
C2    C42   A    
C32   C85   A    
O20   Zn5   S    
C12   C19   A    
C1    C46   A    
C27   C89   A    
C42   C47   A    
C13   O23   A    
C35   C41   A    
C11   O22   A    
C9    C65   S    
C58   C71   A    
C31   C84   A    
C6    C66   S    
C22   C45   A    
C27   H7    S    
O11   Zn6   S    
C2    C28   A    
C56   F9    S    
C51   C84   A    
C73   C83   A    
O16   Zn2   S    
C52   C65   A    
O7    Zn3   S    
C47   C56   A    
C78   F11   S    
