data_mof_unit_57251.cif
_audit_creation_date              2012-10-26T18:44:50-0400
_audit_creation_method            fapswitch 2.2
_symmetry_space_group_name_H-M    P1
_symmetry_Int_Tables_number       1
_space_group_crystal_system       triclinic
_cell_length_a                    16.049628
_cell_length_b                    14.72705
_cell_length_c                    10.628116
_cell_angle_alpha                 90.251489
_cell_angle_beta                  86.965869
_cell_angle_gamma                 90.093188
_cell_volume                      2508.55242611

loop_
_atom_site_label
_atom_site_type_symbol
_atom_type_description
_atom_site_fract_x
_atom_site_fract_y
_atom_site_fract_z
_atom_type_partial_charge
C1    C     C_1   0.251533 0.499664 0.504940 0.094668
C2    C     C_R   0.573942 0.048003 0.471434 -0.094667
C3    C     C_R   0.961976 0.519266 0.389654 0.140163
C4    C     C_R   0.036847 0.492877 0.620435 0.137957
C5    C     C_R   0.048954 0.504663 0.389495 0.201519
C6    C     C_R   0.949806 0.479703 0.614166 0.211110
C7    C     C_R   0.340735 0.499911 0.500548 0.572182
C8    C     C_R   0.659119 0.500073 0.499751 0.588910
C9    C     C_R   0.514455 0.499682 0.260656 0.600960
C10   C     C_R   0.486888 0.500193 0.739892 0.580266
C11   C     C_R   0.912508 0.499379 0.500040 -0.067407
C12   C     C_1   0.748003 0.500319 0.497635 0.139318
C13   C     C_R   0.086561 0.498409 0.506446 -0.066667
C14   C     C_1   0.499961 0.802816 0.499772 0.220816
C15   C     C_1   0.500100 0.197205 0.499720 0.198178
C16   C     C_1   0.822874 0.500201 0.497239 0.127540
C17   C     C_1   0.176445 0.499044 0.507887 0.103136
C18   C     C_R   0.565867 0.664312 0.095978 0.262663
C19   C     C_R   0.438937 0.334944 0.907429 0.264039
C20   C     C_R   0.450659 0.669704 0.906171 0.258261
C21   C     C_R   0.557614 0.332320 0.091694 0.216638
C22   C     C_R   0.542175 0.746820 0.045015 -0.117426
C23   C     C_R   0.470537 0.501104 0.879746 0.047611
C24   C     C_R   0.465032 0.252821 0.957327 -0.126443
C25   C     C_R   0.482325 0.749674 0.956161 -0.139404
C26   C     C_R   0.526489 0.251375 0.043896 -0.129982
C27   C     C_R   0.481726 0.584106 0.945721 -0.037597
C28   C     C_R   0.523317 0.416601 0.054428 -0.065183
C29   C     C_R   0.528000 0.582198 0.055663 -0.052586
C30   C     C_R   0.476287 0.417866 0.945756 -0.038528
C31   C     C_R   0.532982 0.499066 0.121282 0.029214
C32   C     C_R   0.499979 0.902908 0.499457 0.001622
C33   C     C_R   0.500091 0.097154 0.499477 -0.007093
C34   C     C_R   0.573902 0.952073 0.471540 -0.094978
C35   C     C_R   0.426175 0.048014 0.527320 -0.097875
C36   C     C_R   0.426090 0.952107 0.527094 -0.101044
Cu1   Cu    Cu3+1 0.500000 0.589220 0.500000 1.150787
Cu2   Cu    Cu3+1 0.500000 0.410780 0.500000 1.155964
H1    H     H_    0.550341 0.186506 0.073238 0.168449
H2    H     H_    0.771329 0.363137 0.771307 0.367778
H3    H     H_    0.867981 0.687394 0.360538 0.331118
H4    H     H_    0.140826 0.638183 0.725438 0.358269
H5    H     H_    0.691520 0.743864 0.349510 0.373304
H6    H     H_    0.267602 0.428999 0.743878 0.393451
H7    H     H_    0.348168 0.824351 0.770160 0.344146
H8    H     H_    0.719245 0.422803 0.046900 0.365800
H9    H     H_    0.460191 0.815224 0.926588 0.143229
H10   H     H_    0.438115 0.189170 0.927905 0.165050
H11   H     H_    0.569655 0.809874 0.075619 0.172198
H12   H     H_    0.631842 0.083853 0.449482 0.159975
H13   H     H_    0.368088 0.916364 0.548502 0.155700
H14   H     H_    0.368304 0.083865 0.549237 0.160249
H15   H     H_    0.631803 0.916262 0.449787 0.147398
H16   H     H_    0.223525 0.418888 0.186130 0.391410
N1    N     N_1   0.500000 0.276710 0.500000 -0.134179
N2    N     N_1   0.500000 0.723290 0.500000 -0.131390
O1    O     O_R   0.380310 0.575320 0.500020 -0.457203
O2    O     O_2   0.149734 0.580803 0.209691 -0.212194
O3    O     O_3   0.187007 0.414613 0.264012 -0.522104
O4    O     O_2   0.937269 0.384504 0.833895 -0.128498
O5    O     O_2   0.847916 0.518383 0.815777 -0.231534
O6    O     O_3   0.810327 0.370931 0.696706 -0.528821
O7    O     O_2   0.976562 0.622045 0.176411 -0.148218
O8    O     O_2   0.876852 0.495873 0.181304 -0.104127
O9    O     O_3   0.839270 0.641330 0.310166 -0.474825
O10   O     O_2   0.021428 0.548776 0.864764 -0.119412
O11   O     O_2   0.112022 0.418711 0.814573 -0.151203
O12   O     O_R   0.619690 0.424680 0.499980 -0.457497
O13   O     O_3   0.164496 0.579980 0.753197 -0.451272
O14   O     O_2   0.677815 0.578525 0.237938 -0.212070
O15   O     O_2   0.727362 0.702168 0.101425 -0.189460
O16   O     O_3   0.639234 0.743789 0.304037 -0.552589
O17   O     O_2   0.366300 0.294621 0.693607 -0.297007
O18   O     O_2   0.286399 0.265504 0.890672 -0.218672
O19   O     O_3   0.301314 0.431971 0.818941 -0.430821
O20   O     O_2   0.334999 0.599985 0.753742 -0.203326
O21   O     O_2   0.287982 0.704602 0.919825 -0.210304
O22   O     O_3   0.369310 0.770152 0.723185 -0.546246
O23   O     O_R   0.619690 0.575320 0.499980 -0.488724
O24   O     O_2   0.638528 0.309766 0.303816 -0.232765
O25   O     O_2   0.702363 0.244705 0.111636 -0.250185
O26   O     O_3   0.711099 0.418466 0.139736 -0.409708
O27   O     O_R   0.380310 0.424680 0.500020 -0.470205
O28   O     O_R   0.499990 0.575350 0.319650 -0.481482
O29   O     O_R   0.500010 0.424650 0.680350 -0.490596
O30   O     O_R   0.500010 0.575350 0.680350 -0.483990
O31   O     O_R   0.499990 0.424650 0.319650 -0.482293
O32   O     O_2   0.058711 0.457881 0.141348 -0.105485
S1    S     S_3+6 0.110834 0.491046 0.245644 0.122862
S2    S     S_3+6 0.886682 0.438694 0.746009 0.095538
S3    S     S_3+6 0.914767 0.569338 0.258430 0.148276
S4    S     S_3+6 0.082801 0.508829 0.768213 0.127262
S5    S     S_3+6 0.655618 0.668965 0.185648 0.074451
S6    S     S_3+6 0.346566 0.329943 0.824426 0.051195
S7    S     S_3+6 0.358009 0.683236 0.824779 0.072834
S8    S     S_3+6 0.653748 0.324454 0.165092 0.051821

loop_
_geom_bond_atom_site_label_1
_geom_bond_atom_site_label_2
_ccdc_geom_bond_type
C7    O27   A    
C21   C26   A    
C10   O29   A    
H5    O16   S    
Cu2   O27   S    
C27   C29   A    
O18   S6    D    
C14   N2    T    
C35   C36   A    
Cu1   O23   S    
C32   C36   A    
C24   C26   A    
O20   S7    D    
C26   H1    S    
C20   C25   A    
H2    O6    S    
C3    S3    S    
O3    S1    S    
C4    C13   A    
C2    H12   S    
H8    O26   S    
Cu1   N2    S    
Cu2   N1    S    
C12   C16   T    
C22   C25   A    
C8    O23   A    
Cu1   O28   S    
H7    O22   S    
C23   C27   A    
O24   S8    D    
O13   S4    S    
C25   H9    S    
C5    C13   A    
C2    C34   A    
C1    C7    S    
O17   S6    D    
H16   O3    S    
O26   S8    S    
Cu2   O29   S    
C24   H10   S    
C23   C30   A    
Cu1   O30   S    
O14   S5    D    
C4    C6    A    
C6    C11   A    
O25   S8    D    
O10   S4    D    
C6    S2    S    
O21   S7    D    
H4    O13   S    
C32   C34   A    
H6    O19   S    
Cu1   Cu2   S    
C11   C16   S    
O22   S7    S    
C8    C12   S    
C18   C29   A    
C19   S6    S    
C36   H13   S    
C22   H11   S    
O16   S5    S    
C2    C33   A    
C20   C27   A    
C20   S7    S    
Cu2   O12   S    
C8    O12   A    
O5    S2    D    
O9    S3    S    
C10   O30   A    
C18   C22   A    
C21   C28   A    
C28   C31   A    
C14   C32   S    
C3    C5    A    
H3    O9    S    
O15   S5    D    
C21   S8    S    
O4    S2    D    
C10   C23   S    
C1    C17   T    
C13   C17   S    
Cu2   O31   S    
C28   C30   A    
C19   C24   A    
C29   C31   A    
C9    O31   A    
O6    S2    S    
O11   S4    D    
C33   C35   A    
C7    O1    A    
O2    S1    D    
C5    S1    S    
C3    C11   A    
C9    C31   S    
C9    O28   A    
O32   S1    D    
C34   H15   S    
O7    S3    D    
C35   H14   S    
C18   S5    S    
O8    S3    D    
C19   C30   A    
C15   C33   S    
Cu1   O1    S    
O19   S6    S    
C15   N1    T    
C4    S4    S    
