data_mof_unit_64779.cif
_audit_creation_date              2012-12-10T17:28:53-0500
_audit_creation_method            fapswitch 2.2
_symmetry_space_group_name_H-M    P1
_symmetry_Int_Tables_number       1
_space_group_crystal_system       triclinic
_cell_length_a                    18.523561
_cell_length_b                    18.883563
_cell_length_c                    18.913436
_cell_angle_alpha                 109.652542
_cell_angle_beta                  108.990108
_cell_angle_gamma                 108.878964
_cell_volume                      5147.90077527

loop_
_atom_site_label
_atom_site_type_symbol
_atom_type_description
_atom_site_fract_x
_atom_site_fract_y
_atom_site_fract_z
_atom_type_partial_charge
C1    C     C_R   0.619822 0.499133 0.619419 0.824121
C2    C     C_R   0.379069 0.499789 0.380970 0.836798
C3    C     C_3   0.267785 0.217459 0.415401 0.323149
C4    C     C_3   0.699964 0.782498 0.552881 0.314661
C5    C     C_3   0.307899 0.310576 0.497561 -0.062847
C6    C     C_3   0.690523 0.689594 0.501135 -0.059797
C7    C     C_3   0.186467 0.188018 0.497388 -0.168313
C8    C     C_3   0.811872 0.810711 0.499805 -0.165987
C9    C     C_3   0.156446 0.254567 0.487128 0.236509
C10   C     C_3   0.853910 0.771208 0.551283 0.248095
C11   C     C_3   0.202842 0.146008 0.422545 0.217018
C12   C     C_3   0.761730 0.848293 0.538085 0.220582
C13   C     C_3   0.756494 0.592881 0.763665 0.198569
C14   C     C_3   0.231724 0.405854 0.249138 0.163837
C15   C     C_3   0.831674 0.595947 0.833323 -0.104924
C16   C     C_3   0.158584 0.403037 0.177160 -0.074983
C17   C     C_3   0.647251 0.447823 0.726207 -0.412380
C18   C     C_3   0.347794 0.532791 0.262112 -0.382937
C19   C     C_3   0.739111 0.453432 0.650876 0.345195
C20   C     C_3   0.272959 0.561667 0.351818 0.320918
C21   C     C_3   0.689450 0.498156 0.687776 -0.143952
C22   C     C_3   0.309011 0.500295 0.313304 -0.134093
C23   C     C_R   0.379233 0.380241 0.499561 0.827149
C24   C     C_R   0.619773 0.619765 0.499503 0.857794
C25   C     C_3   0.812453 0.501588 0.812121 -0.143472
C26   C     C_3   0.186972 0.496205 0.187347 -0.137792
C27   C     C_3   0.718889 0.451675 0.800720 0.166871
C28   C     C_3   0.276755 0.528809 0.187456 0.140875
C29   C     C_3   0.807511 0.451590 0.724654 0.121994
C30   C     C_3   0.204956 0.561711 0.275957 0.120711
C31   C     C_3   0.004382 0.314326 0.813386 -0.156430
C32   C     C_3   0.997630 0.686772 0.189199 -0.154293
C33   C     C_R   0.997648 0.118461 0.619298 0.903649
C34   C     C_R   0.003391 0.882920 0.380938 0.850509
C35   C     C_R   0.119625 0.120309 0.500433 0.810198
C36   C     C_R   0.880250 0.878323 0.497983 0.845848
C37   C     C_R   0.999250 0.619089 0.119963 0.892683
C38   C     C_R   0.002003 0.381288 0.881490 0.851413
C39   C     C_R   0.880182 0.501497 0.881823 0.848154
C40   C     C_R   0.119799 0.496807 0.116834 0.855794
C41   C     C_3   0.920541 0.209392 0.648311 0.372797
C42   C     C_3   0.097449 0.817295 0.344221 0.338921
C43   C     C_3   0.984574 0.162522 0.755015 0.177972
C44   C     C_3   0.979049 0.821099 0.229480 0.181436
C45   C     C_3   0.090055 0.350800 0.803906 0.409305
C46   C     C_3   0.920429 0.647379 0.209375 0.415345
C47   C     C_3   0.994255 0.237417 0.831368 -0.179780
C48   C     C_3   0.993223 0.757930 0.165008 -0.156807
C49   C     C_3   0.921796 0.278210 0.725143 0.100450
C50   C     C_3   0.086269 0.733711 0.275696 0.119746
C51   C     C_3   0.998020 0.189686 0.687370 -0.176905
C52   C     C_3   0.003269 0.812333 0.313784 -0.164647
C53   C     C_3   0.090046 0.272476 0.739321 -0.111257
C54   C     C_3   0.928373 0.722595 0.286659 -0.128369
C55   C     C_3   0.348380 0.302734 0.578630 -0.475408
C56   C     C_3   0.665662 0.671630 0.407061 -0.457243
C57   C     C_3   0.275743 0.237520 0.582547 -0.517089
C58   C     C_3   0.742147 0.736548 0.406454 -0.555045
C59   C     C_3   0.232982 0.334100 0.500657 0.396720
C60   C     C_3   0.781097 0.690577 0.540230 0.381027
Cu1   Cu    Cu3+1 0.499950 0.562450 0.562440 1.103581
Cu2   Cu    Cu3+1 0.500050 0.437550 0.437560 1.119839
Cu3   Cu    Cu3+1 0.062480 0.999960 0.562430 1.089197
Cu4   Cu    Cu3+1 0.937520 0.000040 0.437570 1.158250
Cu5   Cu    Cu3+1 0.062470 0.562430 0.999950 1.115348
Cu6   Cu    Cu3+1 0.937530 0.437570 0.000050 1.108938
H1    H     H_    0.233797 0.108584 0.440434 0.202010
H2    H     H_    0.721482 0.860283 0.489996 0.201152
H3    H     H_    0.782453 0.630833 0.736435 0.195752
H4    H     H_    0.206737 0.381804 0.286790 0.171355
H5    H     H_    0.832386 0.625100 0.895182 0.238266
H6    H     H_    0.151331 0.362506 0.114475 0.241648
H7    H     H_    0.134395 0.255625 0.777808 0.217907
H8    H     H_    0.867171 0.726554 0.263459 0.216405
H9    H     H_    0.608236 0.474040 0.748591 0.258972
H10   H     H_    0.377420 0.494338 0.237794 0.267643
H11   H     H_    0.784089 0.383880 0.711181 0.191700
H12   H     H_    0.233849 0.626145 0.281395 0.203592
H13   H     H_    0.599541 0.379638 0.676079 0.199532
H14   H     H_    0.402713 0.599903 0.304799 0.203320
H15   H     H_    0.703313 0.384295 0.784616 0.180444
H16   H     H_    0.299277 0.594713 0.195637 0.183269
H17   H     H_    0.925429 0.333333 0.714922 0.214140
H18   H     H_    0.082892 0.689031 0.301546 0.211227
H19   H     H_    0.916260 0.112989 0.723052 0.235407
H20   H     H_    0.023481 0.886956 0.246533 0.229098
H21   H     H_    0.930872 0.212428 0.831340 0.242838
H22   H     H_    0.059346 0.796623 0.175295 0.251360
H23   H     H_    0.385344 0.365963 0.638525 0.207276
H24   H     H_    0.648595 0.604933 0.364013 0.222957
H25   H     H_    0.397641 0.281568 0.577780 0.243090
H26   H     H_    0.606112 0.676659 0.378259 0.233322
H27   H     H_    0.296818 0.191870 0.594546 0.246518
H28   H     H_    0.715437 0.762237 0.365513 0.244797
H29   H     H_    0.268805 0.271833 0.638331 0.202339
H30   H     H_    0.772352 0.703345 0.376114 0.192510
H31   H     H_    0.138525 0.275660 0.537825 0.093369
H32   H     H_    0.892708 0.750796 0.523087 0.112203
O1    O     O_R   0.591120 0.552750 0.643890 -0.533070
O2    O     O_R   0.408880 0.447250 0.356110 -0.540197
O3    O     O_R   0.947240 0.538460 0.091150 -0.532094
O4    O     O_R   0.052760 0.461540 0.908850 -0.538484
O5    O     O_R   0.961590 0.552710 0.908800 -0.550353
O6    O     O_R   0.038410 0.447290 0.091200 -0.554803
O7    O     O_R   0.856080 0.447270 0.908890 -0.561180
O8    O     O_R   0.143920 0.552730 0.091110 -0.568016
O9    O     O_R   0.591210 0.447270 0.538420 -0.538928
O10   O     O_R   0.408790 0.552730 0.461580 -0.543094
O11   O     O_R   0.408810 0.461590 0.552740 -0.600385
O12   O     O_R   0.591190 0.538410 0.447260 -0.614076
O13   O     O_R   0.408900 0.356100 0.447280 -0.527557
O14   O     O_R   0.591100 0.643900 0.552720 -0.541825
O15   O     O_R   0.052750 0.091090 0.643890 -0.526332
O16   O     O_R   0.947250 0.908910 0.356110 -0.519055
O17   O     O_R   0.947230 0.091150 0.538450 -0.569946
O18   O     O_R   0.052770 0.908850 0.461550 -0.609339
O19   O     O_R   0.143910 0.091120 0.552710 -0.606601
O20   O     O_R   0.856090 0.908880 0.447290 -0.574518
O21   O     O_R   0.038380 0.091180 0.447270 -0.496392
O22   O     O_R   0.961620 0.908820 0.552730 -0.523896
O23   O     O_R   0.052740 0.643910 0.091070 -0.557387
O24   O     O_R   0.947260 0.356090 0.908930 -0.565426
C61   C     C_3   0.178650 0.401976 0.887915 -0.643458
H33   H     H_    0.195798 0.361481 0.912681 0.228850
H34   H     H_    0.232432 0.431847 0.875818 0.248357
H35   H     H_    0.182139 0.455403 0.938900 0.282170
C62   C     C_3   0.827263 0.600526 0.131761 -0.661204
H36   H     H_    0.806885 0.644851 0.117174 0.251307
H37   H     H_    0.820229 0.553078 0.072860 0.273290
H38   H     H_    0.778637 0.565090 0.146503 0.249444
C63   C     C_3   0.224325 0.214314 0.328063 -0.520753
H39   H     H_    0.159672 0.210243 0.312238 0.280624
H40   H     H_    0.264837 0.270835 0.326452 0.241431
H41   H     H_    0.213555 0.156563 0.274735 0.276272
C64   C     C_3   0.731867 0.816820 0.651194 -0.486483
H42   H     H_    0.802421 0.840650 0.688695 0.284385
H43   H     H_    0.720785 0.872060 0.677660 0.262673
H44   H     H_    0.699012 0.770529 0.668260 0.246997
Cl1   Cl    Cl    0.351677 0.188303 0.412976 -0.480039
Cl2   Cl    Cl    0.595036 0.778457 0.509652 -0.503620
Cl3   Cl    Cl    0.105134 0.062772 0.322253 -0.511715
Cl4   Cl    Cl    0.831465 0.953436 0.629198 -0.530752
Cl5   Cl    Cl    0.197827 0.365779 0.422049 -0.687341
Cl6   Cl    Cl    0.805056 0.690625 0.639792 -0.683909
Cl7   Cl    Cl    0.054812 0.209263 0.390466 -0.438156
Cl8   Cl    Cl    0.936679 0.849293 0.662298 -0.407728
Cl9   Cl    Cl    0.710353 0.648913 0.816443 -0.499051
Cl10  Cl    Cl    0.261607 0.329057 0.198089 -0.534891
C65   C     C_3   0.920704 0.660365 0.849766 -0.712838
H45   H     H_    0.976225 0.680028 0.910786 0.251307
H46   H     H_    0.934443 0.636220 0.796713 0.292500
H47   H     H_    0.920605 0.721248 0.857086 0.258864
C66   C     C_3   0.069431 0.351964 0.169786 -0.699653
H48   H     H_    0.013630 0.326570 0.106251 0.253217
H49   H     H_    0.065067 0.293331 0.173519 0.248252
H50   H     H_    0.060008 0.389056 0.221763 0.296343
Cl11  Cl    Cl    0.712551 0.496569 0.897233 -0.594853
Cl12  Cl    Cl    0.269852 0.463972 0.089247 -0.647013
Cl13  Cl    Cl    0.663816 0.342535 0.566925 -0.496967
Cl14  Cl    Cl    0.360425 0.671536 0.424229 -0.483333
C67   C     C_3   0.782268 0.497689 0.608954 -0.629101
H51   H     H_    0.807002 0.459540 0.575042 0.281951
H52   H     H_    0.735428 0.502932 0.560248 0.232195
H53   H     H_    0.837725 0.562834 0.656910 0.245108
C68   C     C_3   0.232836 0.536856 0.405769 -0.576980
H54   H     H_    0.216761 0.586102 0.437557 0.274406
H55   H     H_    0.171727 0.474466 0.364957 0.249280
H56   H     H_    0.277818 0.534142 0.458603 0.255139
Cl15  Cl    Cl    0.912027 0.478369 0.728016 -0.565304
Cl16  Cl    Cl    0.106981 0.552553 0.280591 -0.575889
Cl17  Cl    Cl    0.819991 0.242533 0.728073 -0.490042
Cl18  Cl    Cl    0.183337 0.752898 0.264905 -0.470029
Cl19  Cl    Cl    0.817016 0.109872 0.584764 -0.426962
Cl20  Cl    Cl    0.173516 0.913390 0.352812 -0.514251
C69   C     C_3   0.132946 0.293805 0.686327 -0.817184
H57   H     H_    0.198282 0.352034 0.729227 0.260014
H58   H     H_    0.143482 0.240694 0.653103 0.198013
H59   H     H_    0.093615 0.305044 0.637916 0.264853
C70   C     C_3   0.927082 0.704801 0.360608 -0.797018
H60   H     H_    0.862323 0.650067 0.335960 0.247363
H61   H     H_    0.975842 0.685919 0.386059 0.287451
H62   H     H_    0.935847 0.760419 0.414181 0.205422
C71   C     C_3   0.923127 0.242889 0.583788 -0.670706
H63   H     H_    0.973056 0.310390 0.614717 0.244530
H64   H     H_    0.932602 0.204973 0.532276 0.252852
H65   H     H_    0.860203 0.241421 0.551585 0.276370
C72   C     C_3   0.145202 0.827194 0.434507 -0.618108
H66   H     H_    0.102614 0.786909 0.450036 0.199622
H67   H     H_    0.197976 0.810065 0.439142 0.262646
H68   H     H_    0.179154 0.894762 0.487049 0.263594
Cl21  Cl    Cl    0.092025 0.429590 0.768865 -0.560519
Cl22  Cl    Cl    0.925237 0.563266 0.234117 -0.524641
Cl23  Cl    Cl    0.044187 0.110446 0.789733 -0.464327
Cl24  Cl    Cl    0.872584 0.813032 0.180012 -0.531993
C73   C     C_3   0.060581 0.261611 0.922222 -0.664241
H69   H     H_    0.121568 0.261989 0.926582 0.288344
H70   H     H_    0.077567 0.325124 0.971726 0.202358
H71   H     H_    0.031133 0.213517 0.939862 0.263053
C74   C     C_3   0.934078 0.727011 0.069692 -0.714714
H72   H     H_    0.958969 0.697158 0.029466 0.203351
H73   H     H_    0.865655 0.679925 0.044105 0.278150
H74   H     H_    0.935507 0.782810 0.061267 0.290456
C75   C     C_3   0.261627 0.412909 0.586591 -0.743115
H75   H     H_    0.284358 0.403550 0.642899 0.197479
H76   H     H_    0.311767 0.474373 0.600401 0.273798
H77   H     H_    0.204670 0.422737 0.582544 0.259431
C76   C     C_3   0.781693 0.609248 0.483165 -0.808414
H78   H     H_    0.779080 0.606477 0.422899 0.208653
H79   H     H_    0.843248 0.609813 0.518313 0.268063
H80   H     H_    0.727129 0.548719 0.465328 0.257384

loop_
_geom_bond_atom_site_label_1
_geom_bond_atom_site_label_2
_ccdc_geom_bond_type
C42   C72   S    
C64   H44   S    
C44   C48   S    
C75   H75   S    
C76   H80   S    
C1    C21   S    
C68   H54   S    
C2    O2    A    
C14   H4    S    
C35   O21   A    
C24   O14   A    
C3    C11   S    
C63   H41   S    
Cu1   O11   S    
C1    O1    A    
C67   H51   S    
C50   H18   S    
C61   H33   S    
C69   H58   S    
C20   C30   S    
C45   C61   S    
C7    C11   S    
C20   C68   S    
C12   H2    S    
C50   Cl18  S    
Cu4   O21   S    
C3    C63   S    
C30   H12   S    
C47   C73   S    
C19   C21   S    
C71   H64   S    
C19   C67   S    
Cu3   O19   S    
C61   H34   S    
C4    Cl2   S    
C34   O18   A    
C73   H70   S    
C14   Cl10  S    
C17   H13   S    
Cu4   O20   S    
C54   C70   S    
C64   H43   S    
C8    C36   S    
C9    Cl7   S    
C10   H32   S    
Cu1   O10   S    
C58   H30   S    
C30   Cl16  S    
C72   H68   S    
C55   H25   S    
C34   C52   S    
C8    C58   S    
C54   H8    S    
C45   Cl21  S    
Cu2   O13   S    
C11   H1    S    
C16   H6    S    
C2    C22   S    
C74   H74   S    
C9    H31   S    
Cu6   O24   S    
Cu5   O23   S    
C4    C12   S    
C36   O20   A    
C39   O7    A    
C38   O4    A    
C73   H71   S    
C44   C52   S    
C56   H24   S    
C59   Cl5   S    
C74   H72   S    
C68   H55   S    
Cu4   O17   S    
C31   C47   S    
C25   C29   S    
C32   C48   S    
Cu6   O3    S    
Cu1   O1    S    
C7    C35   S    
Cu5   O4    S    
C31   C49   S    
C44   H20   S    
C41   C49   S    
C26   C28   S    
C67   H52   S    
C52   C54   S    
C18   C28   S    
C69   H59   S    
C56   C58   S    
C16   C26   S    
C34   O16   A    
C23   O11   A    
C75   H77   S    
C26   C40   S    
C33   O17   A    
Cu4   O16   S    
C5    C59   S    
C48   C74   S    
C28   H16   S    
C76   H78   S    
C17   C27   S    
Cu6   O6    S    
C46   C62   S    
C64   H42   S    
C24   O12   A    
C4    C6    S    
C42   Cl20  S    
C71   H65   S    
C6    C56   S    
C49   Cl17  S    
C61   H35   S    
Cu2   O9    S    
C65   H46   S    
C3    C5    S    
C17   C21   S    
C33   C51   S    
C70   H60   S    
C9    C59   S    
C43   H19   S    
C10   C60   S    
C71   H63   S    
C62   H37   S    
C6    C60   S    
C40   O6    A    
C75   H76   S    
C69   H57   S    
C5    C23   S    
C27   H15   S    
C8    C12   S    
C6    C24   S    
C46   C54   S    
C28   Cl12  S    
C13   C21   S    
C32   C37   S    
C66   H50   S    
C11   Cl3   S    
C14   C22   S    
C32   C50   S    
C66   H49   S    
C38   O24   A    
C42   C50   S    
C4    C64   S    
Cu2   O2    S    
Cu3   O18   S    
C18   H14   S    
C20   C22   S    
C26   C30   S    
C68   H56   S    
C55   C57   S    
C1    O9    A    
C57   H29   S    
C25   C27   S    
C37   O23   A    
C65   H47   S    
C3    Cl1   S    
Cu5   O5    S    
Cu6   O7    S    
C31   C45   S    
C62   H36   S    
C10   Cl8   S    
Cu5   O8    S    
C15   C65   S    
C67   H53   S    
C15   H5    S    
C53   C69   S    
C40   O8    A    
C7    C9    S    
C41   Cl19  S    
C18   H10   S    
C18   C22   S    
C32   C46   S    
C5    C55   S    
C53   H7    S    
C46   Cl22  S    
Cu3   Cu4   S    
C63   H40   S    
C76   H79   S    
C60   C76   S    
C39   O5    A    
C41   C51   S    
C27   Cl11  S    
C23   O13   A    
C33   O15   A    
C31   C38   S    
C29   Cl15  S    
C43   Cl23  S    
C19   Cl13  S    
C70   H62   S    
C13   C15   S    
C58   H28   S    
C62   H38   S    
C72   H66   S    
C55   H23   S    
C65   H45   S    
C60   Cl6   S    
C37   O3    A    
Cu3   O22   S    
C49   H17   S    
C13   H3    S    
C48   H22   S    
C43   C51   S    
C2    O10   A    
C44   Cl24  S    
Cu2   O12   S    
C12   Cl4   S    
C14   C16   S    
Cu1   Cu2   S    
C36   O22   A    
C74   H73   S    
C72   H67   S    
C35   O19   A    
C45   C53   S    
C73   H69   S    
Cu3   O15   S    
C59   C75   S    
C56   H26   S    
C29   H11   S    
C15   C25   S    
C8    C10   S    
Cu5   Cu6   S    
C20   Cl14  S    
C42   C52   S    
C16   C66   S    
C17   H9    S    
C13   Cl9   S    
C41   C71   S    
C57   H27   S    
C51   C53   S    
C66   H48   S    
Cu1   O14   S    
C43   C47   S    
C7    C57   S    
C25   C39   S    
C63   H39   S    
C47   H21   S    
C70   H61   S    
C19   C29   S    
