data_mof_unit_38853.cif
_audit_creation_date              2012-12-11T15:29:13-0500
_audit_creation_method            fapswitch 2.2
_symmetry_space_group_name_H-M    P1
_symmetry_Int_Tables_number       1
_space_group_crystal_system       triclinic
_cell_length_a                    13.476307
_cell_length_b                    13.505272
_cell_length_c                    27.513993
_cell_angle_alpha                 90.770832
_cell_angle_beta                  89.784168
_cell_angle_gamma                 59.716686
_cell_volume                      4323.54329934

loop_
_atom_site_label
_atom_site_type_symbol
_atom_type_description
_atom_site_fract_x
_atom_site_fract_y
_atom_site_fract_z
_atom_type_partial_charge
C1    C     C_R   0.620968 0.102314 0.569343 0.542671
C2    C     C_1   0.650427 0.703383 0.657503 -0.059806
C3    C     C_3   0.114810 0.101614 0.737941 -0.105180
C4    C     C_R   0.599902 0.779070 0.568357 0.544953
C5    C     C_3   0.212240 0.056311 0.775918 -0.105553
C6    C     C_1   0.096926 0.199656 0.900025 -0.017550
C7    C     C_1   0.226144 0.140085 0.616478 -0.014348
C8    C     C_3   0.045649 0.214176 0.768210 -0.109027
C9    C     C_3   0.143584 0.168605 0.805252 0.050123
C10   C     C_3   0.104527 0.269374 0.739934 -0.100972
C11   C     C_3   0.173198 0.157164 0.710533 0.054325
C12   C     C_1   0.631676 0.731085 0.615671 -0.017028
C13   C     C_3   0.201846 0.224062 0.777744 -0.091321
C14   C     C_3   0.270996 0.111659 0.747635 -0.094041
C15   C     C_1   0.123122 0.180819 0.857697 -0.060301
C16   C     C_R   0.276781 0.122394 0.569134 0.544575
C17   C     C_1   0.196444 0.149696 0.658350 -0.056003
C18   C     C_3   0.579493 0.258036 0.742340 0.180748
C19   C     C_3   0.629594 0.161252 0.779413 -0.068510
C20   C     C_1   0.732737 0.233271 0.893409 -0.014563
C21   C     C_1   0.641521 0.140508 0.614925 -0.016443
C22   C     C_3   0.649278 0.310454 0.762684 -0.098798
C23   C     C_3   0.591961 0.644076 0.772168 -0.101799
C24   C     C_3   0.701984 0.211633 0.799183 0.028309
C25   C     C_3   0.747806 0.234811 0.725909 -0.136420
C26   C     C_3   0.675329 0.184721 0.705964 0.056530
C27   C     C_3   0.800905 0.136824 0.763421 -0.116721
C28   C     C_R   0.623062 0.101328 0.432045 0.548738
C29   C     C_3   0.728112 0.086700 0.742799 -0.117791
C30   C     C_1   0.717918 0.224015 0.850912 -0.062746
C31   C     C_1   0.657600 0.164503 0.655255 -0.051952
C32   C     C_R   0.651662 0.699305 0.387959 0.022856
C33   C     C_R   0.739571 0.699874 0.360647 -0.129905
C34   C     C_3   0.680874 0.652414 0.804092 0.052933
C35   C     C_R   0.770052 0.646264 0.315081 -0.121854
C36   C     C_R   0.713575 0.590796 0.296562 0.036432
C37   C     C_R   0.634771 0.579662 0.326161 -0.121802
C38   C     C_R   0.603267 0.634440 0.371444 -0.131965
C39   C     C_R   0.826420 0.515773 0.218926 -0.117103
C40   C     C_R   0.603190 0.774778 0.430834 0.540766
C41   C     C_R   0.829319 0.503337 0.168453 -0.131277
C42   C     C_R   0.622666 0.585017 0.168402 -0.134698
C43   C     C_R   0.619697 0.597626 0.218574 -0.126171
C44   C     C_R   0.721296 0.563520 0.244293 0.036503
C45   C     C_3   0.568462 0.755039 0.746578 -0.098397
C46   C     C_R   0.727384 0.538211 0.142798 0.017187
C47   C     C_R   0.220491 0.140209 0.384635 0.024344
C48   C     C_R   0.238030 0.045553 0.356241 -0.128293
C49   C     C_R   0.210466 0.058828 0.307371 -0.121697
C50   C     C_R   0.162718 0.167306 0.286454 0.036866
C51   C     C_R   0.135954 0.263568 0.315827 -0.118462
C52   C     C_R   0.278226 0.120519 0.431270 0.540973
C53   C     C_R   0.165411 0.249992 0.364648 -0.122087
C54   C     C_R   0.168214 0.253582 0.207664 -0.124268
C55   C     C_R   0.144786 0.269035 0.158247 -0.138191
C56   C     C_3   0.664697 0.681609 0.709621 0.053040
C57   C     C_R   0.082696 0.128831 0.160102 -0.122664
C58   C     C_R   0.104258 0.114881 0.209428 -0.120477
C59   C     C_R   0.144721 0.178937 0.233828 0.035849
C60   C     C_R   0.098612 0.209184 0.134485 0.020117
C61   C     C_R   0.645651 0.143229 0.386626 0.041427
C62   C     C_R   0.560113 0.246614 0.365761 0.139695
C63   C     C_R   0.567348 0.264121 0.316347 -0.106877
C64   C     C_3   0.687969 0.571040 0.734465 -0.105555
C65   C     C_R   0.661833 0.184585 0.288271 0.012254
C66   C     C_R   0.753705 0.091070 0.310941 -0.134222
C67   C     C_3   0.657578 0.763021 0.779243 -0.100497
C68   C     C_R   0.745175 0.069858 0.359545 -0.161475
C69   C     C_R   0.714570 0.099798 0.204482 -0.117864
C70   C     C_R   0.725221 0.111239 0.154906 -0.126247
C71   C     C_R   0.620440 0.318046 0.165277 -0.127611
C72   C     C_R   0.613601 0.306740 0.215001 -0.117841
C73   C     C_R   0.663162 0.197343 0.235270 0.037540
C74   C     C_R   0.681396 0.220450 0.135365 0.023644
C75   C     C_R   0.050243 0.234415 0.948013 0.541455
C76   C     C_3   0.777209 0.578854 0.767189 -0.102257
C77   C     C_R   0.712042 0.561724 0.946395 0.550286
C78   C     C_3   0.753675 0.689992 0.741466 -0.100297
C79   C     C_R   0.753775 0.244714 0.943486 0.563412
C80   C     C_R   0.047097 0.244031 0.086541 0.531484
C81   C     C_R   0.731671 0.516789 0.090179 0.561117
C82   C     C_R   0.719004 0.233457 0.087358 0.544769
C83   C     C_1   0.697960 0.606440 0.898486 -0.017054
C84   C     C_3   0.381824 0.385865 0.769310 -0.313340
C85   C     C_3   0.489786 0.399481 0.425663 -0.289950
C86   C     C_1   0.689382 0.631981 0.856357 -0.059272
Cr1   Cr    Cr6+3 0.417550 0.169090 0.500530 1.036120
Cr2   Cr    Cr6+3 0.669180 0.913420 0.499920 1.017510
Cr3   Cr    Cr6+3 0.413260 0.917540 0.499520 1.016170
Cr4   Cr    Cr6+3 0.909770 0.175810 0.018240 1.012245
Cr5   Cr    Cr6+3 0.913300 0.427650 0.016090 1.017305
Cr6   Cr    Cr6+3 0.657770 0.431010 0.016900 1.015683
H1    H     H_    0.863254 0.506216 0.776404 0.102619
H2    H     H_    0.778881 0.748622 0.372829 0.126284
H3    H     H_    0.700757 0.492532 0.715317 0.099675
H4    H     H_    0.905876 0.488894 0.238071 0.103592
H5    H     H_    0.911148 0.465898 0.149546 0.137243
H6    H     H_    0.830791 0.656351 0.292870 0.101083
H7    H     H_    0.537083 0.637413 0.237100 0.102861
H8    H     H_    0.542552 0.612249 0.149782 0.130932
H9    H     H_    0.592182 0.534833 0.312949 0.099124
H10   H     H_    0.537039 0.630807 0.392413 0.117102
H11   H     H_    0.281073 0.959768 0.370715 0.133015
H12   H     H_    0.237582 0.273999 0.794900 0.104687
H13   H     H_    0.202584 0.301540 0.225576 0.105221
H14   H     H_    0.157836 0.331327 0.139221 0.127579
H15   H     H_    0.820316 0.708625 0.728134 0.103448
H16   H     H_    0.232456 0.983118 0.285482 0.102820
H17   H     H_    0.084677 0.057397 0.228790 0.102426
H18   H     H_    0.046262 0.081948 0.142893 0.137317
H19   H     H_    0.095697 0.348637 0.300711 0.096939
H20   H     H_    0.150276 0.324294 0.386094 0.125755
H21   H     H_    0.749529 0.014456 0.218816 0.106263
H22   H     H_    0.771976 0.034908 0.132228 0.126229
H23   H     H_    0.060109 0.356747 0.724562 0.102088
H24   H     H_    0.496623 0.338247 0.299789 0.089493
H25   H     H_    0.574286 0.383714 0.237560 0.098813
H26   H     H_    0.644962 0.841790 0.798126 0.103788
H27   H     H_    0.585900 0.403135 0.150850 0.125382
H28   H     H_    0.830358 0.031407 0.290646 0.107937
H29   H     H_    0.813656 0.992046 0.374982 0.131003
H30   H     H_    0.482251 0.827592 0.737477 0.102869
H31   H     H_    0.525130 0.625630 0.785431 0.099501
H32   H     H_    0.256761 0.968971 0.791317 0.103920
H33   H     H_    0.078670 0.051883 0.720862 0.103206
H34   H     H_    0.952636 0.256609 0.777448 0.105614
H35   H     H_    0.364044 0.069564 0.738511 0.110364
H36   H     H_    0.445469 0.372870 0.699204 0.251354
H37   H     H_    0.291790 0.425912 0.756611 0.140804
H38   H     H_    0.397647 0.454429 0.783010 0.135534
H39   H     H_    0.393031 0.327041 0.799329 0.150188
H40   H     H_    0.391208 0.379715 0.373137 0.236255
H41   H     H_    0.412000 0.458453 0.447447 0.134939
H42   H     H_    0.517036 0.451201 0.404333 0.122598
H43   H     H_    0.559119 0.344327 0.451092 0.154639
H44   H     H_    0.580388 0.132050 0.801525 0.101487
H45   H     H_    0.761026 0.994707 0.734101 0.106156
H46   H     H_    0.893125 0.086329 0.773038 0.111288
H47   H     H_    0.796727 0.263953 0.703576 0.103165
H48   H     H_    0.615151 0.402428 0.771669 0.099319
N1    N     N_2   0.459511 0.323370 0.729428 -0.514725
N2    N     N_2   0.463765 0.330488 0.393323 -0.486593
O1    O     O_R   0.301780 0.195490 0.553940 -0.507020
O2    O     O_R   0.636050 0.541380 0.962520 -0.509053
O3    O     O_R   0.666480 0.323610 0.968170 -0.489470
O4    O     O_R   0.522450 0.158840 0.550250 -0.497080
O5    O     O_R   0.817280 0.156800 0.072180 -0.513730
O6    O     O_R   0.005110 0.187160 0.067410 -0.504421
O7    O     O_R   0.026450 0.340060 0.069950 -0.530408
O8    O     O_R   0.808300 0.527240 0.065170 -0.492594
O9    O     O_R   0.634070 0.548770 0.069460 -0.518687
O10   O     O_R   0.664650 0.330470 0.067300 -0.515244
O11   O     O_3   0.826940 0.344820 0.017080 -0.288820
O12   O     O_R   0.658840 0.818280 0.449970 -0.503004
O13   O     O_R   0.694460 0.003360 0.553820 -0.508964
O14   O     O_R   0.657750 0.819520 0.549120 -0.494072
O15   O     O_R   0.501990 0.803120 0.552700 -0.508652
O16   O     O_R   0.318230 0.023430 0.549370 -0.494462
O17   O     O_R   0.302950 0.194150 0.446980 -0.507134
O18   O     O_R   0.523540 0.157600 0.451100 -0.459081
O19   O     O_R   0.695630 0.002030 0.446860 -0.532663
O20   O     O_R   0.503160 0.801780 0.445740 -0.522637
O21   O     O_R   0.319320 0.022190 0.450230 -0.506077
O22   O     O_3   0.499990 0.000010 0.499990 -0.244309
O23   O     O_R   0.819250 0.149410 0.965240 -0.499946
O24   O     O_R   0.006940 0.180310 0.968270 -0.507654
O25   O     O_R   0.028420 0.332670 0.963010 -0.502814
O26   O     O_R   0.810130 0.520390 0.966030 -0.489017

loop_
_geom_bond_atom_site_label_1
_geom_bond_atom_site_label_2
_ccdc_geom_bond_type
C66   C68   A    
C63   C65   A    
C1    C21   S    
C23   C45   S    
Cr1   O4    S    
C27   C29   S    
C58   H17   S    
C35   C36   A    
C18   C26   S    
C24   C27   S    
C2    C12   T    
C33   H2    S    
C82   O5    A    
C56   C78   S    
C6    C75   S    
C79   O3    A    
C20   C30   T    
C70   H22   S    
C77   O26   A    
C5    C9    S    
C21   C31   T    
C5    H32   S    
C69   H21   S    
C62   C63   A    
C50   C59   S    
Cr2   O14   S    
Cr5   O25   S    
C36   C37   A    
C25   H47   S    
C43   H7    S    
Cr5   O11   S    
C34   C86   S    
C11   C14   S    
C77   C83   S    
Cr2   O19   S    
C22   H48   S    
C84   H37   S    
C28   O18   A    
C65   C73   S    
Cr1   O18   S    
C18   C19   S    
C42   C46   A    
C1    O13   A    
C9    C13   S    
Cr4   O6    S    
C6    C15   T    
C60   C80   S    
C47   C48   A    
C45   C56   S    
C8    C9    S    
C7    C17   T    
C22   C25   S    
C72   H25   S    
C70   C74   A    
Cr4   O11   S    
C41   C46   A    
C56   C64   S    
C69   C73   A    
Cr6   O11   S    
C32   C38   A    
C4    C12   S    
C35   H6    S    
H36   N1    S    
Cr3   O22   S    
C54   H13   S    
C85   H42   S    
C47   C53   A    
C28   C61   S    
C52   O17   A    
Cr1   O22   S    
C26   C31   S    
C66   H28   S    
C55   C60   A    
Cr4   O24   S    
C40   O12   A    
C1    O4    A    
C61   C62   A    
C67   C78   S    
C74   C82   S    
C28   O19   A    
C49   H16   S    
C24   C30   S    
C54   C59   A    
H40   N2    S    
C80   O7    A    
C27   H46   S    
C55   H14   S    
C16   O16   A    
Cr2   O13   S    
Cr5   O26   S    
Cr3   O16   S    
C16   O1    A    
C39   C41   A    
C3    C8    S    
Cr5   O7    S    
C57   C60   A    
C23   H31   S    
C19   H44   S    
Cr2   O22   S    
C48   H11   S    
C14   H35   S    
C78   H15   S    
C51   C53   A    
Cr2   O12   S    
C68   H29   S    
C47   C52   S    
C43   C44   A    
C40   O20   A    
C37   C38   A    
C42   H8    S    
C76   H1    S    
Cr5   O8    S    
C46   C81   S    
C62   N2    S    
C4    O15   A    
C23   C34   S    
Cr6   O9    S    
C50   C51   A    
C64   C76   S    
C79   O23   A    
C13   H12   S    
C5    C14   S    
C39   C44   A    
C85   H43   S    
C63   H24   S    
C53   H20   S    
C8    H34   S    
C23   C64   S    
C4    O14   A    
C49   C50   A    
Cr4   O23   S    
C41   H5    S    
C36   C44   S    
C42   C43   A    
C19   C29   S    
Cr3   O20   S    
C54   C55   A    
C11   C17   S    
C51   H19   S    
C20   C79   S    
Cr6   O3    S    
C18   C22   S    
C18   N1    S    
C7    C16   S    
C64   H3    S    
C76   C78   S    
C72   C73   A    
C3    C5    S    
C10   C13   S    
C34   C67   S    
C71   C74   A    
C3    H33   S    
C57   H18   S    
Cr3   O15   S    
C45   C67   S    
C45   H30   S    
C25   C27   S    
C29   H45   S    
C84   H39   S    
C71   H27   S    
C32   C33   A    
C19   C24   S    
C25   C26   S    
C77   O2    A    
C71   C72   A    
C38   H10   S    
C2    C56   S    
Cr4   O5    S    
C37   H9    S    
C61   C68   A    
C57   C58   A    
C84   N1    S    
C48   C49   A    
C84   H38   S    
C33   C35   A    
Cr1   O17   S    
C75   O24   A    
C22   C24   S    
C32   C40   S    
C9    C15   S    
C69   C70   A    
Cr6   O2    S    
C67   H26   S    
C58   C59   A    
C39   H4    S    
C3    C11   S    
C10   C11   S    
C52   O21   A    
Cr6   O10   S    
C80   O6    A    
C83   C86   T    
C81   O9    A    
C26   C29   S    
C8    C10   S    
C65   C66   A    
C85   H41   S    
C75   O25   A    
C85   N2    S    
Cr1   O1    S    
C13   C14   S    
Cr3   O21   S    
C82   O10   A    
C10   H23   S    
C81   O8    A    
C34   C76   S    
