data_mof_unit_55416.cif
_audit_creation_date              2012-12-10T17:42:40-0500
_audit_creation_method            fapswitch 2.2
_symmetry_space_group_name_H-M    P1
_symmetry_Int_Tables_number       1
_space_group_crystal_system       triclinic
_cell_length_a                    9.987117
_cell_length_b                    10.59513
_cell_length_c                    13.238043
_cell_angle_alpha                 93.016408
_cell_angle_beta                  69.936969
_cell_angle_gamma                 89.531275
_cell_volume                      1313.43870509

loop_
_atom_site_label
_atom_site_type_symbol
_atom_type_description
_atom_site_fract_x
_atom_site_fract_y
_atom_site_fract_z
_atom_type_partial_charge
C1    C     C_R   0.500774 0.738961 0.497489 0.851355
C2    C     C_R   0.448717 0.509523 0.975102 -0.009994
C3    C     C_R   0.472773 0.455273 0.870273 0.018207
C4    C     C_R   0.554397 0.487139 0.022293 0.115183
C5    C     C_R   0.684989 0.422376 0.962197 0.196726
C6    C     C_R   0.705243 0.370422 0.859345 -0.208338
C7    C     C_R   0.597718 0.381093 0.816372 -0.133321
C8    C     C_R   0.526213 0.511784 0.131580 -0.190258
C9    C     C_R   0.761155 0.435609 0.117605 -0.172492
C10   C     C_R   0.371548 0.477538 0.820204 -0.148056
C11   C     C_R   0.513220 0.857105 0.302066 -0.220012
C12   C     C_R   0.420916 0.489478 0.702913 0.870418
C13   C     C_R   0.521773 0.917597 0.208999 -0.116475
C14   C     C_R   0.521672 0.049142 0.209536 0.445519
C15   C     C_R   0.514515 0.120378 0.303042 -0.254963
C16   C     C_R   0.507592 0.060196 0.397556 0.030207
C17   C     C_R   0.506578 0.928027 0.397205 0.087371
C18   C     C_R   0.502872 0.871135 0.491979 -0.069976
C19   C     C_R   0.504964 0.940584 0.583484 -0.224919
C20   C     C_R   0.506060 0.069671 0.583759 -0.200338
C21   C     C_R   0.505053 0.128173 0.492503 -0.054186
C22   C     C_R   0.796560 0.684078 0.622982 -0.158954
C23   C     C_R   0.501024 0.260872 0.498932 0.843197
C24   C     C_R   0.834619 0.791453 0.667877 -0.243789
C25   C     C_R   0.972236 0.802222 0.667417 0.083111
C26   C     C_R   0.070323 0.699089 0.626752 0.114182
C27   C     C_R   0.041789 0.595556 0.561256 0.125057
C28   C     C_R   0.897740 0.592525 0.560524 0.138187
C29   C     C_R   0.956256 0.411548 0.442004 -0.105249
C30   C     C_R   0.098581 0.411338 0.442210 -0.088463
C31   C     C_R   0.579419 0.497973 0.296420 0.838363
C32   C     C_R   0.788285 0.399748 0.009646 -0.181407
C33   C     C_R   0.627273 0.487322 0.179501 -0.077728
C34   C     C_R   0.231134 0.513102 0.884439 0.042045
C35   C     C_R   0.207095 0.570101 0.986658 -0.193004
C36   C     C_R   0.318824 0.581690 0.026729 0.338975
H1    H     H_    0.839285 0.412963 0.154374 0.163628
H2    H     H_    0.513946 0.755055 0.298351 0.162920
H3    H     H_    0.529540 0.862005 0.136167 0.209524
H4    H     H_    0.516694 0.222240 0.300385 0.163695
H5    H     H_    0.505495 0.124307 0.655560 0.139968
H6    H     H_    0.925702 0.338943 0.394211 0.150613
H7    H     H_    0.685406 0.676533 0.640141 0.218286
H8    H     H_    0.753775 0.863572 0.708649 0.163807
H9    H     H_    0.801179 0.315390 0.814350 0.140025
H10   H     H_    0.173897 0.338614 0.394633 0.157647
H11   H     H_    0.886419 0.347934 0.965074 0.135321
H12   H     H_    0.419582 0.536774 0.183045 0.218844
H13   H     H_    0.104162 0.614437 0.031562 0.181812
H14   H     H_    0.612563 0.328955 0.740591 0.160881
H15   H     H_    0.504003 0.894525 0.655000 0.140992
N1    N     N_R   0.856860 0.501200 0.500990 -0.113211
N2    N     N_R   0.142450 0.501280 0.501020 -0.102994
O1    O     O_R   0.385310 0.683220 0.500000 -0.600333
O2    O     O_R   0.614640 0.683250 0.500010 -0.621317
O3    O     O_R   0.328400 0.499950 0.653610 -0.566312
O4    O     O_R   0.557730 0.499970 0.653620 -0.649108
O5    O     O_R   0.385360 0.316750 0.499990 -0.618903
O6    O     O_R   0.614690 0.316780 0.500000 -0.620484
O7    O     O_R   0.442270 0.500030 0.346380 -0.611377
O8    O     O_R   0.671600 0.500050 0.346390 -0.603584
Zn1   Zn    Zn3+2 0.346880 0.499980 0.499990 0.970040
Zn2   Zn    Zn3+2 0.653120 0.500020 0.500010 0.941887
Cl1   Cl    Cl    0.532300 0.125166 0.092485 -0.631439
N3    N     N_3   0.009687 0.911264 0.720639 -0.463938
H16   H     H_    0.921714 0.973113 0.755276 0.201266
H17   H     H_    0.084647 0.960449 0.661413 0.189920
N4    N     N_3   0.180380 0.693639 0.671839 -0.347828
H18   H     H_    0.131416 0.693647 0.755211 0.204620
H19   H     H_    0.234453 0.778671 0.660412 0.186425
N5    N     N_3   0.116337 0.498027 0.843387 -0.441196
H20   H     H_    0.103026 0.401100 0.832796 0.188390
H21   H     H_    0.021234 0.536513 0.898879 0.181039
Cl2   Cl    Cl    0.294036 0.705184 0.127074 -0.665706

loop_
_geom_bond_atom_site_label_1
_geom_bond_atom_site_label_2
_ccdc_geom_bond_type
O5    Zn1   S    
C23   O5    A    
C16   C21   A    
C6    H9    S    
C29   H6    S    
C11   C13   A    
C31   O8    A    
C35   C36   A    
C4    C8    A    
C20   H5    S    
C23   O6    A    
C26   C27   A    
C18   C19   A    
C3    C7    A    
C5    C6    A    
C15   C16   A    
O7    Zn1   S    
C34   C35   A    
O8    Zn2   S    
C9    C32   A    
C19   C20   A    
C16   C17   A    
N3    H17   S    
O2    Zn2   S    
C35   H13   S    
C31   C33   S    
C5    C32   A    
C22   C28   A    
C13   C14   A    
C9    C33   A    
C10   C12   S    
O4    Zn2   S    
C30   N2    A    
C25   N3    S    
C24   C25   A    
N5    H21   S    
N4    H18   S    
O1    Zn1   S    
C25   C26   A    
C31   O7    A    
C11   H2    S    
C2    C4    A    
C1    O1    A    
C8    H12   S    
C29   C30   A    
N2    Zn1   S    
C22   H7    S    
C14   Cl1   S    
C9    H1    S    
C17   C18   A    
C1    C18   S    
C10   C34   A    
C12   O3    A    
C36   Cl2   S    
C12   O4    A    
C21   C23   S    
C24   H8    S    
C32   H11   S    
C22   C24   A    
C2    C36   A    
C11   C17   A    
C30   H10   S    
C7    H14   S    
C4    C5    A    
N1    Zn2   S    
C27   N2    A    
C6    C7    A    
O6    Zn2   S    
C26   N4    S    
C2    C3    A    
C1    O2    A    
N5    H20   S    
C3    C10   A    
C28   N1    A    
O3    Zn1   S    
C8    C33   A    
C15   H4    S    
C13   H3    S    
C19   H15   S    
C20   C21   A    
N4    H19   S    
N3    H16   S    
C27   C28   A    
C14   C15   A    
C34   N5    S    
C29   N1    A    
