data_mof_unit_16282.cif
_audit_creation_date              2013-03-05T15:50:24-0500
_audit_creation_method            fapswitch 2.2
_symmetry_space_group_name_H-M    P1
_symmetry_Int_Tables_number       1
_space_group_crystal_system       triclinic
_cell_length_a                    18.303658
_cell_length_b                    25.842719
_cell_length_c                    18.274801
_cell_angle_alpha                 89.999961
_cell_angle_beta                  89.845865
_cell_angle_gamma                 90.000016
_cell_volume                      8644.24729699

loop_
_atom_site_label
_atom_site_type_symbol
_atom_site_description
_atom_site_fract_x
_atom_site_fract_y
_atom_site_fract_z
_atom_type_partial_charge
Zn1   Zn    Zn3+2 0.249990 0.293780 0.913250 0.954968
Zn2   Zn    Zn3+2 0.249990 0.706220 0.086750 0.953655
Zn3   Zn    Zn3+2 0.249990 0.706220 0.913250 0.954965
Zn4   Zn    Zn3+2 0.249990 0.293780 0.086750 0.953651
Zn5   Zn    Zn3+2 0.749990 0.793780 0.413250 0.953628
Zn6   Zn    Zn3+2 0.749990 0.206220 0.586750 0.954936
Zn7   Zn    Zn3+2 0.749990 0.206220 0.413250 0.953624
Zn8   Zn    Zn3+2 0.749990 0.793780 0.586750 0.954933
Zn9   Zn    Zn3+2 0.336760 0.206240 0.000000 0.963131
Zn10  Zn    Zn3+2 0.336760 0.793760 0.000000 0.963134
Zn11  Zn    Zn3+2 0.836760 0.706240 0.500000 0.963249
Zn12  Zn    Zn3+2 0.836760 0.293760 0.500000 0.963252
Zn13  Zn    Zn3+2 0.163250 0.206230 0.000000 0.963197
Zn14  Zn    Zn3+2 0.163250 0.793770 0.000000 0.963194
Zn15  Zn    Zn3+2 0.663250 0.706230 0.500000 0.963247
Zn16  Zn    Zn3+2 0.663250 0.293770 0.500000 0.963244
O1    O     O_3   0.249990 0.250010 0.000000 -0.487952
O2    O     O_3   0.249990 0.749990 0.000000 -0.487952
O3    O     O_3   0.749990 0.750010 0.500000 -0.487978
O4    O     O_3   0.749990 0.249990 0.500000 -0.487977
O5    O     O_R   0.335430 0.280650 0.146160 -0.638354
O6    O     O_R   0.335430 0.719350 0.853840 -0.636787
O7    O     O_R   0.335430 0.719350 0.146160 -0.638350
O8    O     O_R   0.335430 0.280650 0.853840 -0.636784
O9    O     O_R   0.835430 0.780650 0.646160 -0.638181
O10   O     O_R   0.835430 0.219350 0.353840 -0.636967
O11   O     O_R   0.835430 0.219350 0.646160 -0.638179
O12   O     O_R   0.835430 0.780650 0.353840 -0.636964
O13   O     O_R   0.164550 0.280640 0.853840 -0.638161
O14   O     O_R   0.164550 0.719360 0.146160 -0.636921
O15   O     O_R   0.164550 0.719360 0.853840 -0.638163
O16   O     O_R   0.164550 0.280640 0.146160 -0.636925
O17   O     O_R   0.664550 0.780640 0.353840 -0.638344
O18   O     O_R   0.664550 0.219360 0.646160 -0.636810
O19   O     O_R   0.664550 0.219360 0.353840 -0.638346
O20   O     O_R   0.664550 0.780640 0.646160 -0.636813
O21   O     O_R   0.396160 0.219380 0.914560 -0.636108
O22   O     O_R   0.396160 0.780620 0.085440 -0.634384
O23   O     O_R   0.396160 0.780620 0.914560 -0.636105
O24   O     O_R   0.396160 0.219380 0.085440 -0.634387
O25   O     O_R   0.896160 0.719380 0.414560 -0.635999
O26   O     O_R   0.896160 0.280620 0.585440 -0.634427
O27   O     O_R   0.896160 0.280620 0.414560 -0.635996
O28   O     O_R   0.896160 0.719380 0.585440 -0.634429
O29   O     O_R   0.103840 0.219370 0.085450 -0.636093
O30   O     O_R   0.103840 0.780630 0.914550 -0.634443
O31   O     O_R   0.103840 0.780630 0.085450 -0.636096
O32   O     O_R   0.103840 0.219370 0.914550 -0.634440
O33   O     O_R   0.603840 0.719370 0.585450 -0.636052
O34   O     O_R   0.603840 0.280630 0.414550 -0.634425
O35   O     O_R   0.603840 0.280630 0.585450 -0.636056
O36   O     O_R   0.603840 0.719370 0.414550 -0.634421
O37   O     O_R   0.310730 0.133160 0.000000 -0.636698
O38   O     O_R   0.310730 0.866840 0.000000 -0.636698
O39   O     O_R   0.810730 0.633160 0.500000 -0.636591
O40   O     O_R   0.810730 0.366840 0.500000 -0.636591
O41   O     O_R   0.249970 0.366860 0.060720 -0.646713
O42   O     O_R   0.249970 0.633140 0.939280 -0.643475
O43   O     O_R   0.249970 0.633140 0.060720 -0.646714
O44   O     O_R   0.249970 0.366860 0.939280 -0.643476
O45   O     O_R   0.749970 0.866860 0.560720 -0.643480
O46   O     O_R   0.749970 0.133140 0.439280 -0.646718
O47   O     O_R   0.749970 0.133140 0.560720 -0.643481
O48   O     O_R   0.749970 0.866860 0.439280 -0.646718
O49   O     O_R   0.189290 0.133150 0.000000 -0.636684
O50   O     O_R   0.189290 0.866850 0.000000 -0.636683
O51   O     O_R   0.689290 0.633150 0.500000 -0.636626
O52   O     O_R   0.689290 0.366850 0.500000 -0.636626
C1    C     C_R   0.389822 0.250045 0.139829 0.783350
C2    C     C_R   0.389788 0.749942 0.860234 0.786140
C3    C     C_R   0.389822 0.749955 0.139829 0.783354
C4    C     C_R   0.389787 0.250058 0.860233 0.786141
C5    C     C_R   0.889825 0.750047 0.639826 0.783259
C6    C     C_R   0.889793 0.249937 0.360239 0.786279
C7    C     C_R   0.889825 0.249952 0.639826 0.783262
C8    C     C_R   0.889793 0.750063 0.360239 0.786279
C9    C     C_R   0.110163 0.250036 0.860167 0.783376
C10   C     C_R   0.110196 0.749950 0.139769 0.786358
C11   C     C_R   0.110163 0.749964 0.860167 0.783373
C12   C     C_R   0.110196 0.250050 0.139769 0.786358
C13   C     C_R   0.610165 0.750033 0.360165 0.783434
C14   C     C_R   0.610200 0.249953 0.639773 0.786250
C15   C     C_R   0.610165 0.249966 0.360165 0.783429
C16   C     C_R   0.610199 0.750047 0.639773 0.786250
C17   C     C_R   0.250014 0.109357 1.000000 0.789325
C18   C     C_R   0.250014 0.890643 1.000000 0.789325
C19   C     C_R   0.750014 0.609358 0.499999 0.789448
C20   C     C_R   0.750014 0.390642 0.499999 0.789448
C21   C     C_R   0.249970 0.391396 0.000095 0.742190
C22   C     C_R   0.249970 0.608604 0.000095 0.742189
C23   C     C_R   0.749955 0.891396 0.499905 0.742182
C24   C     C_R   0.749955 0.108604 0.499905 0.742182
C25   C     C_3   0.250009 0.470278 0.080056 -0.377487
C26   C     C_3   0.181070 0.529927 0.961060 -0.393696
C27   C     C_3   0.250009 0.529722 0.080056 -0.377487
C28   C     C_3   0.181070 0.470073 0.961060 -0.393696
C29   C     C_3   0.681084 0.970072 0.539404 -0.393540
C30   C     C_3   0.749889 0.029722 0.419944 -0.377498
C31   C     C_3   0.681084 0.029928 0.539404 -0.393539
C32   C     C_3   0.749889 0.970278 0.419944 -0.377497
H1    H     H_    0.299094 0.456096 0.109810 0.181394
H2    H     H_    0.179564 0.544177 0.903613 0.186543
H3    H     H_    0.299094 0.543904 0.109810 0.181394
H4    H     H_    0.179564 0.455823 0.903613 0.186543
H5    H     H_    0.679649 0.955821 0.596861 0.187028
H6    H     H_    0.798944 0.043902 0.389871 0.181967
H7    H     H_    0.679649 0.044179 0.596861 0.187028
H8    H     H_    0.798944 0.956098 0.389871 0.181967
H9    H     H_    0.200946 0.456097 0.110116 0.181970
H10   H     H_    0.130931 0.544361 0.988965 0.152802
H11   H     H_    0.200946 0.543903 0.110116 0.181970
H12   H     H_    0.130931 0.455639 0.988965 0.152801
H13   H     H_    0.630906 0.955636 0.511844 0.152634
H14   H     H_    0.700796 0.043904 0.390203 0.181376
H15   H     H_    0.630906 0.044364 0.511844 0.152634
H16   H     H_    0.700796 0.956096 0.390203 0.181375
H17   H     H_    0.369015 0.455637 0.988186 0.152644
H18   H     H_    0.320293 0.544179 0.903156 0.187040
H19   H     H_    0.369015 0.544363 0.988186 0.152644
H20   H     H_    0.320293 0.455821 0.903156 0.187040
H21   H     H_    0.820378 0.955823 0.596369 0.186534
H22   H     H_    0.868990 0.044360 0.511006 0.152787
H23   H     H_    0.820378 0.044177 0.596369 0.186534
H24   H     H_    0.868990 0.955640 0.511006 0.152787
C33   C     C_3   0.318844 0.470072 0.960613 -0.393511
C34   C     C_3   0.318844 0.529928 0.960613 -0.393511
C35   C     C_3   0.818858 0.970073 0.538923 -0.393696
C36   C     C_3   0.818858 0.029927 0.538923 -0.393695
C37   C     C_3   0.249975 0.449137 0.000435 0.192098
C38   C     C_3   0.249975 0.550863 0.000435 0.192099
C39   C     C_3   0.749943 0.949137 0.499565 0.192131
C40   C     C_3   0.749943 0.050863 0.499565 0.192130
H25   H     H_    0.881902 0.316553 0.963747 0.134974
H26   H     H_    0.919976 0.625630 0.074266 0.122784
H27   H     H_    0.881888 0.683479 0.963760 0.134987
H28   H     H_    0.919975 0.374371 0.074267 0.122779
H29   H     H_    0.381881 0.816475 0.463789 0.135038
H30   H     H_    0.420133 0.125483 0.574395 0.122861
H31   H     H_    0.381864 0.183568 0.463807 0.135054
H32   H     H_    0.420135 0.874519 0.574398 0.122853
C41   C     C_R   0.142509 0.214326 0.714785 -0.140364
C42   C     C_R   0.122479 0.816423 0.264617 -0.143645
C43   C     C_R   0.142516 0.785657 0.714777 -0.140367
C44   C     C_R   0.122480 0.183578 0.264618 -0.143653
C45   C     C_R   0.642527 0.714375 0.214757 -0.140529
C46   C     C_R   0.622447 0.316450 0.764605 -0.143443
C47   C     C_R   0.642536 0.285604 0.214748 -0.140532
C48   C     C_R   0.622447 0.683549 0.764604 -0.143449
C49   C     C_R   0.158889 0.197113 0.644389 -0.141149
C50   C     C_R   0.128791 0.848971 0.325073 -0.159586
C51   C     C_R   0.158900 0.802861 0.644378 -0.141155
C52   C     C_R   0.128793 0.151030 0.325073 -0.159597
C53   C     C_R   0.658914 0.697189 0.144350 -0.141278
C54   C     C_R   0.628737 0.349013 0.825048 -0.159144
C55   C     C_R   0.658927 0.302778 0.144337 -0.141286
C56   C     C_R   0.628736 0.650986 0.825047 -0.159151
C57   C     C_R   0.605300 0.697174 0.090727 -0.142382
C58   C     C_R   0.574897 0.349084 0.878835 -0.150023
C59   C     C_R   0.605314 0.302792 0.090714 -0.142387
C60   C     C_R   0.574896 0.650914 0.878833 -0.150013
C61   C     C_R   0.105278 0.197099 0.590764 -0.142241
C62   C     C_R   0.074978 0.849022 0.378886 -0.150410
C63   C     C_R   0.105288 0.802876 0.590754 -0.142243
C64   C     C_R   0.074978 0.150978 0.378885 -0.150402
C65   C     C_R   0.535002 0.714323 0.107231 -0.142538
C66   C     C_R   0.514522 0.316534 0.872529 -0.144670
C67   C     C_R   0.535011 0.285656 0.107223 -0.142539
C68   C     C_R   0.514521 0.683464 0.872527 -0.144662
C69   C     C_R   0.034987 0.214271 0.607254 -0.142336
C70   C     C_R   0.014596 0.816476 0.372583 -0.144821
C71   C     C_R   0.034994 0.785712 0.607247 -0.142337
C72   C     C_R   0.014596 0.183523 0.372583 -0.144815
C73   C     C_R   0.517162 0.732691 0.178191 0.072452
C74   C     C_R   0.506852 0.283158 0.811536 0.075335
C75   C     C_R   0.517166 0.267298 0.178187 0.072453
C76   C     C_R   0.506851 0.716841 0.811535 0.075332
C77   C     C_R   0.017154 0.232665 0.678202 0.072497
C78   C     C_R   0.006888 0.783131 0.311563 0.075305
C79   C     C_R   0.017158 0.767327 0.678199 0.072497
C80   C     C_R   0.006888 0.216869 0.311563 0.075303
C81   C     C_R   0.071683 0.232713 0.732714 0.072837
C82   C     C_R   0.061520 0.783091 0.256919 0.078055
C83   C     C_R   0.071687 0.767278 0.732710 0.072838
C84   C     C_R   0.061520 0.216910 0.256919 0.078058
C85   C     C_R   0.571692 0.732738 0.232701 0.072809
C86   C     C_R   0.561496 0.283110 0.756905 0.077982
C87   C     C_R   0.571696 0.267251 0.232697 0.072811
C88   C     C_R   0.561496 0.716890 0.756905 0.077984
C89   C     C_R   0.445922 0.749933 0.195960 -0.155182
C90   C     C_R   0.445874 0.250064 0.804087 -0.149582
C91   C     C_R   0.445922 0.250067 0.195960 -0.155191
C92   C     C_R   0.445874 0.749935 0.804087 -0.149582
C93   C     C_R   0.945924 0.249931 0.695958 -0.154989
C94   C     C_R   0.945879 0.750068 0.304092 -0.149744
C95   C     C_R   0.945924 0.750069 0.695958 -0.154996
C96   C     C_R   0.945879 0.249932 0.304092 -0.149744
C97   C     C_R   0.428294 0.767248 0.267294 0.072805
C98   C     C_R   0.438497 0.216893 0.743109 0.078055
C99   C     C_R   0.428290 0.232763 0.267298 0.072806
C100  C     C_R   0.438497 0.783107 0.743109 0.078058
C101  C     C_R   0.928304 0.267272 0.767280 0.072862
C102  C     C_R   0.938460 0.716934 0.243078 0.077999
C103  C     C_R   0.928300 0.732737 0.767284 0.072862
C104  C     C_R   0.938460 0.283065 0.243078 0.078002
C105  C     C_R   0.982832 0.267319 0.821793 0.072488
C106  C     C_R   0.993095 0.716891 0.188437 0.075287
C107  C     C_R   0.982829 0.732690 0.821796 0.072488
C108  C     C_R   0.993094 0.283109 0.188437 0.075284
C109  C     C_R   0.482825 0.767294 0.321804 0.072447
C110  C     C_R   0.493138 0.216849 0.688474 0.075341
C111  C     C_R   0.482820 0.232717 0.321809 0.072448
C112  C     C_R   0.493138 0.783152 0.688475 0.075339
C113  C     C_R   0.054063 0.250053 0.804036 -0.155019
C114  C     C_R   0.054107 0.749950 0.195912 -0.149757
C115  C     C_R   0.054063 0.749947 0.804036 -0.155026
C116  C     C_R   0.054107 0.250050 0.195912 -0.149757
C117  C     C_R   0.554064 0.750052 0.304035 -0.155195
C118  C     C_R   0.554113 0.249946 0.695919 -0.149624
C119  C     C_R   0.554064 0.249948 0.304035 -0.155204
C120  C     C_R   0.554113 0.750054 0.695919 -0.149624
C121  C     C_R   0.357460 0.785614 0.285237 -0.140518
C122  C     C_R   0.377562 0.183537 0.735426 -0.143626
C123  C     C_R   0.357451 0.214408 0.285247 -0.140523
C124  C     C_R   0.377562 0.816463 0.735427 -0.143632
C125  C     C_R   0.857478 0.285660 0.785210 -0.140370
C126  C     C_R   0.877488 0.683615 0.235366 -0.143453
C127  C     C_R   0.857471 0.714357 0.785217 -0.140373
C128  C     C_R   0.877487 0.316384 0.235365 -0.143460
C129  C     C_R   0.341075 0.802802 0.355644 -0.141254
C130  C     C_R   0.371282 0.150961 0.674995 -0.159495
C131  C     C_R   0.341061 0.197231 0.355658 -0.141261
C132  C     C_R   0.371283 0.849039 0.674996 -0.159503
C133  C     C_R   0.841098 0.302869 0.855606 -0.141186
C134  C     C_R   0.871167 0.651078 0.174899 -0.159259
C135  C     C_R   0.841087 0.697156 0.855617 -0.141191
C136  C     C_R   0.871165 0.348921 0.174899 -0.159269
C137  C     C_R   0.894708 0.302881 0.909232 -0.142229
C138  C     C_R   0.924988 0.651019 0.121094 -0.150383
C139  C     C_R   0.894697 0.697144 0.909243 -0.142233
C140  C     C_R   0.924987 0.348980 0.121094 -0.150377
C141  C     C_R   0.394688 0.802816 0.409267 -0.142387
C142  C     C_R   0.425112 0.150901 0.621197 -0.150057
C143  C     C_R   0.394674 0.197218 0.409280 -0.142393
C144  C     C_R   0.425113 0.849101 0.621199 -0.150045
C145  C     C_R   0.964999 0.285710 0.892742 -0.142345
C146  C     C_R   0.985382 0.683551 0.127411 -0.144842
C147  C     C_R   0.964991 0.714307 0.892749 -0.142344
C148  C     C_R   0.985382 0.316449 0.127412 -0.144835
C149  C     C_R   0.464985 0.785664 0.392763 -0.142549
C150  C     C_R   0.485472 0.183467 0.627487 -0.144649
C151  C     C_R   0.464976 0.214358 0.392772 -0.142550
C152  C     C_R   0.485473 0.816534 0.627488 -0.144643
H33   H     H_    0.185877 0.212664 0.754797 0.126429
H34   H     H_    0.165706 0.817749 0.224126 0.104721
H35   H     H_    0.185884 0.787320 0.754789 0.126443
H36   H     H_    0.165708 0.182253 0.224127 0.104723
H37   H     H_    0.685897 0.712711 0.254766 0.126495
H38   H     H_    0.665691 0.317763 0.724131 0.104680
H39   H     H_    0.685906 0.287268 0.254758 0.126512
H40   H     H_    0.665692 0.682237 0.724131 0.104681
H41   H     H_    0.213310 0.183439 0.631515 0.135201
H42   H     H_    0.175624 0.874280 0.330149 0.119336
H43   H     H_    0.213324 0.816528 0.631502 0.135214
H44   H     H_    0.175626 0.125722 0.330150 0.119344
H45   H     H_    0.713342 0.683535 0.131463 0.135208
H46   H     H_    0.675575 0.374314 0.830140 0.119134
H47   H     H_    0.713359 0.316423 0.131447 0.135224
H48   H     H_    0.675575 0.625686 0.830139 0.119139
H49   H     H_    0.618109 0.683518 0.036204 0.135019
H50   H     H_    0.579882 0.374494 0.925644 0.122843
H51   H     H_    0.618126 0.316441 0.036187 0.135035
H52   H     H_    0.579880 0.625503 0.925641 0.122836
H53   H     H_    0.118083 0.183424 0.536251 0.134992
H54   H     H_    0.079984 0.874418 0.425708 0.122801
H55   H     H_    0.118096 0.816544 0.536237 0.135005
H56   H     H_    0.079984 0.125581 0.425706 0.122796
H57   H     H_    0.494990 0.712624 0.063857 0.126674
H58   H     H_    0.474050 0.317897 0.915777 0.108253
H59   H     H_    0.495000 0.287355 0.063848 0.126691
H60   H     H_    0.474048 0.682101 0.915775 0.108252
H61   H     H_    0.994976 0.212573 0.563879 0.126608
H62   H     H_    0.974142 0.817825 0.415849 0.108222
H63   H     H_    0.994984 0.787411 0.563872 0.126621
H64   H     H_    0.974142 0.182174 0.415849 0.108221
H65   H     H_    0.314090 0.787279 0.245228 0.126526
H66   H     H_    0.334325 0.182217 0.775907 0.104681
H67   H     H_    0.314081 0.212743 0.245237 0.126544
H68   H     H_    0.334324 0.817782 0.775907 0.104682
H69   H     H_    0.814111 0.287324 0.745197 0.126410
H70   H     H_    0.834255 0.682294 0.275851 0.104717
H71   H     H_    0.814104 0.712692 0.745205 0.126424
H72   H     H_    0.834254 0.317704 0.275850 0.104718
H73   H     H_    0.786676 0.316543 0.868481 0.135162
H74   H     H_    0.824319 0.625786 0.169804 0.119131
H75   H     H_    0.786663 0.683490 0.868495 0.135175
H76   H     H_    0.824316 0.374212 0.169803 0.119138
H77   H     H_    0.286648 0.816460 0.368529 0.135253
H78   H     H_    0.324462 0.125640 0.669925 0.119347
H79   H     H_    0.286630 0.183583 0.368546 0.135270
H80   H     H_    0.324462 0.874360 0.669926 0.119353
H81   H     H_    0.005009 0.287405 0.936117 0.126615
H82   H     H_    0.025840 0.682199 0.084149 0.108251
H83   H     H_    0.005001 0.712611 0.936124 0.126628
H84   H     H_    0.025840 0.317802 0.084150 0.108250
H85   H     H_    0.504997 0.787361 0.436138 0.126675
H86   H     H_    0.525939 0.182109 0.584233 0.108245
H87   H     H_    0.504987 0.212659 0.436147 0.126692
H88   H     H_    0.525940 0.817893 0.584235 0.108244
H89   H     H_    0.335250 0.047764 0.761837 0.134136
H90   H     H_    0.335251 0.952236 0.761837 0.134137
H91   H     H_    0.833511 0.547764 0.261196 0.133629
H92   H     H_    0.833510 0.452236 0.261195 0.133629
C153  C     C_R   0.204314 0.053863 0.127602 -0.138397
C154  C     C_R   0.204314 0.946137 0.127602 -0.138397
C155  C     C_R   0.705192 0.553865 0.627920 -0.138369
C156  C     C_R   0.705191 0.446134 0.627920 -0.138370
C157  C     C_R   0.181904 0.026877 0.189737 -0.139622
C158  C     C_R   0.181904 0.973123 0.189737 -0.139622
C159  C     C_R   0.683242 0.526877 0.690228 -0.139080
C160  C     C_R   0.683242 0.473122 0.690227 -0.139081
C161  C     C_R   0.226613 0.972789 0.063459 0.070288
C162  C     C_R   0.226613 0.027210 0.063459 0.070287
C163  C     C_R   0.727058 0.472789 0.563625 0.070233
C164  C     C_R   0.727058 0.527211 0.563625 0.070233
C165  C     C_R   0.250024 0.946270 0.000003 -0.146874
C166  C     C_R   0.250024 0.053730 0.000003 -0.146874
C167  C     C_R   0.750022 0.446269 0.500001 -0.146633
C168  C     C_R   0.750022 0.553731 0.500001 -0.146633
C169  C     C_R   0.273442 0.972789 0.936550 0.070286
C170  C     C_R   0.273442 0.027211 0.936550 0.070287
C171  C     C_R   0.772987 0.472789 0.436377 0.070227
C172  C     C_R   0.772987 0.527211 0.436377 0.070227
C173  C     C_R   0.295749 0.946137 0.872410 -0.138420
C174  C     C_R   0.295749 0.053863 0.872409 -0.138420
C175  C     C_R   0.794848 0.446134 0.372080 -0.138370
C176  C     C_R   0.794849 0.553866 0.372081 -0.138371
C177  C     C_R   0.318169 0.973123 0.810279 -0.139378
C178  C     C_R   0.318169 0.026877 0.810279 -0.139379
C179  C     C_R   0.816791 0.473122 0.309770 -0.139330
C180  C     C_R   0.816792 0.526878 0.309771 -0.139330
H93   H     H_    0.204301 0.095669 0.130728 0.122845
H94   H     H_    0.204301 0.904331 0.130729 0.122844
H95   H     H_    0.705168 0.595673 0.631021 0.122401
H96   H     H_    0.705166 0.404326 0.631020 0.122401
H97   H     H_    0.164831 0.047765 0.238181 0.134032
H98   H     H_    0.164832 0.952235 0.238182 0.134030
H99   H     H_    0.666517 0.547763 0.738801 0.133712
H100  H     H_    0.666516 0.452237 0.738800 0.133712
H101  H     H_    0.295763 0.904331 0.869283 0.122862
H102  H     H_    0.295762 0.095669 0.869282 0.122861
H103  H     H_    0.794872 0.404326 0.368980 0.122410
H104  H     H_    0.794874 0.595674 0.368981 0.122410

loop_
_geom_bond_atom_site_label_1
_geom_bond_atom_site_label_2
_geom_bond_distance
_ccdc_geom_bond_type
C154  C158  1.393360 A    
C44   C84   1.416906 A    
C168  C172  1.412676 A    
C1    C91   1.453380 S    
C103  C127  1.418256 A    
C177  C178  1.389142 A    
C2    C92   1.449481 S    
C12   C116  1.449482 S    
C79   C95   1.414903 A    
C101  C125  1.418253 A    
C58   C66   1.393832 A    
O26   C7    1.276225 A    
C77   C93   1.414900 A    
C70   C78   1.416641 A    
C134  H74   1.082397 S    
C54   C58   1.390009 A    
C105  C145  1.418190 A    
O30   C11   1.276134 A    
C30   H14   1.113469 S    
C23   C39   1.492203 S    
C36   C40   1.551141 S    
C93   C101  1.414721 A    
C4    C90   1.449482 S    
C133  C137  1.388686 A    
Zn12  O26   1.935067 S    
C104  C108  1.411290 A    
C157  H97   1.082282 S    
C165  C169  1.412586 A    
C96   C104  1.412690 A    
C47   C55   1.393081 A    
C80   C96   1.412989 A    
Zn3   O15   1.936201 S    
H29   C141  1.082171 S    
C106  C114  1.412981 A    
C43   C51   1.393076 A    
H26   C138  1.082454 S    
C10   C114  1.449482 S    
C48   H40   1.082406 S    
O11   C7    1.276517 A    
C20   C167  1.437553 S    
C49   H41   1.082224 S    
C46   C86   1.416904 A    
O34   C15   1.276133 A    
C76   C88   1.411293 A    
C59   H51   1.082165 S    
C60   H52   1.082456 S    
C45   H37   1.081545 S    
C163  C164  1.406415 A    
C141  C149  1.393172 A    
C29   C39   1.551240 S    
C102  C126  1.416906 A    
Zn1   O44   1.947573 S    
C25   H1    1.113469 S    
Zn2   O43   1.947574 S    
C112  C120  1.412983 A    
Zn5   O48   1.947573 S    
H32   C144  1.082460 S    
Zn6   O47   1.947574 S    
C121  H65   1.081545 S    
Zn7   O46   1.947572 S    
O16   C12   1.276321 A    
C78   C94   1.412989 A    
C46   C54   1.393623 A    
C173  C177  1.393355 A    
Zn16  O4    1.949541 S    
Zn12  O4    1.949841 S    
Zn1   O13   1.936201 S    
C137  C145  1.393173 A    
C26   C28   1.546795 S    
Zn4   O16   1.931477 S    
C61   H53   1.082147 S    
H24   C35   1.113061 S    
C42   C82   1.416906 A    
C28   H4    1.112959 S    
C67   H59   1.081522 S    
Zn6   O4    1.947501 S    
C68   H60   1.082366 S    
C89   C97   1.414737 A    
C106  C146  1.416642 A    
C148  H84   1.082363 S    
C13   C117  1.453378 S    
C107  C147  1.418192 A    
C48   C88   1.416904 A    
C30   H6    1.113497 S    
Zn10  O22   1.935067 S    
C109  C117  1.414906 A    
C136  H76   1.082398 S    
C41   H33   1.081547 S    
C122  H66   1.082405 S    
O25   C8    1.276095 A    
C167  C171  1.412676 A    
Zn10  O2    1.949841 S    
C158  H98   1.082283 S    
C173  H101  1.081883 S    
C59   C67   1.393169 A    
O29   C12   1.275992 A    
C163  C167  1.412676 A    
Zn15  O33   1.930593 S    
C35   C39   1.551141 S    
H19   C34   1.113043 S    
C33   C37   1.551238 S    
C95   C103  1.414724 A    
C26   H2    1.112960 S    
C151  H87   1.081523 S    
C161  C162  1.406389 A    
C45   C85   1.418260 A    
O37   C17   1.270203 A    
O48   C23   1.276520 A    
C80   C84   1.411292 A    
C28   C37   1.551144 S    
Zn13  O29   1.930593 S    
C130  H78   1.082411 S    
Zn16  O35   1.930592 S    
C21   C37   1.492203 S    
C86   C118  1.412707 A    
C73   C85   1.412059 A    
C26   C38   1.551143 S    
Zn7   O10   1.931433 S    
C127  H71   1.081546 S    
O33   C16   1.276019 A    
C24   C40   1.492203 S    
C97   C121  1.418261 A    
C134  C138  1.390001 A    
O40   C20   1.270201 A    
C16   C120  1.449490 S    
Zn5   O17   1.936201 S    
C27   C38   1.554251 S    
H31   C143  1.082171 S    
C41   C81   1.418254 A    
C61   C69   1.393175 A    
C92   C100  1.412703 A    
C57   H49   1.082165 S    
C25   C27   1.536200 S    
C43   H35   1.081545 S    
C53   C57   1.388683 A    
C71   C79   1.418194 A    
H25   C137  1.082145 S    
C30   C40   1.554252 S    
C69   C77   1.418189 A    
C27   H3    1.113470 S    
C32   H8    1.113498 S    
Zn8   O3    1.947502 S    
C143  C151  1.393169 A    
C55   C59   1.388683 A    
C56   C60   1.390008 A    
C57   C65   1.393171 A    
O38   C18   1.270204 A    
C149  H85   1.081525 S    
O5    C1    1.276516 A    
O32   C9    1.276133 A    
C108  C148  1.416642 A    
C130  C142  1.390015 A    
C155  C164  1.418701 A    
C15   C119  1.453378 S    
C56   H48   1.082398 S    
Zn15  O51   1.947801 S    
Zn11  O28   1.935068 S    
Zn12  O40   1.947759 S    
C8    C94   1.449491 S    
C125  H69   1.081548 S    
C46   H38   1.082405 S    
C176  H104  1.081917 S    
C147  H83   1.081525 S    
C17   C166  1.437553 S    
O8    C4    1.276401 A    
H92   C179  1.082374 S    
C67   C75   1.418204 A    
C145  H81   1.081526 S    
C68   C76   1.416654 A    
O50   C18   1.270209 A    
C153  C157  1.393358 A    
C111  C119  1.414908 A    
Zn1   O1    1.947502 S    
C126  C134  1.393609 A    
Zn13  O1    1.949540 S    
Zn2   O14   1.931477 S    
C29   H5    1.112973 S    
C44   C52   1.393609 A    
C62   H54   1.082453 S    
C72   C80   1.416640 A    
C162  C166  1.412587 A    
C77   C81   1.412062 A    
C153  H93   1.081883 S    
O9    C5    1.276517 A    
O39   C19   1.270200 A    
O36   C13   1.276134 A    
C98   C110  1.411294 A    
C64   C72   1.393851 A    
C75   C87   1.412058 A    
O13   C9    1.276422 A    
C122  C130  1.393621 A    
Zn1   O8    1.931434 S    
C159  H99   1.082367 S    
Zn2   O7    1.936157 S    
C169  C173  1.418621 A    
Zn3   O6    1.931433 S    
C81   C113  1.414719 A    
O18   C14   1.276301 A    
O31   C10   1.275991 A    
H17   C33   1.113044 S    
O6    C2    1.276400 A    
H90   C177  1.082274 S    
C25   H9    1.113499 S    
C32   H16   1.113470 S    
C153  C162  1.418622 A    
C9    C113  1.453377 S    
Zn14  O30   1.935321 S    
C63   H55   1.082151 S    
C60   C68   1.393834 A    
Zn15  O3    1.949540 S    
C44   H36   1.082404 S    
Zn11  O3    1.949841 S    
C99   C123  1.418264 A    
O41   C21   1.276520 A    
C31   C40   1.551240 S    
C70   H62   1.082362 S    
Zn16  O34   1.935321 S    
H21   C35   1.112959 S    
C31   H15   1.113041 S    
C84   C116  1.412686 A    
C34   C38   1.551236 S    
C94   C102  1.412692 A    
C139  C147  1.393174 A    
Zn8   O20   1.931477 S    
C69   H61   1.081528 S    
C166  C170  1.412584 A    
C112  C152  1.416656 A    
C63   C71   1.393175 A    
C51   H43   1.082226 S    
C132  H80   1.082411 S    
C52   H44   1.082413 S    
C105  C113  1.414899 A    
C83   C115  1.414724 A    
Zn8   O9    1.936157 S    
C25   C37   1.554251 S    
C123  C131  1.393085 A    
C88   C120  1.412709 A    
C50   C62   1.390008 A    
C66   C74   1.416655 A    
C142  C150  1.393843 A    
O7    C3    1.276515 A    
O19   C15   1.276423 A    
C87   C119  1.414734 A    
C47   C87   1.418260 A    
C26   H10   1.113060 S    
Zn9   O24   1.935068 S    
Zn6   O18   1.931477 S    
H89   C178  1.082275 S    
C43   C83   1.418255 A    
C53   H45   1.082213 S    
C171  C172  1.406420 A    
C129  C141  1.388689 A    
C174  C178  1.393354 A    
C179  C180  1.389186 A    
C62   C70   1.393850 A    
C164  C168  1.412675 A    
C138  C146  1.393841 A    
C107  C115  1.414903 A    
Zn15  O36   1.935320 S    
C3    C89   1.453380 S    
O15   C11   1.276423 A    
O42   C22   1.279548 A    
C74   C90   1.412974 A    
Zn4   O1    1.947502 S    
C30   C32   1.536200 S    
C5    C95   1.453379 S    
C33   C34   1.546821 S    
C49   C61   1.388690 A    
C35   C36   1.546780 S    
O12   C8    1.276410 A    
Zn11  O39   1.947759 S    
C90   C98   1.412704 A    
C150  H86   1.082366 S    
C132  C144  1.390015 A    
C135  C139  1.388686 A    
C64   H56   1.082452 S    
C65   H57   1.081524 S    
C42   H34   1.082406 S    
Zn5   O3    1.947502 S    
C31   H7    1.112973 S    
C155  C159  1.393527 A    
C58   H50   1.082457 S    
C156  C160  1.393527 A    
C125  C133  1.393072 A    
C42   C50   1.393609 A    
C174  H102  1.081881 S    
H20   C33   1.112973 S    
C133  H73   1.082218 S    
H22   C36   1.113061 S    
O28   C5    1.276226 A    
C155  H95   1.081917 S    
C159  C160  1.389175 A    
C22   C38   1.492203 S    
Zn3   O42   1.947572 S    
C146  H82   1.082362 S    
Zn7   O4    1.947504 S    
O21   C4    1.276098 A    
C121  C129  1.393088 A    
C140  C148  1.393843 A    
Zn10  O23   1.930343 S    
C48   C56   1.393622 A    
C171  C175  1.418699 A    
C109  C149  1.418204 A    
C175  C179  1.393529 A    
Zn2   O2    1.947501 S    
C169  C170  1.406392 A    
Zn14  O2    1.949541 S    
C176  C180  1.393531 A    
C156  H96   1.081917 S    
C32   C39   1.554250 S    
C41   C49   1.393072 A    
Zn13  O49   1.947801 S    
O44   C21   1.279547 A    
C28   H12   1.113061 S    
C100  C112  1.411292 A    
C85   C117  1.414733 A    
C98   C122  1.416904 A    
C91   C99   1.414738 A    
Zn12  O27   1.930343 S    
C124  C132  1.393620 A    
C75   C91   1.414909 A    
C76   C92   1.412975 A    
C65   C73   1.418203 A    
Zn3   O2    1.947504 S    
C126  H70   1.082404 S    
C156  C163  1.418699 A    
H27   C139  1.082147 S    
O46   C24   1.276520 A    
Zn4   O41   1.947573 S    
C129  H77   1.082218 S    
Zn16  O52   1.947801 S    
C104  C128  1.416908 A    
H30   C142  1.082459 S    
Zn8   O45   1.947573 S    
C45   C53   1.393085 A    
O27   C6    1.276096 A    
C11   C115  1.453377 S    
C108  C116  1.412981 A    
C47   H39   1.081545 S    
C71   H63   1.081527 S    
C154  H94   1.081883 S    
C29   C31   1.546837 S    
C79   C83   1.412060 A    
C6    C96   1.449491 S    
C152  H88   1.082366 S    
O24   C1    1.276230 A    
C100  C124  1.416905 A    
C103  C107  1.412060 A    
C136  C140  1.390001 A    
O43   C22   1.276519 A    
O14   C10   1.276321 A    
O47   C24   1.279547 A    
C131  C143  1.388687 A    
C175  H103  1.081917 S    
Zn5   O12   1.931434 S    
C154  C161  1.418623 A    
Zn6   O11   1.936157 S    
C14   C118  1.449491 S    
Zn9   O21   1.930343 S    
Zn14  O50   1.947801 S    
C128  H72   1.082404 S    
C78   C82   1.411291 A    
O35   C14   1.276017 A    
C52   C64   1.390007 A    
C19   C168  1.437556 S    
C123  H67   1.081542 S    
C7    C93   1.453379 S    
Zn9   O1    1.949841 S    
C124  H68   1.082404 S    
C50   H42   1.082412 S    
C51   C63   1.388690 A    
C170  C174  1.418624 A    
O52   C20   1.270200 A    
C160  H100  1.082366 S    
C18   C165  1.437556 S    
C29   H13   1.113041 S    
O22   C3    1.276229 A    
C101  C105  1.412060 A    
C144  C152  1.393843 A    
Zn7   O19   1.936201 S    
C172  C176  1.418698 A    
C54   H46   1.082396 S    
Zn13  O32   1.935320 S    
O49   C17   1.270210 A    
Zn14  O31   1.930592 S    
C127  C135  1.393074 A    
O51   C19   1.270200 A    
C110  C118  1.412983 A    
H28   C140  1.082451 S    
C27   H11   1.113499 S    
C74   C86   1.411293 A    
C131  H79   1.082219 S    
Zn4   O5    1.936157 S    
H23   C36   1.112961 S    
O20   C16   1.276299 A    
C161  C165  1.412585 A    
C73   C89   1.414908 A    
O10   C6    1.276409 A    
O23   C2    1.276101 A    
C110  C150  1.416654 A    
Zn11  O25   1.930343 S    
C99   C111  1.412058 A    
C157  C158  1.389150 A    
Zn10  O38   1.947759 S    
C135  H75   1.082220 S    
C128  C136  1.393609 A    
C97   C109  1.412060 A    
C72   H64   1.082363 S    
Zn9   O37   1.947759 S    
C102  C106  1.411290 A    
C82   C114  1.412686 A    
H18   C34   1.112974 S    
C111  C151  1.418206 A    
H91   C180  1.082374 S    
O17   C13   1.276421 A    
C66   H58   1.082366 S    
C55   H47   1.082212 S    
O45   C23   1.279547 A    
