data_mof_unit_17382.cif
_audit_creation_date              2012-12-11T16:41:20-0500
_audit_creation_method            fapswitch 2.2
_symmetry_space_group_name_H-M    P1
_symmetry_Int_Tables_number       1
_space_group_crystal_system       triclinic
_cell_length_a                    6.930859
_cell_length_b                    23.122567
_cell_length_c                    23.663284
_cell_angle_alpha                 112.651913
_cell_angle_beta                  90.248253
_cell_angle_gamma                 90.630244
_cell_volume                      3499.36886915

loop_
_atom_site_label
_atom_site_type_symbol
_atom_type_description
_atom_site_fract_x
_atom_site_fract_y
_atom_site_fract_z
_atom_type_partial_charge
O1    O     O_R   0.505740 0.453370 0.547760 -0.539980
O2    O     O_R   0.169520 0.427650 0.423350 -0.540840
O3    O     O_R   0.005620 0.546630 0.452240 -0.539407
C1    C     C_R   0.336645 0.408791 0.399279 0.703888
O4    O     O_R   0.175610 0.445960 0.545510 -0.542224
O5    O     O_R   0.011740 0.565080 0.575280 -0.538908
C2    C     C_R   0.344286 0.434151 0.562624 0.691995
O6    O     O_R   0.499610 0.434920 0.424720 -0.536919
O7    O     O_3   0.341310 0.539060 0.509620 -0.367695
V1    V     V_3+5 0.063960 0.492750 0.498220 1.393083
O8    O     O_R   0.682400 0.572350 0.576650 -0.536486
C3    C     C_R   0.850191 0.589451 0.601854 0.715201
O9    O     O_R   0.676320 0.554040 0.454490 -0.541113
C4    C     C_R   0.845331 0.566055 0.437611 0.693391
V2    V     V_3+5 0.564740 0.507250 0.501780 1.393455
O10   O     O_3   0.837250 0.460940 0.490380 -0.368152
C5    C     C_R   0.772755 0.875855 0.114566 -0.160964
H1    H     H_    0.640063 0.887943 0.097665 0.121048
C6    C     C_R   0.761360 0.840227 0.150728 -0.143275
H2    H     H_    0.620505 0.825348 0.159985 0.099945
C7    C     C_R   0.929420 0.823245 0.173831 0.094519
C8    C     C_R   0.109398 0.842570 0.159366 -0.141601
H3    H     H_    0.241712 0.831197 0.177048 0.099133
C9    C     C_R   0.120887 0.878034 0.122979 -0.160221
H4    H     H_    0.261833 0.892442 0.113240 0.117823
C10   C     C_R   0.952634 0.895331 0.100231 -0.055669
C11   C     C_R   0.053193 0.739372 0.207680 -0.151156
H5    H     H_    0.167811 0.729434 0.174460 0.110705
C12   C     C_R   0.041100 0.704192 0.244289 -0.151891
H6    H     H_    0.146806 0.668192 0.238171 0.109566
C13   C     C_R   0.892302 0.714390 0.287224 0.080950
C14   C     C_R   0.755891 0.760761 0.292469 -0.151438
H7    H     H_    0.641273 0.770697 0.325688 0.110401
C15   C     C_R   0.767985 0.795941 0.255859 -0.151991
H8    H     H_    0.662278 0.831940 0.261976 0.109399
C16   C     C_R   0.916789 0.785745 0.212927 0.080984
C17   C     C_R   0.699733 0.657564 0.340794 -0.141645
H9    H     H_    0.567405 0.668935 0.323118 0.099176
C18   C     C_R   0.688280 0.622089 0.377172 -0.160557
H10   H     H_    0.547347 0.607671 0.386910 0.117886
C19   C     C_R   0.856555 0.604788 0.399906 -0.055985
C20   C     C_R   0.036415 0.624278 0.385574 -0.161123
H11   H     H_    0.169124 0.612188 0.402464 0.121076
C21   C     C_R   0.047775 0.659916 0.349421 -0.143567
H12   H     H_    0.188618 0.674800 0.340162 0.099858
C22   C     C_R   0.879696 0.676894 0.326324 0.094537
C23   C     C_R   0.850253 0.642828 0.662930 -0.082792
C24   C     C_R   0.956395 0.854461 0.839611 -0.067133
C25   C     C_R   0.126820 0.791093 0.746318 -0.174505
C26   C     C_R   0.114134 0.845188 0.799801 -0.167475
C27   C     C_R   0.810508 0.808211 0.824572 -0.227177
C28   C     C_R   0.824753 0.752887 0.771353 0.114267
C29   C     C_R   0.983394 0.744313 0.731700 0.155018
C30   C     C_R   0.995393 0.689520 0.677986 -0.281188
C31   C     C_R   0.695682 0.650465 0.704808 0.153522
C32   C     C_R   0.684393 0.705525 0.757915 -0.186454
H13   H     H_    0.114444 0.684170 0.646866 0.131168
H14   H     H_    0.250189 0.785554 0.716789 0.120539
H15   H     H_    0.564698 0.711593 0.788971 0.123782
H16   H     H_    0.229349 0.879891 0.810354 0.123611
H17   H     H_    0.690136 0.814179 0.855340 0.121337
C33   C     C_R   0.336819 0.352635 0.340337 -0.070990
C34   C     C_R   0.472567 0.147573 0.159497 -0.070955
C35   C     C_R   0.649663 0.218882 0.249564 -0.200106
C36   C     C_R   0.641462 0.164581 0.195952 -0.167438
C37   C     C_R   0.310610 0.186474 0.178401 -0.236011
C38   C     C_R   0.319176 0.241895 0.231965 0.159042
C39   C     C_R   0.490276 0.258363 0.267811 0.159141
C40   C     C_R   0.498816 0.313761 0.321394 -0.235968
C41   C     C_R   0.167964 0.335659 0.303860 -0.166674
C42   C     C_R   0.159798 0.281383 0.250215 -0.199976
H18   H     H_    0.629681 0.325748 0.348969 0.123935
H19   H     H_    0.040851 0.364522 0.316838 0.128909
H20   H     H_    0.781329 0.230119 0.276680 0.123299
H21   H     H_    0.028144 0.270157 0.223093 0.123011
H22   H     H_    0.768567 0.135713 0.182993 0.129177
H23   H     H_    0.179739 0.174472 0.150828 0.124014
C43   C     C_R   0.289668 0.103019 0.865464 -0.203776
H24   H     H_    0.172219 0.071324 0.864355 0.126674
C44   C     C_R   0.272019 0.139204 0.830069 -0.147868
H25   H     H_    0.140454 0.135275 0.803923 0.118787
C45   C     C_R   0.420676 0.180452 0.829001 0.062199
C46   C     C_R   0.587446 0.184687 0.864427 -0.138473
H26   H     H_    0.704481 0.215642 0.863258 0.110459
C47   C     C_R   0.607156 0.148967 0.900723 0.146925
C48   C     C_R   0.456048 0.106856 0.901244 -0.065800
C49   C     C_R   0.472884 0.281285 0.813217 -0.149603
H27   H     H_    0.533149 0.301951 0.859091 0.112584
C50   C     C_R   0.463410 0.317578 0.777246 0.177082
C51   C     C_R   0.382410 0.291096 0.717521 0.061740
C52   C     C_R   0.308582 0.229516 0.696091 -0.195604
H28   H     H_    0.245167 0.208572 0.650660 0.126946
C53   C     C_R   0.319298 0.193866 0.732219 -0.153982
H29   H     H_    0.265388 0.146014 0.713508 0.118580
C54   C     C_R   0.403248 0.219037 0.791026 0.051723
C55   C     C_R   0.193276 0.341419 0.658354 -0.149385
H30   H     H_    0.060787 0.326851 0.673454 0.107521
C56   C     C_R   0.183718 0.375845 0.620925 -0.161619
H31   H     H_    0.043236 0.386991 0.607983 0.118230
C57   C     C_R   0.353436 0.396071 0.601045 -0.052804
C58   C     C_R   0.532649 0.380250 0.619074 -0.167710
H32   H     H_    0.666359 0.394591 0.604486 0.119848
C59   C     C_R   0.541834 0.345748 0.656336 -0.134505
H33   H     H_    0.681579 0.333722 0.668982 0.104599
C60   C     C_R   0.372393 0.326767 0.677004 0.104391
O11   O     O_R   0.309730 0.065160 0.075230 -0.536875
O12   O     O_R   0.633800 0.053970 0.954410 -0.537267
O13   O     O_R   0.797580 0.934860 0.924760 -0.535841
C61   C     C_R   0.465391 0.066930 0.938261 0.698368
O14   O     O_R   0.639820 0.072410 0.076610 -0.541723
O15   O     O_R   0.803650 0.953440 0.047830 -0.539663
C62   C     C_R   0.472692 0.091335 0.100630 0.700942
O16   O     O_R   0.303670 0.046590 0.952160 -0.540512
O17   O     O_3   0.468000 0.960960 0.990410 -0.366406
V3    V     V_3+5 0.745380 0.007240 0.001780 1.393579
O18   O     O_R   0.132940 0.946010 0.045600 -0.541336
C63   C     C_R   0.963911 0.934031 0.062495 0.692183
O19   O     O_R   0.126920 0.927560 0.923400 -0.540809
C64   C     C_R   0.958394 0.909346 0.899082 0.700094
V4    V     V_3+5 0.244590 0.992720 0.998240 1.398067
O20   O     O_3   0.972110 0.039040 0.009600 -0.367107
C65   C     C_3   0.542164 0.600502 0.694835 -0.743121
H34   H     H_    0.609521 0.553817 0.681708 0.192942
H35   H     H_    0.457877 0.609026 0.737056 0.193822
H36   H     H_    0.438927 0.600071 0.658687 0.219222
C66   C     C_3   0.788237 0.158212 0.939010 -0.749858
H37   H     H_    0.750249 0.170908 0.987829 0.203511
H38   H     H_    0.874253 0.114780 0.922403 0.216967
H39   H     H_    0.881697 0.196440 0.936415 0.195455
C67   C     C_3   0.534594 0.384624 0.803922 -0.796466
H40   H     H_    0.577150 0.399321 0.852829 0.205708
H41   H     H_    0.418759 0.416197 0.801032 0.217142
H42   H     H_    0.662730 0.390422 0.778607 0.207677

loop_
_geom_bond_atom_site_label_1
_geom_bond_atom_site_label_2
_ccdc_geom_bond_type
C55   C60   A    
C34   C36   A    
C66   H37   S    
V3    O20   S    
C11   C12   A    
C19   C20   A    
O2    C1    A    
C6    H2    S    
C27   H17   S    
C10   C63   S    
C1    O6    A    
O17   V3    S    
C18   C19   A    
C7    C16   S    
O11   C62   A    
C29   C30   A    
V4    O20   S    
C53   H29   S    
C36   H22   S    
C5    C10   A    
C35   C39   A    
O13   V3    S    
C6    C7    A    
C17   H9    S    
C9    C10   A    
O5    C3    A    
C43   C44   A    
C31   C32   A    
V2    O10   S    
C1    C33   S    
O18   C63   A    
C33   C41   A    
C15   H8    S    
C34   C62   S    
O19   C64   A    
O8    V2    S    
C24   C27   A    
C46   H26   S    
C39   C40   A    
C13   C22   S    
C55   C56   A    
C41   C42   A    
O1    V2    S    
O7    V1    S    
C38   C42   A    
C61   O16   A    
C43   C48   A    
C24   C26   A    
C37   C38   A    
C34   C37   A    
C58   C59   A    
C7    C8    A    
O12   C61   A    
O13   C64   A    
C47   C66   S    
C20   C21   A    
C3    C23   S    
C21   C22   A    
C24   C64   S    
O19   V4    S    
C2    C57   S    
C38   C39   A    
C58   H32   S    
C48   C61   S    
C9    H4    S    
C44   C45   A    
C52   H28   S    
O4    C2    A    
C43   H24   S    
C66   H39   S    
C47   C48   A    
C45   C46   A    
C25   H14   S    
O18   V4    S    
C33   C40   A    
C49   C54   A    
C14   C15   A    
C40   H18   S    
C67   H41   S    
C12   H6    S    
C52   C53   A    
O16   V4    S    
C13   C14   A    
O9    V2    S    
C55   H30   S    
C41   H19   S    
C5    H1    S    
C59   C60   A    
O12   V3    S    
O3    C4    A    
C23   C30   A    
C46   C47   A    
C56   H31   S    
O6    V2    S    
C56   C57   A    
C4    C19   S    
C8    C9    A    
C67   H42   S    
C20   H11   S    
C65   H35   S    
O2    V1    S    
C18   H10   S    
C28   C29   A    
C23   C31   A    
C37   H23   S    
C66   H38   S    
C45   C54   S    
O11   V4    S    
O1    C2    A    
C21   H12   S    
C51   C60   S    
C44   H25   S    
O5    V1    S    
O8    C3    A    
C11   C16   A    
C32   H15   S    
O15   C63   A    
C26   H16   S    
C35   C36   A    
C65   H36   S    
C49   C50   A    
C67   H40   S    
C17   C22   A    
C27   C28   A    
C12   C13   A    
O3    V1    S    
V1    O10   S    
C14   H7    S    
C42   H21   S    
C51   C52   A    
C53   C54   A    
C25   C29   A    
C57   C58   A    
C5    C6    A    
C15   C16   A    
O7    V2    S    
O14   C62   A    
C31   C65   S    
C50   C67   S    
O4    V1    S    
C49   H27   S    
C17   C18   A    
C25   C26   A    
C59   H33   S    
C65   H34   S    
C35   H20   S    
C8    H3    S    
O15   V3    S    
C50   C51   A    
O9    C4    A    
O14   V3    S    
O17   V4    S    
C28   C32   A    
C11   H5    S    
C30   H13   S    
