data_mof_unit_45093.cif
_audit_creation_date              2012-12-10T20:46:48-0500
_audit_creation_method            fapswitch 2.2
_symmetry_space_group_name_H-M    P1
_symmetry_Int_Tables_number       1
_space_group_crystal_system       triclinic
_cell_length_a                    12.966314
_cell_length_b                    8.935589
_cell_length_c                    8.096878
_cell_angle_alpha                 90.000363
_cell_angle_beta                  95.490039
_cell_angle_gamma                 89.962725
_cell_volume                      933.814178193

loop_
_atom_site_label
_atom_site_type_symbol
_atom_type_description
_atom_site_fract_x
_atom_site_fract_y
_atom_site_fract_z
_atom_type_partial_charge
C1    C     C_R   0.499941 0.217949 0.499990 0.931269
C2    C     C_R   0.500059 0.782051 0.500009 0.931072
C3    C     C_R   0.298148 0.509513 0.470977 0.942220
C4    C     C_R   0.701878 0.490719 0.529022 0.942086
C5    C     C_R   0.813014 0.475732 0.541563 -0.252231
C6    C     C_R   0.187061 0.525173 0.458450 -0.252353
C7    C     C_R   0.027575 0.560539 0.287037 0.522876
C8    C     C_R   0.972537 0.441017 0.713095 0.522795
C9    C     C_R   0.134246 0.553960 0.303660 -0.234017
C10   C     C_R   0.865860 0.447191 0.696390 -0.234112
C11   C     C_R   0.133060 0.516108 0.600837 0.416839
C12   C     C_R   0.867033 0.485293 0.399208 0.416750
C13   C     C_R   0.026955 0.489494 0.579963 -0.141408
C14   C     C_R   0.973118 0.512124 0.420164 -0.141443
C15   C     C_1   0.499981 0.065177 0.499996 -0.142141
C16   C     C_1   0.500018 0.934823 0.500004 -0.142030
H1    H     H_    0.824082 0.421071 0.802468 0.245887
H2    H     H_    0.176053 0.579887 0.197559 0.245888
N1    N     N_1   0.500020 0.500000 0.073640 0.014288
N2    N     N_1   0.499980 0.500000 0.926360 0.014299
O1    O     O_R   0.499990 0.285340 0.636850 -0.617124
O2    O     O_R   0.500010 0.714660 0.363150 -0.617170
O3    O     O_R   0.500010 0.285340 0.363150 -0.609751
O4    O     O_R   0.499990 0.714660 0.636850 -0.609716
O5    O     O_R   0.346350 0.500000 0.614250 -0.570093
O6    O     O_R   0.653650 0.500000 0.385750 -0.570031
O7    O     O_R   0.346360 0.500000 0.340500 -0.620892
O8    O     O_R   0.653640 0.500000 0.659500 -0.620929
Zn1   Zn    Zn3+2 0.499990 0.500000 0.682780 1.073703
Zn2   Zn    Zn3+2 0.500010 0.500000 0.317220 1.073685
Cl1   Cl    Cl    0.808959 0.426976 0.201412 -0.498717
Cl2   Cl    Cl    0.191235 0.574723 0.798449 -0.498709
Cl3   Cl    Cl    0.969135 0.652797 0.109009 -0.460288
Cl4   Cl    Cl    0.031069 0.348954 0.891183 -0.460507

loop_
_geom_bond_atom_site_label_1
_geom_bond_atom_site_label_2
_ccdc_geom_bond_type
C2    O2    A    
C4    O6    A    
C1    O1    A    
C8    C13   A    
C1    C15   S    
C2    C16   S    
N1    N2    T    
C3    C6    S    
C6    C9    A    
C3    O7    A    
C5    C10   A    
C8    Cl4   S    
C13   C14   A    
O7    Zn2   S    
O5    Zn1   S    
C11   C13   A    
O8    Zn1   S    
C4    O8    A    
C12   C14   A    
C11   Cl2   S    
C1    O3    A    
N2    Zn1   S    
C12   Cl1   S    
C2    O4    A    
C7    Cl3   S    
C10   H1    S    
C15   C16   T    
O3    Zn2   S    
C9    H2    S    
C3    O5    A    
C5    C12   A    
C8    C10   A    
C6    C11   A    
C7    C9    A    
O4    Zn1   S    
O2    Zn2   S    
N1    Zn2   S    
O1    Zn1   S    
C7    C14   A    
C4    C5    S    
O6    Zn2   S    
