data_mof_unit_16217.cif
_audit_creation_date              2012-12-10T18:05:16-0500
_audit_creation_method            fapswitch 2.2
_symmetry_space_group_name_H-M    P1
_symmetry_Int_Tables_number       1
_space_group_crystal_system       triclinic
_cell_length_a                    9.601907
_cell_length_b                    10.929849
_cell_length_c                    17.102013
_cell_angle_alpha                 84.474992
_cell_angle_beta                  93.711526
_cell_angle_gamma                 89.69486
_cell_volume                      1782.60585576

loop_
_atom_site_label
_atom_site_type_symbol
_atom_type_description
_atom_site_fract_x
_atom_site_fract_y
_atom_site_fract_z
_atom_type_partial_charge
C1    C     C_R   0.499991 0.263211 0.493998 0.805644
C2    C     C_R   0.068218 0.572006 0.443210 0.089869
C3    C     C_R   0.516744 0.507983 0.650762 0.807118
C4    C     C_R   0.483256 0.492017 0.349238 0.807117
C5    C     C_R   0.521928 0.518324 0.737944 -0.169506
C6    C     C_R   0.478072 0.481676 0.262056 -0.169506
C7    C     C_R   0.395484 0.533320 0.775460 -0.132781
C8    C     C_R   0.604516 0.466680 0.224540 -0.132781
C9    C     C_R   0.391749 0.500506 0.857264 -0.066698
C10   C     C_R   0.608251 0.499495 0.142736 -0.066698
C11   C     C_R   0.516497 0.466626 0.902648 0.354553
C12   C     C_R   0.500009 0.736789 0.506001 0.805644
C13   C     C_R   0.483504 0.533375 0.097352 0.354553
C14   C     C_R   0.643719 0.460853 0.866455 0.049850
C15   C     C_R   0.356282 0.539148 0.133545 0.049850
C16   C     C_R   0.648457 0.499327 0.785454 -0.071489
C17   C     C_R   0.351543 0.500673 0.214546 -0.071490
C18   C     C_R   0.373051 0.065631 0.482916 0.105876
C19   C     C_R   0.626949 0.934369 0.517084 0.105876
C20   C     C_2   0.727363 0.405074 0.270220 0.384974
C21   C     C_2   0.272637 0.594925 0.729780 0.384974
C22   C     C_2   0.742197 0.501119 0.103874 0.449630
C23   C     C_R   0.371301 0.938574 0.503865 0.137580
C24   C     C_2   0.257803 0.498882 0.896126 0.449629
C25   C     C_3   0.775598 0.416628 0.914480 -0.767277
C26   C     C_3   0.224402 0.583374 0.085520 -0.767272
C27   C     C_2   0.785599 0.534629 0.754826 0.487559
C28   C     C_2   0.214401 0.465372 0.245173 0.487559
C29   C     C_3   0.239922 0.129148 0.446606 -0.740679
C30   C     C_3   0.760078 0.870852 0.553394 -0.740679
C31   C     C_3   0.233581 0.880567 0.524988 -0.803320
C32   C     C_3   0.766419 0.119433 0.475012 -0.803321
C33   C     C_3   0.161392 0.336319 0.615955 -0.655882
C34   C     C_R   0.628699 0.061426 0.496135 0.137580
C35   C     C_3   0.838608 0.663681 0.384045 -0.655882
C36   C     C_2   0.861886 0.349765 0.619129 0.360279
C37   C     C_2   0.138114 0.650235 0.380871 0.360278
C38   C     C_R   0.498980 0.870954 0.512122 -0.133641
C39   C     C_R   0.501020 0.129046 0.487878 -0.133641
C40   C     C_R   0.080962 0.426086 0.555905 0.248560
C41   C     C_R   0.919038 0.573913 0.444095 0.248560
C42   C     C_R   0.931781 0.427994 0.556790 0.089869
Cu1   Cu    Cu3+1 0.640660 0.500020 0.500000 0.941517
Cu2   Cu    Cu3+1 0.359340 0.499980 0.500000 0.941517
H1    H     H_    0.710091 0.333464 0.316761 0.085449
H2    H     H_    0.245343 0.627595 0.026511 0.241532
H3    H     H_    0.881071 0.489205 0.779756 0.150355
H4    H     H_    0.118929 0.510796 0.220243 0.150354
H5    H     H_    0.171308 0.064748 0.416087 0.225439
H6    H     H_    0.181113 0.167813 0.492362 0.231008
H7    H     H_    0.264174 0.202288 0.400234 0.281344
H8    H     H_    0.828692 0.935252 0.583912 0.225438
H9    H     H_    0.735826 0.797712 0.599765 0.281344
H10   H     H_    0.818886 0.832187 0.507637 0.231008
H11   H     H_    0.249235 0.808509 0.574905 0.236317
H12   H     H_    0.289908 0.666535 0.683239 0.085450
H13   H     H_    0.161897 0.948369 0.546193 0.226105
H14   H     H_    0.180870 0.843033 0.473161 0.218808
H15   H     H_    0.750765 0.191492 0.425094 0.236317
H16   H     H_    0.819130 0.156967 0.526839 0.218808
H17   H     H_    0.838102 0.051631 0.453806 0.226105
H18   H     H_    0.157658 0.366801 0.675610 0.278631
H19   H     H_    0.116010 0.243184 0.615012 0.182435
H20   H     H_    0.271139 0.322839 0.608320 0.250733
H21   H     H_    0.883990 0.756815 0.384988 0.182436
H22   H     H_    0.842342 0.633199 0.324390 0.278631
H23   H     H_    0.816995 0.426064 0.116601 0.098874
H24   H     H_    0.728861 0.677161 0.391680 0.250733
H25   H     H_    0.761405 0.311094 0.608468 0.135091
H26   H     H_    0.238596 0.688905 0.391532 0.135092
H27   H     H_    0.183005 0.573936 0.883398 0.098875
H28   H     H_    0.847511 0.494620 0.921415 0.253599
H29   H     H_    0.754658 0.372407 0.973489 0.241533
H30   H     H_    0.828180 0.345316 0.884425 0.232522
H31   H     H_    0.152489 0.505381 0.078585 0.253598
H32   H     H_    0.171821 0.654686 0.115575 0.232521
N1    N     N_2   0.517942 0.451937 0.986091 -0.205490
N2    N     N_2   0.482059 0.548064 0.013909 -0.205491
N3    N     N_R   0.852070 0.500030 0.499980 -0.228895
N4    N     N_R   0.147930 0.499970 0.500020 -0.228896
O1    O     O_R   0.618740 0.319660 0.500000 -0.619193
O2    O     O_2   0.152910 0.565485 0.741758 -0.562243
O3    O     O_2   0.770380 0.587819 0.057297 -0.527754
O4    O     O_2   0.229621 0.412182 0.942704 -0.527754
O5    O     O_2   0.795030 0.621862 0.705391 -0.539819
O6    O     O_2   0.204969 0.378139 0.294608 -0.539818
O7    O     O_2   0.915027 0.327793 0.685731 -0.590270
O8    O     O_2   0.084972 0.672208 0.314269 -0.590270
O9    O     O_R   0.381260 0.680340 0.500000 -0.619194
O10   O     O_R   0.381170 0.319630 0.500010 -0.579961
O11   O     O_R   0.618830 0.680370 0.499990 -0.579960
O12   O     O_R   0.631780 0.498870 0.613920 -0.554578
O13   O     O_R   0.368220 0.501130 0.386080 -0.554579
O14   O     O_R   0.394210 0.498840 0.613930 -0.601775
O15   O     O_R   0.605790 0.501160 0.386070 -0.601774
O16   O     O_2   0.847090 0.434514 0.258242 -0.562242

loop_
_geom_bond_atom_site_label_1
_geom_bond_atom_site_label_2
_ccdc_geom_bond_type
C1    O10   A    
C37   O8    D    
C36   C42   S    
Cu1   Cu2   S    
C29   H5    S    
N1    N2    D    
C10   C22   S    
C30   H10   S    
C8    C20   S    
C31   H14   S    
C32   H17   S    
C11   C14   A    
C35   H21   S    
C2    C41   A    
Cu1   N3    S    
C7    C9    A    
C25   H30   S    
C27   O5    D    
C5    C16   A    
Cu2   O13   S    
C12   O11   A    
C33   H18   S    
C26   H32   S    
C40   N4    A    
C11   N1    S    
C20   H1    S    
C16   C27   S    
C40   C42   A    
C20   O16   D    
C42   N3    A    
C37   H26   S    
C29   H6    S    
C36   O7    D    
C30   H9    S    
C33   C40   S    
C34   C39   A    
C12   O9    A    
Cu2   N4    S    
Cu2   O14   S    
C4    C6    S    
C5    C7    A    
C26   H2    S    
C15   C26   S    
C6    C8    A    
C35   H22   S    
C7    C21   S    
C19   C34   A    
Cu1   O11   S    
C18   C23   A    
C3    O12   A    
C32   C34   S    
C18   C39   A    
C19   C38   A    
C4    O15   A    
Cu1   O15   S    
C33   H19   S    
C26   H31   S    
C18   C29   S    
C9    C11   A    
C13   C15   A    
C28   O6    D    
Cu1   O1    S    
C14   C16   A    
C32   H16   S    
Cu2   O10   S    
C36   H25   S    
C29   H7    S    
C27   H3    S    
C15   C17   A    
C6    C17   A    
C30   H8    S    
C13   N2    S    
C28   H4    S    
C17   C28   S    
C3    C5    S    
C10   C13   A    
C41   N3    A    
C21   H12   S    
C9    C24   S    
C23   C38   A    
Cu1   O12   S    
C22   O3    D    
C31   H13   S    
C24   O4    D    
C2    C37   S    
C25   H28   S    
C35   H24   S    
C33   H20   S    
C3    O14   A    
C25   H29   S    
C14   C25   S    
C12   C38   S    
C35   C41   S    
C22   H23   S    
C2    N4    A    
C1    C39   S    
C4    O13   A    
C21   O2    D    
C8    C10   A    
C32   H15   S    
C31   H11   S    
C19   C30   S    
C1    O1    A    
Cu2   O9    S    
C24   H27   S    
C23   C31   S    
