data_mof_unit_50781.cif
_audit_creation_date              2012-12-11T15:59:33-0500
_audit_creation_method            fapswitch 2.2
_symmetry_space_group_name_H-M    P1
_symmetry_Int_Tables_number       1
_space_group_crystal_system       triclinic
_cell_length_a                    10.684043
_cell_length_b                    10.796782
_cell_length_c                    17.080496
_cell_angle_alpha                 99.706082
_cell_angle_beta                  99.9945
_cell_angle_gamma                 60.587649
_cell_volume                      1682.29081032

loop_
_atom_site_label
_atom_site_type_symbol
_atom_type_description
_atom_site_fract_x
_atom_site_fract_y
_atom_site_fract_z
_atom_type_partial_charge
C1    C     C_R   0.378246 0.717757 0.387472 0.606823
C2    C     C_R   0.875343 0.201697 0.206586 -0.073623
C3    C     C_R   0.891644 0.201166 0.290558 0.038790
C4    C     C_R   0.872855 0.435892 0.307412 -0.156957
C5    C     C_R   0.871640 0.434867 0.226554 0.221305
C6    C     C_R   0.871878 0.082028 0.159584 -0.081628
C7    C     C_R   0.915427 0.956801 0.193436 -0.153412
C8    C     C_R   0.951034 0.951441 0.275492 -0.093105
C9    C     C_R   0.936705 0.073744 0.325180 0.301059
C10   C     C_R   0.864386 0.328778 0.337891 -0.003948
C11   C     C_R   0.363615 0.794933 0.149418 0.051939
C12   C     C_R   0.367819 0.345393 0.358020 0.567247
C13   C     C_R   0.463056 0.815584 0.208572 -0.012796
C14   C     C_R   0.446739 0.819212 0.289087 -0.120460
C15   C     C_R   0.293364 0.704669 0.245031 0.189491
C16   C     C_R   0.293127 0.723392 0.165468 0.200763
C17   C     C_R   0.577447 0.832867 0.190236 0.272463
C18   C     C_R   0.655428 0.878088 0.251843 -0.086672
C19   C     C_R   0.621731 0.906381 0.329895 0.200317
C20   C     C_R   0.513859 0.883004 0.347973 -0.064022
C21   C     C_R   0.366209 0.756852 0.307227 0.010447
C22   C     C_R   0.294534 0.278780 0.798262 0.005131
C23   C     C_R   0.783522 0.373866 0.407095 0.590750
C24   C     C_R   0.422050 0.178496 0.762228 -0.012836
C25   C     C_R   0.476625 0.226413 0.712634 -0.008646
C26   C     C_R   0.245568 0.445032 0.704034 -0.098090
C27   C     C_R   0.203377 0.410942 0.765992 0.215814
C28   C     C_R   0.500057 0.032899 0.776780 -0.132080
C29   C     C_R   0.639933 0.945695 0.755873 -0.026953
C30   C     C_R   0.705573 0.001576 0.719790 0.271923
C31   C     C_R   0.623557 0.141799 0.698106 -0.078715
C32   C     C_R   0.380383 0.353669 0.676227 -0.053062
C33   C     C_1   0.818423 0.342389 0.709015 -0.025188
C34   C     C_R   0.381587 0.714851 0.631592 0.528743
C35   C     C_1   0.845350 0.313813 0.776649 -0.023589
C36   C     C_1   0.358853 0.764496 0.713819 -0.044915
C37   C     C_1   0.326101 0.811220 0.780725 -0.035720
C38   C     C_R   0.900278 0.306551 0.091431 0.570113
C39   C     C_R   0.318503 0.297819 0.120729 0.538131
C40   C     C_R   0.300408 0.882635 0.081847 0.610170
C41   C     C_R   0.886383 0.297346 0.859015 0.546833
C42   C     C_R   0.277661 0.253664 0.876871 0.553705
C43   C     C_R   0.281249 0.880703 0.857780 0.549566
C44   C     C_R   0.407877 0.374894 0.600030 0.514882
C45   C     C_R   0.773404 0.380915 0.629749 0.543913
C46   C     C_1   0.340444 0.332883 0.274805 0.010795
C47   C     C_1   0.329927 0.322227 0.204048 -0.016341
C48   C     C_R   0.867274 0.319873 0.173810 0.030151
Cr1   Cr    Cr6+3 0.608100 0.610860 0.522250 1.069611
Cr2   Cr    Cr6+3 0.288890 0.599990 0.488420 1.069130
Cr3   Cr    Cr6+3 0.603040 0.289190 0.489390 1.106657
Cr4   Cr    Cr6+3 0.053960 0.052250 0.967380 1.071448
Cr5   Cr    Cr6+3 0.059890 0.373160 0.992710 1.119086
Cr6   Cr    Cr6+3 0.373370 0.061690 0.991710 1.046059
H1    H     H_    0.866312 0.529382 0.345697 0.157886
H2    H     H_    0.744281 0.887740 0.239149 0.111924
H3    H     H_    0.484892 0.915732 0.408301 0.191724
H4    H     H_    0.171471 0.542958 0.676926 0.192197
H5    H     H_    0.453890 0.986139 0.805034 0.152011
H6    H     H_    0.698604 0.835713 0.769904 0.181116
H7    H     H_    0.674792 0.183124 0.669318 0.133939
H8    H     H_    0.833622 0.082803 0.096870 0.162063
H9    H     H_    0.919288 0.863836 0.155882 0.135205
H10   H     H_    0.983389 0.853645 0.300967 0.164305
O1    O     O_R   0.749810 0.499790 0.438040 -0.529224
O2    O     O_R   0.298970 0.468800 0.557390 -0.506391
O3    O     O_R   0.489400 0.255930 0.561910 -0.476527
O4    O     O_R   0.723890 0.306050 0.584610 -0.525972
O5    O     O_3   0.500010 0.500010 0.500020 -0.332276
O6    O     O_R   0.171100 0.914680 0.053100 -0.461122
O7    O     O_R   0.941680 0.184840 0.050710 -0.536517
O8    O     O_R   0.922080 0.403420 0.072610 -0.421693
O9    O     O_R   0.196880 0.369150 0.083850 -0.496017
O10   O     O_R   0.411730 0.181020 0.091530 -0.505293
O11   O     O_R   0.365010 0.944360 0.063320 -0.464077
O12   O     O_R   0.477660 0.726260 0.439290 -0.514280
O13   O     O_R   0.159380 0.906670 0.876210 -0.459696
O14   O     O_R   0.930820 0.177420 0.886730 -0.498602
O15   O     O_R   0.910360 0.395420 0.895720 -0.466859
O16   O     O_R   0.186010 0.361730 0.919870 -0.424179
O17   O     O_R   0.400000 0.173010 0.914630 -0.520177
O18   O     O_R   0.354140 0.936940 0.899340 -0.535685
O19   O     O_3   0.162410 0.162370 0.983930 -0.307765
O20   O     O_R   0.260150 0.743000 0.412270 -0.466290
O21   O     O_R   0.297740 0.466550 0.394720 -0.470768
O22   O     O_R   0.488080 0.253500 0.386430 -0.461936
O23   O     O_R   0.722670 0.303800 0.421940 -0.429922
O24   O     O_R   0.751130 0.502220 0.613520 -0.474319
O25   O     O_R   0.478890 0.728510 0.601960 -0.476647
O26   O     O_R   0.261470 0.745430 0.587750 -0.489456
Cl1   Cl    Cl    0.725649 0.955118 0.407056 -0.603816
Cl2   Cl    Cl    0.031945 0.535511 0.796672 -0.543183
O27   O     O_3   0.847511 0.916081 0.704357 -0.647683
H11   H     H_    0.877919 0.971541 0.678768 0.330736
O28   O     O_3   0.873297 0.547166 0.198602 -0.656381
H12   H     H_    0.896466 0.606221 0.243671 0.313306
O29   O     O_3   0.975541 0.068694 0.406598 -0.660638
H13   H     H_    0.003285 0.972523 0.420770 0.363745
O30   O     O_3   0.219967 0.640331 0.264392 -0.717044
H14   H     H_    0.143655 0.645218 0.221002 0.327736
O31   O     O_3   0.622381 0.788772 0.114535 -0.638400
H15   H     H_    0.703823 0.807260 0.112250 0.322032
O32   O     O_3   0.222758 0.676167 0.102174 -0.677651
H16   H     H_    0.238709 0.582067 0.112554 0.336064

loop_
_geom_bond_atom_site_label_1
_geom_bond_atom_site_label_2
_ccdc_geom_bond_type
C25   C31   A    
C1    C21   S    
O27   H11   S    
C33   C45   S    
C31   H7    S    
C44   O2    A    
C19   C20   A    
O29   H13   S    
Cr2   O20   S    
C7    C8    A    
C1    O20   A    
C26   C32   A    
C26   C27   A    
O31   H15   S    
Cr1   O1    S    
C12   O21   A    
C14   C21   A    
C28   C29   A    
Cr5   O15   S    
Cr2   O5    S    
C30   O27   S    
C30   C31   A    
C15   C16   A    
C18   C19   A    
C39   O10   A    
C17   O31   S    
Cr2   O21   S    
C46   C47   T    
Cr2   O26   S    
O28   H12   S    
C8    C9    A    
Cr6   O10   S    
C38   C48   S    
C18   H2    S    
C25   C32   A    
Cr1   O5    S    
C13   C14   A    
Cr1   O24   S    
C2    C6    A    
C42   O17   A    
Cr4   O14   S    
Cr3   O22   S    
Cr6   O19   S    
C5    O28   S    
C5    C48   A    
C38   O8    A    
C14   C20   A    
Cr5   O16   S    
C19   Cl1   S    
C24   C25   A    
C12   C46   S    
Cr3   O23   S    
C41   O14   A    
C2    C48   A    
C37   C43   S    
Cr4   O19   S    
C34   O26   A    
C29   C30   A    
C3    C9    A    
Cr2   O2    S    
C11   C16   A    
C16   O32   S    
O30   H14   S    
C29   H6    S    
C45   O24   A    
C45   O4    A    
C17   C18   A    
C32   C44   S    
Cr1   O12   S    
C27   Cl2   S    
Cr3   O3    S    
C42   O16   A    
C26   H4    S    
C7    H9    S    
C40   O6    A    
C8    H10   S    
C22   C27   A    
C4    H1    S    
C22   C24   A    
C4    C10   A    
Cr4   O13   S    
Cr6   O18   S    
C39   C47   S    
C28   H5    S    
C38   O7    A    
C36   C37   T    
C9    O29   S    
C1    O12   A    
Cr5   O9    S    
C24   C28   A    
Cr1   O25   S    
C4    C5    A    
C41   O15   A    
C6    C7    A    
C12   O22   A    
C10   C23   S    
C43   O13   A    
C40   O11   A    
C13   C17   A    
Cr5   O19   S    
C6    H8    S    
C2    C3    A    
C34   O25   A    
Cr4   O7    S    
C15   O30   S    
C11   C13   A    
C23   O1    A    
C22   C42   S    
C33   C35   T    
C34   C36   S    
Cr3   O4    S    
C39   O9    A    
C11   C40   S    
C35   C41   S    
Cr4   O6    S    
Cr6   O11   S    
C15   C21   A    
O32   H16   S    
C3    C10   A    
C43   O18   A    
C44   O3    A    
C23   O23   A    
Cr3   O5    S    
C20   H3    S    
Cr5   O8    S    
Cr6   O17   S    
