data_mof_unit_19773.cif
_audit_creation_date              2012-12-10T21:10:02-0500
_audit_creation_method            fapswitch 2.2
_symmetry_space_group_name_H-M    P1
_symmetry_Int_Tables_number       1
_space_group_crystal_system       triclinic
_cell_length_a                    12.921004
_cell_length_b                    17.379744
_cell_length_c                    16.725924
_cell_angle_alpha                 89.850171
_cell_angle_beta                  97.130652
_cell_angle_gamma                 90.078952
_cell_volume                      3726.97081857

loop_
_atom_site_label
_atom_site_type_symbol
_atom_type_description
_atom_site_fract_x
_atom_site_fract_y
_atom_site_fract_z
_atom_type_partial_charge
C1    C     C_R   0.497407 0.352631 0.499918 0.909525
C2    C     C_R   0.420699 0.115550 0.492525 0.024773
C3    C     C_1   0.411695 0.965835 0.490645 -0.011662
C4    C     C_1   0.411108 0.034231 0.491138 -0.013855
C5    C     C_R   0.428333 0.455022 0.825499 -0.232845
C6    C     C_R   0.572208 0.544208 0.174445 -0.233038
C7    C     C_R   0.429815 0.455797 0.741383 0.036515
C8    C     C_R   0.570848 0.543521 0.258574 0.036318
C9    C     C_R   0.570077 0.544243 0.754707 0.022781
C10   C     C_R   0.429152 0.456334 0.245319 0.021715
C11   C     C_R   0.571245 0.545012 0.839087 -0.240882
C12   C     C_R   0.497760 0.647396 0.499616 0.906695
C13   C     C_R   0.427831 0.455506 0.160925 -0.241172
C14   C     C_R   0.499748 0.499995 0.875534 0.147678
C15   C     C_R   0.499987 0.499850 0.124437 0.147096
C16   C     C_R   0.297770 0.499592 0.484365 0.930016
C17   C     C_R   0.702243 0.500262 0.515630 0.934537
C18   C     C_1   0.499771 0.499916 0.963389 -0.016642
C19   C     C_1   0.499867 0.499874 0.036573 -0.016723
C20   C     C_R   0.814143 0.499712 0.525113 -0.171319
C21   C     C_R   0.185895 0.499498 0.474833 -0.169034
C22   C     C_R   0.021263 0.512469 0.391125 0.481320
C23   C     C_R   0.478881 0.730136 0.497299 -0.120957
C24   C     C_R   0.978746 0.485782 0.608691 0.481695
C25   C     C_R   0.129260 0.509672 0.399093 -0.269431
C26   C     C_R   0.870765 0.489109 0.600799 -0.267836
C27   C     C_R   0.136421 0.490583 0.543410 -0.173010
C28   C     C_R   0.863626 0.508205 0.456480 -0.171395
C29   C     C_R   0.029177 0.493508 0.538481 -0.023107
C30   C     C_R   0.970840 0.504883 0.461356 -0.022923
C31   C     C_R   0.435649 0.846117 0.565558 0.226328
C32   C     C_R   0.441362 0.153213 0.421695 0.229194
C33   C     C_R   0.464666 0.769042 0.568196 -0.263354
C34   C     C_R   0.477550 0.270008 0.498413 -0.120937
C35   C     C_R   0.470398 0.230303 0.425351 -0.267395
C36   C     C_3   0.315929 0.896658 0.651933 -0.769988
C37   C     C_3   0.332096 0.101462 0.307021 -0.780634
C38   C     C_3   0.424758 0.847223 0.268234 -0.763471
C39   C     C_3   0.390717 0.157311 0.710292 -0.767523
C40   C     C_R   0.464710 0.768716 0.423039 -0.211486
C41   C     C_R   0.455322 0.232412 0.568576 -0.209758
C42   C     C_R   0.435472 0.846413 0.418575 0.214198
C43   C     C_R   0.425449 0.154783 0.566645 0.215379
C44   C     C_R   0.422478 0.884612 0.490963 0.025944
H1    H     H_    0.817208 0.517141 0.399031 0.233048
H2    H     H_    0.485998 0.259310 0.370664 0.168326
H3    H     H_    0.475033 0.737313 0.368929 0.175174
H4    H     H_    0.459938 0.264522 0.624131 0.173190
H5    H     H_    0.371859 0.419509 0.851183 0.147204
H6    H     H_    0.629225 0.579172 0.148728 0.148177
H7    H     H_    0.374596 0.420856 0.703352 0.134864
H8    H     H_    0.626713 0.577970 0.296577 0.139011
H9    H     H_    0.832921 0.603631 0.240587 0.375812
H10   H     H_    0.167936 0.393963 0.758057 0.374588
H11   H     H_    0.468090 0.863453 0.688621 0.231516
H12   H     H_    0.182883 0.481871 0.600880 0.232996
H13   H     H_    0.277868 0.840168 0.659567 0.250994
H14   H     H_    0.271993 0.928203 0.600750 0.243472
H15   H     H_    0.313357 0.931144 0.707445 0.242555
H16   H     H_    0.486181 0.134443 0.308650 0.233404
H17   H     H_    0.295519 0.157807 0.289232 0.245581
H18   H     H_    0.283330 0.070458 0.346892 0.245554
H19   H     H_    0.335209 0.066327 0.252018 0.243217
H20   H     H_    0.367518 0.931469 0.339820 0.240910
H21   H     H_    0.412168 0.888664 0.217298 0.243171
H22   H     H_    0.362218 0.802976 0.260060 0.244204
H23   H     H_    0.625395 0.579132 0.727140 0.132885
H24   H     H_    0.502448 0.820403 0.266749 0.246983
H25   H     H_    0.353444 0.068441 0.628246 0.240995
H26   H     H_    0.370634 0.117009 0.757681 0.243504
H27   H     H_    0.326694 0.199953 0.697913 0.245204
H28   H     H_    0.464802 0.186369 0.733848 0.247674
H29   H     H_    0.373345 0.421940 0.272921 0.132493
H30   H     H_    0.627599 0.580517 0.875529 0.154777
H31   H     H_    0.370861 0.420470 0.124508 0.154569
H32   H     H_    0.830464 0.482672 0.653442 0.207645
H33   H     H_    0.169561 0.516223 0.346463 0.206911
H34   H     H_    0.474228 0.739345 0.625689 0.169056
N1    N     N_R   0.500030 0.500030 0.707230 -0.096619
N2    N     N_R   0.499970 0.499970 0.292770 -0.097313
N3    N     N_2   0.423308 0.885479 0.638415 -0.301917
N4    N     N_2   0.436691 0.112948 0.347207 -0.299661
N5    N     N_2   0.421660 0.887690 0.343464 -0.292721
N6    N     N_2   0.403484 0.114656 0.637891 -0.292290
O1    O     O_R   0.500000 0.389130 0.566570 -0.626798
O2    O     O_2   0.882858 0.457702 0.272369 -0.312940
O3    O     O_3   0.880550 0.606091 0.291715 -0.578759
O4    O     O_2   0.116726 0.539814 0.728123 -0.315404
O5    O     O_2   0.972246 0.463360 0.768330 -0.277071
O6    O     O_3   0.119940 0.391652 0.707106 -0.581492
O7    O     O_R   0.500000 0.610870 0.433430 -0.627314
O8    O     O_R   0.499990 0.389100 0.433480 -0.618629
O9    O     O_R   0.500010 0.610900 0.566520 -0.619836
O10   O     O_R   0.346360 0.500000 0.555540 -0.625999
O11   O     O_R   0.653640 0.500000 0.444460 -0.624096
O12   O     O_R   0.346350 0.499970 0.422460 -0.627531
O13   O     O_R   0.653650 0.500030 0.577540 -0.624873
O14   O     O_2   0.027742 0.533085 0.231229 -0.279619
S1    S     S_3+6 0.953105 0.525694 0.293005 0.003563
S2    S     S_3+6 0.046899 0.471751 0.706687 0.003800
Zn1   Zn    Zn3+2 0.500000 0.500020 0.588860 0.961423
Zn2   Zn    Zn3+2 0.500000 0.499980 0.411140 0.961104

loop_
_geom_bond_atom_site_label_1
_geom_bond_atom_site_label_2
_ccdc_geom_bond_type
C40   H3    S    
C16   C21   S    
O12   Zn2   S    
C38   N5    S    
C27   C29   A    
C14   C18   S    
C12   O7    A    
C36   H15   S    
C37   H18   S    
C15   C19   S    
C12   C23   S    
C25   H33   S    
C24   C26   A    
C39   N6    S    
C18   C19   T    
C36   H14   S    
C10   H29   S    
C33   H34   S    
C23   C40   A    
C17   C20   S    
C2    C32   A    
C34   C35   A    
C9    N1    A    
C24   C29   A    
C21   C25   A    
C6    C15   A    
H16   N4    S    
C39   H26   S    
C38   H22   S    
O10   Zn1   S    
C23   C33   A    
C22   C25   A    
C26   H32   S    
C39   H28   S    
C31   C33   A    
C17   O11   A    
H11   N3    S    
C36   N3    S    
O11   Zn2   S    
O8    Zn2   S    
C40   C42   A    
C21   C27   A    
C43   N6    S    
C41   C43   A    
C5    H5    S    
C34   C41   A    
C42   C44   A    
O6    S2    S    
C37   H19   S    
C1    C34   S    
O3    S1    S    
C1    O1    A    
C3    C44   S    
C28   H1    S    
C16   O12   A    
C31   C44   A    
O5    S2    D    
C32   C35   A    
C13   H31   S    
C36   H13   S    
O9    Zn1   S    
C5    C7    A    
C10   N2    A    
C27   H12   S    
C6    C8    A    
C20   C28   A    
C11   H30   S    
N2    Zn2   S    
C2    C4    S    
C9    H23   S    
H20   N5    S    
C29   C30   A    
C38   H21   S    
C2    C43   A    
H9    O3    S    
C6    H6    S    
O2    S1    D    
C9    C11   A    
C5    C14   A    
O4    S2    D    
C38   H24   S    
C1    O8    A    
C13   C15   A    
C12   O9    A    
O7    Zn2   S    
C3    C4    T    
O1    Zn1   S    
C7    N1    A    
C8    H8    S    
C22   S1    S    
C22   C30   A    
C24   S2    S    
C42   N5    S    
C10   C13   A    
C37   H17   S    
H10   O6    S    
C32   N4    S    
C16   O10   A    
C31   N3    S    
C28   C30   A    
C7    H7    S    
H25   N6    S    
C20   C26   A    
C11   C14   A    
C41   H4    S    
C37   N4    S    
O14   S1    D    
C8    N2    A    
C39   H27   S    
N1    Zn1   S    
C35   H2    S    
C17   O13   A    
O13   Zn1   S    
