data_mof_unit_52125.cif
_audit_creation_date              2012-12-11T14:33:12-0500
_audit_creation_method            fapswitch 2.2
_symmetry_space_group_name_H-M    P1
_symmetry_Int_Tables_number       1
_space_group_crystal_system       triclinic
_cell_length_a                    7.001842
_cell_length_b                    13.934241
_cell_length_c                    18.120354
_cell_angle_alpha                 112.918186
_cell_angle_beta                  94.428002
_cell_angle_gamma                 90.459658
_cell_volume                      1622.10505955

loop_
_atom_site_label
_atom_site_type_symbol
_atom_type_description
_atom_site_fract_x
_atom_site_fract_y
_atom_site_fract_z
_atom_type_partial_charge
O1    O     O_R   0.484560 0.544530 0.414330 -0.540405
O2    O     O_R   0.197040 0.638810 0.585080 -0.550885
O3    O     O_R   0.026800 0.455470 0.585670 -0.528200
C1    C     C_R   0.372711 0.677958 0.609187 0.692888
O4    O     O_R   0.155000 0.556150 0.414940 -0.544466
O5    O     O_R   0.984450 0.372220 0.414320 -0.514784
C2    C     C_R   0.318999 0.564827 0.386917 0.753756
O6    O     O_R   0.526900 0.627780 0.585680 -0.529352
O7    O     O_3   0.339170 0.439750 0.499990 -0.348080
V1    V     V_3+5 0.064350 0.511180 0.500000 1.452011
O8    O     O_R   0.654880 0.361190 0.414920 -0.536259
C3    C     C_R   0.820154 0.322738 0.389078 0.746064
O9    O     O_R   0.696930 0.443850 0.585060 -0.541094
C4    C     C_R   0.871162 0.433897 0.611128 0.730540
V2    V     V_3+5 0.564340 0.488820 0.500000 1.470850
O10   O     O_3   0.839390 0.560250 0.500010 -0.383987
C5    C     C_R   0.057362 0.913055 0.860032 -0.125701
C6    C     C_R   0.899564 0.410558 0.682587 -0.029182
C7    C     C_R   0.948190 0.869915 0.720154 0.206639
C8    C     C_R   0.022157 0.842671 0.781032 -0.279066
C9    C     C_R   0.052710 0.024892 0.878248 0.318429
C10   C     C_R   0.001081 0.055504 0.809880 -0.106086
C11   C     C_R   0.936994 0.974839 0.733466 0.094915
C12   C     C_R   0.002399 0.160652 0.811544 0.075622
C13   C     C_R   0.927529 0.181028 0.743134 0.085226
C14   C     C_R   0.852353 0.098055 0.674125 -0.192127
C15   C     C_R   0.860542 0.998004 0.669021 -0.162363
C16   C     C_R   0.089336 0.246026 0.875920 -0.077759
C17   C     C_R   0.082764 0.346876 0.881486 -0.204591
C18   C     C_R   0.009396 0.366716 0.816537 0.076266
C19   C     C_R   0.935180 0.284276 0.744953 0.104417
C20   C     C_R   0.024508 0.468066 0.821090 -0.172038
C21   C     C_R   0.972461 0.489676 0.754238 0.186407
C22   C     C_R   0.880260 0.308535 0.677426 -0.307437
H1    H     H_    0.802567 0.937972 0.612661 0.155799
H2    H     H_    0.831036 0.250653 0.619236 0.105400
H3    H     H_    0.151683 0.408764 0.934617 0.128058
H4    H     H_    0.044552 0.762338 0.766231 0.155332
H5    H     H_    0.785379 0.107046 0.621891 0.133954
H6    H     H_    0.180332 0.237684 0.919963 0.156004
H7    H     H_    0.084627 0.530184 0.875677 0.150741
C23   C     C_2   0.131283 0.031673 0.191436 -0.055051
C24   C     C_2   0.991397 0.055732 0.244580 0.393645
H8    H     H_    0.697280 0.183301 0.285856 0.134627
C25   C     C_2   0.827170 0.216246 0.324799 -0.267074
C26   C     C_2   0.990324 0.160411 0.312274 0.217237
C27   C     C_R   0.404581 0.779029 0.678140 -0.025169
C28   C     C_R   0.542838 0.464427 0.839585 -0.099153
C29   C     C_R   0.513734 0.868019 0.817188 -0.065597
C30   C     C_R   0.467811 0.776613 0.751376 -0.182511
C31   C     C_R   0.395421 0.875798 0.670595 -0.170550
C32   C     C_R   0.441539 0.972641 0.738420 0.041664
C33   C     C_R   0.500074 0.967342 0.813313 -0.038609
C34   C     C_R   0.432791 0.073176 0.733584 0.070605
C35   C     C_R   0.493163 0.168122 0.801645 -0.002843
C36   C     C_R   0.546773 0.158080 0.875389 -0.301152
C37   C     C_R   0.542395 0.059913 0.882730 0.382753
C38   C     C_R   0.363756 0.080596 0.661546 -0.157800
C39   C     C_R   0.364075 0.173849 0.652607 -0.221470
C40   C     C_R   0.428279 0.267482 0.715542 0.083148
C41   C     C_R   0.491636 0.268715 0.792646 0.098728
C42   C     C_R   0.426829 0.360117 0.701125 0.177515
C43   C     C_R   0.482588 0.455668 0.762200 -0.103155
C44   C     C_R   0.547926 0.370317 0.855200 -0.234194
H9    H     H_    0.592775 0.377771 0.915603 0.124333
H10   H     H_    0.476575 0.524980 0.748877 0.114527
H11   H     H_    0.310876 0.170271 0.593973 0.121028
H12   H     H_    0.558285 0.856367 0.870575 0.209560
H13   H     H_    0.481911 0.702901 0.757936 0.092584
H14   H     H_    0.356898 0.871599 0.610772 0.080262
H15   H     H_    0.585146 0.227072 0.928664 0.194549
H16   H     H_    0.305319 0.014957 0.609546 0.124475
H17   H     H_    0.334316 0.667113 0.196263 0.159802
H18   H     H_    0.614632 0.591090 0.306269 0.153834
C45   C     C_2   0.317051 0.601818 0.319798 -0.313590
C46   C     C_2   0.477148 0.610870 0.285000 -0.101804
H19   H     H_    0.768633 0.635985 0.204186 0.142069
C47   C     C_2   0.631699 0.655690 0.182386 -0.273885
C48   C     C_2   0.471720 0.647066 0.217396 -0.127445
H20   H     H_    0.180074 0.621348 0.297884 0.141188
O11   O     O_R   0.421600 0.630430 0.917010 -0.561387
O12   O     O_R   0.793840 0.702190 0.087630 -0.527507
O13   O     O_R   0.964010 0.886170 0.088190 -0.484678
C49   C     C_R   0.629700 0.692650 0.115277 0.830144
O14   O     O_R   0.751460 0.619510 0.917500 -0.556437
O15   O     O_R   0.921330 0.802900 0.916840 -0.549415
C50   C     C_R   0.576143 0.575075 0.902240 0.619509
O16   O     O_R   0.464290 0.713700 0.088350 -0.554723
O17   O     O_3   0.609200 0.818520 0.002630 -0.304135
V3    V     V_3+5 0.884140 0.747190 0.002530 1.557608
O18   O     O_R   0.251150 0.814630 0.917340 -0.553118
C51   C     C_R   0.080364 0.856509 0.916153 0.856851
O19   O     O_R   0.293530 0.897310 0.087470 -0.507435
C52   C     C_R   0.131440 0.929684 0.120048 0.866287
V4    V     V_3+5 0.384070 0.769710 0.002370 1.571646
O20   O     O_3   0.109180 0.698190 0.002460 -0.423209
N1    N     N_3   0.158208 0.196601 0.368681 -0.598652
H21   H     H_    0.263508 0.141144 0.353021 0.237046
H22   H     H_    0.119803 0.200583 0.424434 0.208818
S1    S     S_3+6 0.826744 0.960733 0.248558 -0.067452
O21   O     O_2   0.669625 0.936908 0.181974 -0.348592
O22   O     O_2   0.929889 0.863249 0.239873 -0.375505
O23   O     O_3   0.729519 0.005898 0.337254 -0.532969
H23   H     H_    0.629439 0.952500 0.332169 0.355449
N2    N     N_3   0.282214 0.108086 0.203359 -0.651700
H24   H     H_    0.412092 0.076074 0.211896 0.266863
H25   H     H_    0.285465 0.122789 0.151276 0.331738
S2    S     S_3+6 0.575817 0.051031 0.979524 0.030963
O24   O     O_2   0.397667 0.005562 0.995235 -0.349542
O25   O     O_2   0.727804 0.976549 0.977360 -0.316724
O26   O     O_3   0.630155 0.164800 0.058273 -0.446048
H26   H     H_    0.649896 0.145899 0.105595 0.381011
N3    N     N_3   0.369723 0.359001 0.623260 -0.606223
H27   H     H_    0.230218 0.327230 0.606227 0.219246
H28   H     H_    0.458577 0.309720 0.582210 0.223584
N4    N     N_3   0.998853 0.592547 0.758297 -0.700607
H29   H     H_    0.904697 0.638369 0.798183 0.239612
H30   H     H_    0.139896 0.618060 0.781849 0.219962
N5    N     N_3   0.882585 0.789551 0.643539 -0.653396
H31   H     H_    0.880325 0.716199 0.646613 0.268888
H32   H     H_    0.979651 0.788480 0.602259 0.221413
S3    S     S_3+6 0.059088 0.118861 0.983409 0.057041
O27   O     O_2   0.902933 0.192765 0.987352 -0.297952
O28   O     O_2   0.026004 0.064251 0.037912 -0.302044
O29   O     O_3   0.250914 0.197863 0.032039 -0.456640
H33   H     H_    0.341660 0.193701 0.993174 0.339870

loop_
_geom_bond_atom_site_label_1
_geom_bond_atom_site_label_2
_ccdc_geom_bond_type
C13   C19   A    
C35   C36   A    
O19   C52   A    
C29   H12   S    
C4    C6    S    
O2    C1    A    
V4    O20   S    
C46   C48   S    
C1    O6    A    
N1    H21   S    
C25   C26   D    
S2    O24   D    
N2    H25   S    
C14   C15   A    
C42   C43   A    
H18   C46   S    
C16   C17   A    
C30   H13   S    
O5    C3    A    
C18   C19   A    
O11   V4    S    
C14   H5    S    
C28   C44   A    
C16   H6    S    
V2    O10   S    
C5    C8    A    
C36   C37   A    
C40   C42   A    
C23   N2    S    
C9    S3    S    
C39   H11   S    
O8    V2    S    
C7    C8    A    
S2    O25   D    
C20   H7    S    
O1    V2    S    
C31   H14   S    
C11   C15   A    
C45   H20   S    
N5    H32   S    
C43   H10   S    
C7    N5    S    
C39   C40   A    
O19   V4    S    
C23   C52   S    
O9    C4    A    
C5    C51   S    
N1    H22   S    
C32   C34   A    
C27   C30   A    
O14   C50   A    
C19   C22   A    
C31   C32   A    
C49   O16   A    
C12   C13   A    
C42   N3    S    
O15   V3    S    
O17   V3    S    
O18   C51   A    
O4    C2    A    
C33   C37   A    
C47   C48   D    
C28   C43   A    
C27   C31   A    
C15   H1    S    
C13   C14   A    
H19   C47   S    
O13   C52   A    
S1    O23   S    
C5    C9    A    
C40   C41   A    
O17   V4    S    
C41   C44   A    
C7    C11   A    
C45   C46   D    
C17   C18   A    
C8    H4    S    
N5    H31   S    
C36   H15   S    
S1    O22   D    
H17   C48   S    
C28   C50   S    
C24   S1    S    
C6    C22   A    
O11   C50   A    
O3    C4    A    
C26   N1    S    
O6    V2    S    
O12   C49   A    
O9    V2    S    
O29   H33   S    
C34   C38   A    
C10   C12   A    
C6    C21   A    
S3    O28   D    
O2    V1    S    
C32   C33   A    
N3    H27   S    
O7    V1    S    
O13   V3    S    
C34   C35   A    
C21   N4    S    
O26   H26   S    
O1    C2    A    
H8    C25   S    
C12   C16   A    
C3    C25   S    
O5    V1    S    
C2    C45   S    
O14   V3    S    
V3    O20   S    
N2    H24   S    
O12   V3    S    
S2    O26   S    
C20   C21   A    
S3    O29   S    
C38   C39   A    
O4    V1    S    
O3    V1    S    
V1    O10   S    
C44   H9    S    
C18   C20   A    
C38   H16   S    
C29   C33   A    
C35   C41   A    
S1    O21   D    
N4    H30   S    
N4    H29   S    
C22   H2    S    
O7    V2    S    
C24   C26   S    
O16   V4    S    
O18   V4    S    
C47   C49   S    
C37   S2    S    
C29   C30   A    
C23   C24   D    
C17   H3    S    
O23   H23   S    
C10   C11   A    
O15   C51   A    
S3    O27   D    
C9    C10   A    
O8    C3    A    
N3    H28   S    
C1    C27   S    
