data_mof_unit_13314.cif
_audit_creation_date              2012-12-10T17:35:02-0500
_audit_creation_method            fapswitch 2.2
_symmetry_space_group_name_H-M    P1
_symmetry_Int_Tables_number       1
_space_group_crystal_system       triclinic
_cell_length_a                    12.418801
_cell_length_b                    13.184247
_cell_length_c                    13.843214
_cell_angle_alpha                 106.844097
_cell_angle_beta                  74.140779
_cell_angle_gamma                 117.639729
_cell_volume                      1895.8365532

loop_
_atom_site_label
_atom_site_type_symbol
_atom_type_description
_atom_site_fract_x
_atom_site_fract_y
_atom_site_fract_z
_atom_type_partial_charge
C1    C     C_R   0.143853 0.713936 0.508537 0.828594
C2    C     C_1   0.974507 0.506316 0.791667 -0.138057
C3    C     C_R   0.715346 0.979765 0.328325 -0.217233
C4    C     C_R   0.772601 0.161277 0.452913 -0.114261
C5    C     C_R   0.183088 0.917120 0.594195 -0.140052
C6    C     C_R   0.262634 0.033946 0.617507 -0.121361
C7    C     C_R   0.385066 0.073264 0.569875 -0.175178
C8    C     C_R   0.428608 0.996450 0.493773 0.103500
C9    C     C_R   0.342110 0.882410 0.459475 0.126630
C10   C     C_R   0.555226 0.027746 0.452113 0.094824
C11   C     C_R   0.590452 0.952152 0.367431 0.126177
C12   C     C_R   0.983940 0.503909 0.686206 0.852684
C13   C     C_R   0.500572 0.848410 0.323948 -0.190789
C14   C     C_R   0.377626 0.813397 0.369683 -0.140785
C15   C     C_R   0.648038 0.129840 0.494909 -0.203434
C16   C     C_R   0.807303 0.082566 0.371269 -0.005922
C17   C     C_R   0.222998 0.839575 0.517602 -0.063611
C18   C     C_R   0.596686 0.588463 0.699424 -0.230764
C19   C     C_R   0.254081 0.361782 0.352925 0.146625
C20   C     C_R   0.344009 0.319538 0.321402 -0.237222
C21   C     C_R   0.434969 0.358725 0.380244 -0.138772
C22   C     C_R   0.440105 0.443978 0.470138 -0.047320
C23   C     C_R   0.855921 0.285214 0.481924 0.799453
C24   C     C_R   0.339923 0.478065 0.504874 0.171164
C25   C     C_R   0.536699 0.493128 0.531022 -0.115372
C26   C     C_R   0.506620 0.534276 0.636247 0.109606
C27   C     C_R   0.389688 0.532859 0.674626 -0.296193
C28   C     C_R   0.332398 0.544188 0.606953 0.369392
C29   C     C_R   0.661553 0.508495 0.493038 0.156637
C30   C     C_R   0.717578 0.604125 0.658187 0.060598
C31   C     C_R   0.015857 0.495744 0.313748 0.795221
C32   C     C_1   0.025703 0.493814 0.208338 -0.137878
C33   C     C_2   0.041717 0.491089 0.014172 -0.152660
C34   C     C_2   0.959181 0.509847 0.985906 -0.141622
C35   C     C_1   0.966829 0.508184 0.880415 0.015220
C36   C     C_1   0.033765 0.492369 0.119626 0.018807
Cu1   Cu    Cu3+1 0.899780 0.525060 0.522890 0.977636
Cu2   Cu    Cu3+1 0.100220 0.474940 0.477110 1.010689
H1    H     H_    0.885485 0.526257 0.041688 0.173894
H2    H     H_    0.311206 0.730368 0.336113 0.139742
H3    H     H_    0.785357 0.643881 0.708475 0.140397
H4    H     H_    0.369112 0.566881 0.755493 0.180062
H5    H     H_    0.574481 0.621649 0.780074 0.148993
H6    H     H_    0.182845 0.329292 0.307083 0.140268
H7    H     H_    0.494459 0.314545 0.357713 0.176021
H8    H     H_    0.341454 0.254077 0.252372 0.148235
H9    H     H_    0.115404 0.474649 0.958400 0.156523
H10   H     H_    0.526001 0.791433 0.257290 0.148789
H11   H     H_    0.741420 0.920008 0.264863 0.166198
H12   H     H_    0.625809 0.188097 0.561429 0.149078
H13   H     H_    0.091116 0.886699 0.638278 0.155152
H14   H     H_    0.442671 0.164474 0.592671 0.133621
H15   H     H_    0.230654 0.093389 0.675952 0.148335
N1    N     N_R   0.748810 0.563010 0.557590 -0.223040
N2    N     N_R   0.250540 0.437620 0.443020 -0.204574
O1    O     O_R   0.025040 0.682470 0.528790 -0.596559
O2    O     O_R   0.194310 0.640150 0.490130 -0.492576
O3    O     O_R   0.903380 0.524130 0.659910 -0.599699
O4    O     O_R   0.072660 0.481800 0.621240 -0.558594
O5    O     O_R   0.805690 0.359850 0.509870 -0.556400
O6    O     O_R   0.974960 0.317530 0.471210 -0.559810
O7    O     O_R   0.927340 0.518200 0.378760 -0.546825
O8    O     O_R   0.096620 0.475870 0.340090 -0.613363
C37   C     C_2   0.699875 0.474097 0.383052 0.863374
O9    O     O_2   0.722433 0.538581 0.325163 -0.602737
O10   O     O_R   0.707519 0.366584 0.344858 -0.769535
H16   H     H_    0.732707 0.351811 0.267778 0.322377
S1    S     S_3+6 0.361744 0.693538 0.629013 0.022600
O11   O     O_2   0.245585 0.710770 0.673937 -0.285313
O12   O     O_2   0.450587 0.766482 0.703493 -0.291592
O13   O     O_3   0.427885 0.741209 0.518517 -0.520601
H17   H     H_    0.508626 0.736725 0.500966 0.347348
C38   C     C_2   0.936901 0.103527 0.327839 0.833868
O14   O     O_2   0.008915 0.125548 0.383911 -0.581924
O15   O     O_R   0.974807 0.091118 0.221916 -0.770683
H18   H     H_    0.064905 0.105714 0.201182 0.323976

loop_
_geom_bond_atom_site_label_1
_geom_bond_atom_site_label_2
_ccdc_geom_bond_type
C2    C35   T    
C38   O14   D    
C19   C20   A    
C18   C26   A    
C9    C14   A    
C2    C12   S    
Cu1   O7    S    
C3    H11   S    
C7    C8    A    
C24   N2    A    
C30   N1    A    
C26   C27   A    
C32   C36   T    
C28   S1    S    
C1    O1    A    
C7    H14   S    
C10   C15   A    
C5    C6    A    
C5    C17   A    
C29   N1    A    
C33   C36   S    
C34   C35   S    
C15   H12   S    
C12   O4    A    
Cu2   N2    S    
C8    C9    A    
C22   C25   A    
C30   H3    S    
C18   C30   A    
Cu1   O3    S    
Cu2   O6    S    
C12   O3    A    
O10   H16   S    
C29   C37   S    
Cu1   O1    S    
C13   C14   A    
C38   O15   S    
C31   O7    A    
C21   H7    S    
C25   C29   A    
C23   O5    A    
C16   C38   S    
C31   O8    A    
C4    C23   S    
S1    O11   D    
C25   C26   A    
C34   H1    S    
C37   O10   S    
C4    C16   A    
O15   H18   S    
Cu1   Cu2   S    
C1    O2    A    
Cu2   O2    S    
C31   C32   S    
C33   C34   D    
Cu1   N1    S    
C9    C17   A    
C33   H9    S    
C22   C24   A    
C6    H15   S    
C19   H6    S    
Cu2   O8    S    
C19   N2    A    
C8    C10   A    
C24   C28   A    
C13   H10   S    
C6    C7    A    
C1    C17   S    
C37   O9    D    
C4    C15   A    
O13   H17   S    
C18   H5    S    
C11   C13   A    
C27   H4    S    
S1    O13   S    
Cu1   O5    S    
C3    C11   A    
C10   C11   A    
C14   H2    S    
Cu2   O4    S    
C23   O6    A    
C20   C21   A    
S1    O12   D    
C27   C28   A    
C5    H13   S    
C21   C22   A    
C20   H8    S    
C3    C16   A    
