data_mof_unit_54112.cif
_audit_creation_date              2012-12-11T17:20:06-0500
_audit_creation_method            fapswitch 2.2
_symmetry_space_group_name_H-M    P1
_symmetry_Int_Tables_number       1
_space_group_crystal_system       triclinic
_cell_length_a                    8.286612
_cell_length_b                    16.416216
_cell_length_c                    22.873243
_cell_angle_alpha                 95.978487
_cell_angle_beta                  89.38966
_cell_angle_gamma                 93.451118
_cell_volume                      3088.99163121

loop_
_atom_site_label
_atom_site_type_symbol
_atom_type_description
_atom_site_fract_x
_atom_site_fract_y
_atom_site_fract_z
_atom_type_partial_charge
Ba1   Ba    Ba6+2 0.848660 0.538140 0.472240 1.676921
Ba2   Ba    Ba6+2 0.341160 0.461930 0.527770 1.721694
C1    C     C_3   0.635837 0.839456 0.319126 -0.354955
C2    C     C_3   0.616627 0.754515 0.340095 0.342254
C3    C     C_3   0.507118 0.347245 0.349607 0.328348
C4    C     C_3   0.502929 0.328030 0.282883 0.233200
C5    C     C_3   0.010283 0.254348 0.682281 0.349822
C6    C     C_3   0.006648 0.213811 0.739331 0.212453
C7    C     C_3   0.505314 0.257791 0.703013 0.725376
C8    C     C_3   0.442967 0.206875 0.752572 0.280294
C9    C     C_R   0.336688 0.525859 0.332621 -0.306577
C10   C     C_R   0.083872 0.566883 0.940164 -0.012200
C11   C     C_R   0.037898 0.561854 0.880184 0.597368
C12   C     C_3   0.087262 0.712937 0.312520 0.319794
C13   C     C_R   0.998935 0.415638 0.877111 0.621645
C14   C     C_R   0.037804 0.418398 0.937769 -0.043711
C15   C     C_R   0.081592 0.494968 0.969239 -0.116480
C16   C     C_R   0.131388 0.642500 0.971931 -0.061189
C17   C     C_R   0.176138 0.646843 0.031051 -0.073054
C18   C     C_R   0.172954 0.575872 0.060854 -0.005022
C19   C     C_R   0.124391 0.499795 0.029915 -0.056174
C20   C     C_R   0.034906 0.346578 0.967676 0.414986
C21   C     C_R   0.075025 0.352727 0.027818 -0.131354
C22   C     C_R   0.120011 0.428562 0.059380 -0.066649
C23   C     C_3   0.058862 0.736867 0.251196 -0.302142
C24   C     C_R   0.161675 0.434299 0.119782 0.615319
C25   C     C_R   0.217578 0.579480 0.120821 0.575110
C26   C     C_2   0.808359 0.437400 0.768246 -0.061706
C27   C     C_3   0.777450 0.415380 0.703008 -0.081453
C28   C     C_1   0.004441 0.513971 0.685590 0.001841
C29   C     C_2   0.050151 0.519826 0.741747 -0.095827
C30   C     C_2   0.945665 0.481462 0.787123 0.205360
C31   C     C_R   0.402776 0.550813 0.232278 -0.088981
C32   C     C_R   0.444578 0.556078 0.291916 -0.025066
C33   C     C_R   0.190308 0.485746 0.314666 0.028491
C34   C     C_3   0.190670 0.711501 0.596889 0.314146
C35   C     C_R   0.146411 0.480475 0.254693 -0.101402
C36   C     C_R   0.251485 0.514307 0.212704 0.203790
C37   C     C_2   0.874309 0.470216 0.665217 -0.258745
C38   C     C_R   0.386721 0.731850 0.474436 -0.297125
C39   C     C_R   0.529206 0.758243 0.504081 0.032211
C40   C     C_R   0.585420 0.840853 0.506811 -0.129339
C41   C     C_R   0.496428 0.897915 0.480287 0.239743
C42   C     C_R   0.346830 0.870893 0.454074 -0.169024
C43   C     C_R   0.291494 0.788124 0.451926 -0.010492
C44   C     C_R   0.634942 0.144388 0.479167 -0.188939
C45   C     C_3   0.205736 0.804045 0.612303 -0.382696
C46   C     C_R   0.672268 0.228733 0.489523 0.018278
C47   C     C_R   0.731544 0.088357 0.503601 0.250152
C48   C     C_R   0.804596 0.258390 0.524256 0.146445
C49   C     C_R   0.913145 0.204225 0.542067 -0.063140
C50   C     C_R   0.875020 0.119086 0.533049 -0.227931
C51   C     C_3   0.009883 0.285677 0.400876 0.318751
C52   C     C_3   0.016339 0.193663 0.384840 -0.355873
C53   C     C_3   0.692903 0.643999 0.647407 0.329158
C54   C     C_3   0.692717 0.664509 0.714070 0.225310
H1    H     H_    0.676337 0.757051 0.383597 0.074233
H2    H     H_    0.292464 0.819966 0.648997 0.123325
H3    H     H_    0.249818 0.834831 0.573842 0.059278
H4    H     H_    0.085940 0.826850 0.625698 0.124323
H5    H     H_    0.884164 0.300063 0.411719 -0.024536
H6    H     H_    0.090076 0.303952 0.439130 0.036817
H7    H     H_    0.933685 0.173196 0.347573 0.148537
H8    H     H_    0.979129 0.160195 0.422766 0.044957
H9    H     H_    0.141578 0.178478 0.372053 0.120913
H10   H     H_    0.818513 0.635716 0.632514 -0.070671
H11   H     H_    0.618332 0.586276 0.635950 0.072136
H12   H     H_    0.765993 0.859112 0.316248 0.143939
H13   H     H_    0.769280 0.721711 0.726422 0.043328
H14   H     H_    0.745558 0.614224 0.734874 0.041325
H15   H     H_    0.485201 0.738260 0.344618 -0.052888
H16   H     H_    0.575711 0.884254 0.350545 0.084707
H17   H     H_    0.383410 0.360132 0.365330 -0.064228
H18   H     H_    0.589704 0.402455 0.360674 0.028134
H19   H     H_    0.421776 0.272488 0.271271 0.109629
H20   H     H_    0.453134 0.379459 0.262234 -0.028551
H21   H     H_    0.579627 0.838751 0.275200 0.126968
H22   H     H_    0.048431 0.680851 0.219655 0.123435
H23   H     H_    0.035427 0.321454 0.692635 0.028759
H24   H     H_    0.890197 0.242109 0.661031 -0.041865
H25   H     H_    0.106931 0.241628 0.768000 0.078958
H26   H     H_    0.021169 0.146790 0.729297 0.039805
H27   H     H_    0.638944 0.265449 0.706442 -0.012466
H28   H     H_    0.325834 0.174731 0.738741 0.006466
H29   H     H_    0.006392 0.658185 0.318746 0.102788
H30   H     H_    0.424547 0.249250 0.793142 0.022319
H31   H     H_    0.071372 0.297417 0.049957 0.122690
H32   H     H_    0.212486 0.706384 0.053514 0.121704
H33   H     H_    0.488560 0.574050 0.201124 0.111177
H34   H     H_    0.134883 0.698848 0.951044 0.123433
H35   H     H_    0.165118 0.551191 0.754931 0.143256
H36   H     H_    0.729124 0.408988 0.799391 0.106132
H37   H     H_    0.032041 0.449651 0.240743 0.122341
H38   H     H_    0.371136 0.529422 0.378349 0.081919
H39   H     H_    0.215223 0.697197 0.315844 -0.043640
H40   H     H_    0.840204 0.468059 0.619445 0.120292
H41   H     H_    0.530208 0.123115 0.452706 0.109283
H42   H     H_    0.273065 0.914378 0.436036 0.096182
H43   H     H_    0.695852 0.860343 0.530457 0.113602
H44   H     H_    0.955357 0.077099 0.549395 0.101330
H45   H     H_    0.343694 0.668098 0.472776 0.073268
H46   H     H_    0.944701 0.768581 0.249733 0.146485
H47   H     H_    0.160616 0.778365 0.238066 0.125796
H48   H     H_    0.311103 0.689667 0.584834 0.009425
H49   H     H_    0.106602 0.697257 0.559244 0.060355
N1    N     N_R   0.994738 0.486727 0.849145 -0.438086
N2    N     N_R   0.208070 0.509419 0.150384 -0.425254
N3    N     N_2   0.546882 0.982976 0.481829 -0.238213
N4    N     N_2   0.686916 0.002315 0.500576 -0.227022
O1    O     O_2   0.899090 0.455560 0.360740 -0.461614
O2    O     O_3   0.631501 0.708899 0.621292 -0.652316
O3    O     O_3   0.051612 0.778531 0.354097 -0.599144
O4    O     O_2   0.290610 0.544470 0.639300 -0.429416
O5    O     O_3   0.050220 0.543670 0.568220 -0.499474
O6    O     O_3   0.537630 0.397360 0.604330 -0.403885
O7    O     O_3   0.132400 0.675211 0.646139 -0.623956
O8    O     O_3   0.634180 0.402670 0.470930 -0.444956
O9    O     O_3   0.127750 0.355750 0.575620 -0.444018
O10   O     O_2   0.250097 0.211004 0.540167 -0.451522
O11   O     O_3   0.133945 0.222304 0.646099 -0.590580
O12   O     O_3   0.139470 0.456390 0.431790 -0.502110
O13   O     O_3   0.555510 0.597400 0.529070 -0.486722
O14   O     O_2   0.384010 0.302440 0.472310 -0.459176
O15   O     O_3   0.560361 0.279225 0.374615 -0.633621
O16   O     O_2   0.486470 0.491013 0.704478 -0.461315
O17   O     O_3   0.435276 0.334498 0.711764 -0.627491
O18   O     O_2   0.034667 0.624590 0.855902 -0.586253
O19   O     O_2   0.970853 0.349396 0.848801 -0.526020
O20   O     O_2   0.159321 0.371976 0.144789 -0.583008
O21   O     O_2   0.264845 0.645319 0.146629 -0.615286
O22   O     O_3   0.652060 0.602710 0.395680 -0.487154
O23   O     O_2   0.779490 0.547211 0.292346 -0.507844
O24   O     O_3   0.060194 0.325116 0.352143 -0.615113
O25   O     O_3   0.689914 0.698045 0.299281 -0.598870
O26   O     O_2   0.805680 0.697590 0.527730 -0.461499
O27   O     O_3   0.061950 0.644310 0.424380 -0.496441
O28   O     O_2   0.957702 0.791234 0.463544 -0.478194
P1    P     P_3+3 0.070660 0.431690 0.369620 0.994808
P2    P     P_3+3 0.630590 0.685720 0.544880 0.985829
P3    P     P_3+3 0.090197 0.751091 0.424238 0.949535
P4    P     P_3+3 0.119040 0.568370 0.630390 1.011726
P5    P     P_3+3 0.106129 0.248062 0.574844 1.038722
P6    P     P_3+3 0.642316 0.599356 0.319057 0.939238
P7    P     P_3+3 0.564165 0.301069 0.451120 0.998058
P8    P     P_3+3 0.559626 0.409474 0.681259 1.006814
O29   O     O_3   0.534411 0.672652 0.735242 -0.675343
H50   H     H_    0.504018 0.728270 0.727924 0.317122
O30   O     O_3   0.658168 0.313280 0.260830 -0.678220
H51   H     H_    0.717816 0.367627 0.261164 0.313415
O31   O     O_3   0.860081 0.225913 0.768680 -0.693697
H52   H     H_    0.863237 0.195764 0.804049 0.357633
O32   O     O_3   0.458703 0.219821 0.646723 -0.617257
C55   C     C_3   0.531157 0.144613 0.632819 0.187350
H53   H     H_    0.479172 0.096710 0.659525 0.066824
H54   H     H_    0.664701 0.151326 0.637105 0.009682
H55   H     H_    0.501229 0.122264 0.586757 0.091198
O33   O     O_3   0.555583 0.149101 0.763524 -0.650349
C56   C     C_3   0.496385 0.102946 0.808642 0.169393
H56   H     H_    0.380994 0.067854 0.795666 0.023037
H57   H     H_    0.480511 0.142809 0.850471 0.056274
H58   H     H_    0.586211 0.057955 0.816651 0.079706
O34   O     O_3   0.991303 0.270905 0.937865 -0.685829
H59   H     H_    0.995579 0.227696 0.964950 0.294705
O35   O     O_3   0.828552 0.340906 0.540556 -0.723601
H60   H     H_    0.896816 0.362905 0.509339 0.292873

loop_
_geom_bond_atom_site_label_1
_geom_bond_atom_site_label_2
_ccdc_geom_bond_type
C53   C54   S    
C7    O32   S    
O33   C56   S    
C39   C40   A    
O3    P3    S    
C17   C18   A    
O27   P3    S    
Ba2   O9    S    
O2    P2    S    
C5    C6    S    
C52   H9    S    
C51   C52   S    
O26   P2    D    
C3    O15   S    
C26   C27   S    
O34   H59   S    
C28   P4    S    
C6    H26   S    
C13   N1    Am   
C5    H23   S    
O35   H60   S    
C33   C35   A    
C22   C24   A    
O13   P2    S    
C16   C17   A    
C33   P1    S    
C27   P8    S    
C28   C29   D    
C20   O34   S    
Ba2   O4    S    
C23   H46   S    
Ba2   O12   S    
C52   H7    S    
C6    H25   S    
C12   O3    S    
C13   C14   A    
C3    H18   S    
N3    N4    D    
C46   P7    S    
C34   C45   S    
Ba1   Ba2   S    
C51   H6    S    
C36   N2    S    
Ba1   O13   S    
C56   H58   S    
C45   H4    S    
C42   H42   S    
Ba2   O8    S    
C1    H12   S    
C14   C15   A    
C2    H1    S    
C21   C22   A    
C55   H54   S    
Ba1   O27   S    
C7    C8    S    
Ba1   P2    S    
O23   P6    D    
C46   C48   A    
O25   P6    S    
O24   P1    S    
C30   N1    S    
C56   H57   S    
C51   H5    S    
C35   H37   S    
O17   P8    S    
C48   C49   A    
Ba2   O13   S    
C38   C43   A    
O28   P3    D    
C44   C46   A    
C32   P6    S    
C48   O35   S    
C49   C50   A    
C16   H34   S    
O5    P4    S    
C26   C30   D    
O8    P7    S    
C51   O24   S    
O30   H51   S    
C17   H32   S    
C23   H47   S    
Ba1   O22   S    
Ba2   O14   S    
C50   H44   S    
C43   P3    S    
C15   C19   A    
C23   H22   S    
O12   P1    S    
O14   P7    D    
C6    O31   S    
C41   C42   A    
C35   C36   A    
C31   H33   S    
Ba1   O1    S    
C4    O30   S    
Ba2   O6    S    
C29   C30   S    
C44   C47   A    
C25   N2    Am   
C47   C50   A    
C27   C37   S    
C31   C32   A    
O11   P5    S    
C26   H36   S    
Ba1   O8    S    
O32   C55   S    
C55   H55   S    
C8    O33   S    
C24   O20   D    
C7    H27   S    
C9    H38   S    
C38   C39   A    
C44   H41   S    
C29   H35   S    
C13   O19   D    
C56   H56   S    
C40   C41   A    
C1    C2    S    
C1    H21   S    
C12   H39   S    
C53   H10   S    
O22   P6    S    
C42   C43   A    
C34   O7    S    
C2    O25   S    
O29   H50   S    
C49   P5    S    
C25   O21   D    
C8    H30   S    
C14   C20   A    
C53   O2    S    
C34   H49   S    
C20   C21   A    
C5    O11   S    
C9    C32   A    
C38   H45   S    
C12   H29   S    
C11   N1    Am   
O9    P5    S    
C24   N2    Am   
C53   H11   S    
C4    H20   S    
C18   C25   A    
C3    H17   S    
O6    P8    S    
C54   H14   S    
C7    O17   S    
C34   H48   S    
C9    C33   A    
C1    H16   S    
C47   N4    S    
O16   P8    D    
C40   H43   S    
C10   C15   A    
Ba2   O5    S    
C3    C4    S    
C52   H8    S    
Ba2   P4    S    
C8    H28   S    
O4    P4    D    
C28   C37   D    
C41   N3    S    
C12   C23   S    
C54   O29   S    
Ba1   O12   S    
C37   H40   S    
C39   P2    S    
O1    P1    D    
C45   H3    S    
O7    P4    S    
C11   O18   D    
C10   C11   A    
C18   C19   A    
C54   H13   S    
Ba1   O5    S    
C19   C22   A    
C10   C16   A    
O10   P5    D    
O31   H52   S    
O15   P7    S    
C31   C36   A    
C21   H31   S    
C55   H53   S    
Ba1   O26   S    
C2    H15   S    
Ba1   P1    S    
C5    H24   S    
C45   H2    S    
C4    H19   S    
