data_mof_unit_62704.cif
_audit_creation_date              2013-03-05T16:38:30-0500
_audit_creation_method            fapswitch 2.2
_symmetry_space_group_name_H-M    P1
_symmetry_Int_Tables_number       1
_space_group_crystal_system       triclinic
_cell_length_a                    15.991782
_cell_length_b                    14.771946
_cell_length_c                    10.736329
_cell_angle_alpha                 89.76386
_cell_angle_beta                  89.9673
_cell_angle_gamma                 90.004302
_cell_volume                      2536.21824876

loop_
_atom_site_label
_atom_site_type_symbol
_atom_site_description
_atom_site_fract_x
_atom_site_fract_y
_atom_site_fract_z
_atom_type_partial_charge
O1    O     O_R   0.380310 0.575320 0.500020 -0.563411
O2    O     O_R   0.619690 0.424680 0.499980 -0.563410
O3    O     O_R   0.619690 0.575320 0.499980 -0.570124
O4    O     O_R   0.380310 0.424680 0.500020 -0.570129
C1    C     C_R   0.340854 0.499996 0.499939 0.870228
C2    C     C_R   0.659146 0.500004 0.500061 0.870230
O5    O     O_R   0.499980 0.575330 0.316850 -0.559192
O6    O     O_R   0.500020 0.424670 0.683150 -0.559198
O7    O     O_R   0.500020 0.575330 0.683150 -0.540416
O8    O     O_R   0.499980 0.424670 0.316850 -0.540412
C3    C     C_R   0.499366 0.500282 0.259501 0.975037
C4    C     C_R   0.500635 0.499718 0.740499 0.975039
Cu1   Cu    Cu3+1 0.500000 0.589220 0.500000 1.108158
Cu2   Cu    Cu3+1 0.500000 0.410780 0.500000 1.108155
C5    C     C_1   0.251740 0.499990 0.499931 -0.051249
C6    C     C_1   0.748259 0.500010 0.500069 -0.051246
C7    C     C_R   0.514971 0.951785 0.610130 -0.120590
C8    C     C_R   0.485029 0.048215 0.389870 -0.120586
C9    C     C_R   0.485036 0.952434 0.389860 -0.106213
C10   C     C_R   0.514965 0.047566 0.610139 -0.106218
C11   C     C_R   0.500004 0.902861 0.499993 0.010995
C12   C     C_R   0.499995 0.097139 0.500007 0.010994
C13   C     C_3   0.496424 0.585491 0.039735 0.187804
C14   C     C_3   0.503578 0.414508 0.960265 0.187809
C15   C     C_3   0.566718 0.545499 0.958774 0.176375
C16   C     C_3   0.433284 0.454501 0.041226 0.176377
C17   C     C_3   0.430578 0.539096 0.957447 0.163860
C18   C     C_3   0.569424 0.460904 0.042553 0.163884
C19   C     C_3   0.500820 0.499188 0.875398 -0.384178
C20   C     C_3   0.499181 0.500811 0.124603 -0.384161
C21   C     C_1   0.500002 0.802706 0.499991 0.221748
C22   C     C_1   0.499998 0.197294 0.500009 0.221747
N1    N     N_1   0.500000 0.276710 0.500000 -0.130425
N2    N     N_1   0.500000 0.723290 0.500000 -0.130425
C23   C     C_1   0.823314 0.500009 0.500057 -0.003053
C24   C     C_1   0.176686 0.499991 0.499943 -0.003054
C25   C     C_R   0.956360 0.570806 0.557024 -0.129682
C26   C     C_R   0.043640 0.429194 0.442975 -0.129683
C27   C     C_R   0.043627 0.570801 0.556995 -0.127600
C28   C     C_R   0.956373 0.429199 0.443005 -0.127600
C29   C     C_R   0.912775 0.500004 0.500030 0.127558
C30   C     C_R   0.087225 0.499996 0.499970 0.127559
H1    H     H_    0.526700 0.082977 0.696543 0.181072
H2    H     H_    0.473300 0.917023 0.303457 0.181075
H3    H     H_    0.473283 0.084133 0.303470 0.170588
H4    H     H_    0.526717 0.915867 0.696530 0.170579
N3    N     N_R   0.353166 0.581514 0.915305 0.185725
O9    O     O_R   0.298736 0.609373 0.996578 -0.254935
O10   O     O_R   0.335897 0.587481 0.797268 -0.353630
N4    N     N_R   0.646836 0.418485 0.084696 0.185731
O11   O     O_R   0.701263 0.390622 0.003423 -0.254935
O12   O     O_R   0.664105 0.412520 0.202733 -0.353625
N5    N     N_R   0.490266 0.679104 0.081583 0.176828
O13   O     O_R   0.546181 0.738360 0.048335 -0.288481
O14   O     O_R   0.426456 0.704781 0.147717 -0.299120
N6    N     N_R   0.509740 0.320894 0.918426 0.176839
O15   O     O_R   0.453877 0.261614 0.951794 -0.288483
O16   O     O_R   0.573537 0.295226 0.852258 -0.299128
N7    N     N_R   0.641624 0.593765 0.918407 0.194226
O17   O     O_R   0.693565 0.624865 0.000977 -0.261069
O18   O     O_R   0.659889 0.600880 0.800781 -0.344466
N8    N     N_R   0.358379 0.406233 0.081591 0.194232
O19   O     O_R   0.306447 0.375119 0.999019 -0.261095
O20   O     O_R   0.340107 0.399125 0.199215 -0.344457
H5    H     H_    0.077031 0.625794 0.601256 0.168989
H6    H     H_    0.922969 0.374206 0.398744 0.168989
H7    H     H_    0.922946 0.625803 0.601305 0.168623
H8    H     H_    0.077054 0.374197 0.398695 0.168623

loop_
_geom_bond_atom_site_label_1
_geom_bond_atom_site_label_2
_geom_bond_distance
_ccdc_geom_bond_type
N4    O12   1.299818 A    
C13   C20   1.545166 S    
C13   N5    1.459073 S    
N8    O19   1.300386 A    
C13   C17   1.537853 S    
C4    C19   1.448309 S    
C17   C19   1.545505 S    
C8    C12   1.408952 A    
C27   H5    1.083741 S    
C24   C30   1.430650 S    
N3    O9    1.300203 A    
O3    Cu1   1.925052 S    
O5    Cu1   1.977876 S    
C9    H2    1.083313 S    
O6    C4    1.270371 A    
O3    C2    1.279069 A    
C22   N1    1.173130 T    
C7    C10   1.414878 A    
Cu2   N1    1.980476 S    
C18   C20   1.545505 S    
N4    O11   1.300203 A    
C16   N8    1.458707 S    
C21   N2    1.173130 T    
Cu1   N2    1.980476 S    
N3    O10   1.299818 A    
C28   H6    1.083741 S    
Cu1   Cu2   2.635905 S    
N6    O15   1.300068 A    
C15   C18   1.537302 S    
O5    C3    1.270372 A    
C11   C21   1.479481 S    
C16   C17   1.537306 S    
O2    C2    1.279092 A    
C23   C29   1.430650 S    
C12   C22   1.479483 S    
C25   C29   1.399911 A    
O1    C1    1.279092 A    
C25   H7    1.083754 S    
C28   C29   1.399924 A    
C26   C28   1.395556 A    
C14   C16   1.539944 S    
C16   C20   1.544615 S    
C27   C30   1.399924 A    
N5    O14   1.300293 A    
C6    C23   1.200252 T    
O4    Cu2   1.925054 S    
O2    Cu2   1.925021 S    
O7    C4    1.273220 A    
C1    C5    1.425092 S    
C14   N6    1.459081 S    
C26   C30   1.399911 A    
C26   H8    1.083753 S    
C2    C6    1.425092 S    
O8    Cu2   1.976194 S    
C8    H3    1.083246 S    
C5    C24   1.200252 T    
N7    O17   1.300384 A    
C10   H1    1.083313 S    
O1    Cu1   1.925023 S    
C7    H4    1.083246 S    
C15   C19   1.544622 S    
C25   C27   1.395556 A    
C13   C15   1.539948 S    
O8    C3    1.273219 A    
N7    O18   1.299879 A    
C17   N3    1.458870 S    
N8    O20   1.299879 A    
O7    Cu1   1.976193 S    
C14   C19   1.545171 S    
C8    C9    1.414878 A    
O6    Cu2   1.977875 S    
C15   N7    1.458710 S    
C9    C11   1.408860 A    
N5    O13   1.300053 A    
N6    O16   1.300286 A    
C18   N4    1.458869 S    
C7    C11   1.408952 A    
C14   C18   1.537851 S    
C3    C20   1.448307 S    
C10   C12   1.408858 A    
O4    C1    1.279069 A    
