data_mof_unit_40770.cif
_audit_creation_date              2012-12-10T18:56:31-0500
_audit_creation_method            fapswitch 2.2
_symmetry_space_group_name_H-M    P1
_symmetry_Int_Tables_number       1
_space_group_crystal_system       triclinic
_cell_length_a                    10.661222
_cell_length_b                    9.796941
_cell_length_c                    19.292126
_cell_angle_alpha                 89.643256
_cell_angle_beta                  90.037421
_cell_angle_gamma                 90.113067
_cell_volume                      2014.96829029

loop_
_atom_site_label
_atom_site_type_symbol
_atom_type_description
_atom_site_fract_x
_atom_site_fract_y
_atom_site_fract_z
_atom_type_partial_charge
C1    C     C_R   0.872265 0.501518 0.499978 -0.176263
C2    C     C_R   0.739823 0.500279 0.499221 0.976753
C3    C     C_R   0.501586 0.500116 0.364996 0.936949
C4    C     C_R   0.499271 0.499300 0.635016 0.929713
C5    C     C_R   0.064904 0.436752 0.555489 0.115360
C6    C     C_R   0.935470 0.570868 0.446544 0.096073
C7    C     C_R   0.934488 0.431958 0.553689 0.109898
C8    C     C_R   0.065522 0.565346 0.445046 0.120971
C9    C     C_R   0.487924 0.369266 0.747703 0.094624
C10   C     C_R   0.501918 0.623328 0.250436 0.103993
C11   C     C_R   0.465480 0.375249 0.253519 0.112156
C12   C     C_R   0.127883 0.500246 0.500065 -0.165132
C13   C     C_R   0.461274 0.619351 0.747809 0.114339
C14   C     C_R   0.465435 0.366093 0.819335 0.137506
C15   C     C_R   0.474898 0.624749 0.179103 0.139493
C16   C     C_R   0.435399 0.378366 0.182836 0.126907
C17   C     C_R   0.432437 0.613470 0.818689 0.125268
C18   C     C_R   0.437868 0.487998 0.853708 -0.070472
C19   C     C_R   0.441701 0.502212 0.146414 -0.067948
C20   C     C_R   0.599338 0.071942 0.526549 -0.084372
C21   C     C_R   0.399866 0.928079 0.474406 -0.100119
C22   C     C_R   0.400292 0.072193 0.473896 -0.078843
C23   C     C_R   0.549604 0.493474 0.963865 -0.187756
C24   C     C_R   0.599446 0.927830 0.526394 -0.096880
C25   C     C_R   0.485825 0.496444 0.711371 -0.218561
C26   C     C_R   0.492133 0.499412 0.288500 -0.216375
C27   C     C_3   0.172690 0.489129 0.662451 -0.799617
C28   C     C_3   0.840546 0.780332 0.402448 -0.753053
C29   C     C_3   0.821446 0.435935 0.663276 -0.784187
C30   C     C_3   0.168563 0.530740 0.335060 -0.828108
C31   C     C_3   0.407424 0.162555 0.694539 -0.709109
C32   C     C_3   0.456701 0.847210 0.298899 -0.745251
C33   C     C_3   0.604145 0.196377 0.293868 -0.722773
C34   C     C_R   0.322324 0.488459 0.036532 -0.202313
C35   C     C_3   0.594359 0.806888 0.711765 -0.742118
C36   C     C_3   0.357097 0.185514 0.884912 -0.787758
C37   C     C_3   0.367874 0.811332 0.120293 -0.800310
C38   C     C_3   0.504810 0.183521 0.114086 -0.779990
C39   C     C_3   0.498951 0.804299 0.891933 -0.771234
C40   C     C_R   0.550464 0.500614 0.035261 -0.179466
C41   C     C_R   0.321306 0.485813 0.964564 -0.183356
C42   C     C_R   0.437038 0.498514 0.071410 0.238817
C43   C     C_R   0.435235 0.487812 0.928701 0.249748
C44   C     C_R   0.260238 0.499948 0.499899 0.974351
H1    H     H_    0.678419 0.126527 0.548053 0.142976
H2    H     H_    0.901187 0.843764 0.368242 0.202196
H3    H     H_    0.856192 0.811634 0.457118 0.239560
H4    H     H_    0.741071 0.800547 0.388975 0.264697
H5    H     H_    0.898033 0.262521 0.617377 0.207331
H6    H     H_    0.899597 0.454343 0.699878 0.231730
H7    H     H_    0.748086 0.377159 0.691150 0.234790
H8    H     H_    0.780790 0.534820 0.646175 0.227577
H9    H     H_    0.098028 0.715157 0.370038 0.232295
H10   H     H_    0.083180 0.489194 0.309730 0.228088
H11   H     H_    0.224702 0.445033 0.356576 0.245742
H12   H     H_    0.320323 0.873495 0.453410 0.142628
H13   H     H_    0.225730 0.584465 0.295281 0.239150
H14   H     H_    0.589338 0.190139 0.732079 0.199751
H15   H     H_    0.366995 0.114006 0.741494 0.220903
H16   H     H_    0.436443 0.081118 0.658252 0.229944
H17   H     H_    0.334619 0.225281 0.668440 0.261362
H18   H     H_    0.631120 0.780832 0.263115 0.204373
H19   H     H_    0.447214 0.919566 0.254845 0.217743
H20   H     H_    0.489778 0.905659 0.344234 0.239288
H21   H     H_    0.364002 0.801466 0.311725 0.246977
H22   H     H_    0.412880 0.172881 0.275064 0.211410
H23   H     H_    0.321057 0.126986 0.452586 0.133433
H24   H     H_    0.637888 0.160954 0.242699 0.221176
H25   H     H_    0.607197 0.109822 0.331126 0.228686
H26   H     H_    0.668543 0.276989 0.313187 0.237731
H27   H     H_    0.401572 0.818712 0.726735 0.214883
H28   H     H_    0.627219 0.831255 0.764797 0.227672
H29   H     H_    0.593607 0.902284 0.680518 0.221841
H30   H     H_    0.661329 0.734866 0.687582 0.235311
H31   H     H_    0.537707 0.169624 0.842180 0.215636
H32   H     H_    0.363813 0.176775 0.942154 0.251085
H33   H     H_    0.340457 0.082114 0.863518 0.222003
H34   H     H_    0.678665 0.873024 0.547701 0.130466
H35   H     H_    0.275178 0.250576 0.871399 0.236940
H36   H     H_    0.552511 0.816096 0.155180 0.221189
H37   H     H_    0.386222 0.902321 0.087250 0.236847
H38   H     H_    0.316191 0.843460 0.167324 0.234619
H39   H     H_    0.307659 0.740736 0.090447 0.251285
H40   H     H_    0.335308 0.195403 0.169367 0.209058
H41   H     H_    0.478690 0.160791 0.059697 0.246402
H42   H     H_    0.521957 0.085745 0.141858 0.223454
H43   H     H_    0.593190 0.244016 0.113785 0.240459
H44   H     H_    0.332232 0.795804 0.833681 0.207214
H45   H     H_    0.096024 0.300667 0.637847 0.219722
H46   H     H_    0.514416 0.906329 0.868070 0.222577
H47   H     H_    0.588654 0.746745 0.890231 0.236624
H48   H     H_    0.471649 0.818182 0.946941 0.258191
H49   H     H_    0.637593 0.494901 0.935768 0.125263
H50   H     H_    0.234779 0.485349 0.064962 0.130222
H51   H     H_    0.639158 0.506530 0.062565 0.125246
H52   H     H_    0.232964 0.481495 0.936906 0.127257
H53   H     H_    0.090987 0.546920 0.682113 0.235199
H54   H     H_    0.238240 0.562293 0.637493 0.246498
H55   H     H_    0.220935 0.440385 0.707138 0.231580
H56   H     H_    0.895019 0.613503 0.342582 0.220432
N1    N     N_R   0.500000 0.857200 0.500000 -0.069794
N2    N     N_2   0.469407 0.748781 0.713702 -0.262220
N3    N     N_2   0.473470 0.241307 0.857958 -0.298747
N4    N     N_2   0.485689 0.747352 0.138918 -0.296042
N5    N     N_2   0.402989 0.256414 0.146864 -0.299246
N6    N     N_2   0.399104 0.733594 0.855894 -0.299902
N7    N     N_R   0.500000 0.142800 0.500000 -0.071663
N8    N     N_2   0.133341 0.385487 0.613763 -0.299482
N9    N     N_2   0.867050 0.636757 0.392253 -0.306783
N10   N     N_2   0.864348 0.357876 0.604573 -0.292293
N11   N     N_2   0.134609 0.625276 0.389211 -0.298866
N12   N     N_2   0.515258 0.245384 0.712266 -0.275143
N13   N     N_2   0.548288 0.743222 0.283184 -0.278253
N14   N     N_2   0.476845 0.246991 0.288475 -0.268642
O1    O     O_R   0.316770 0.614620 0.500000 -0.622282
O2    O     O_R   0.683230 0.385380 0.500000 -0.621655
O3    O     O_R   0.683230 0.614620 0.500000 -0.622985
O4    O     O_R   0.316770 0.385380 0.500000 -0.628750
O5    O     O_R   0.500030 0.614710 0.398180 -0.578303
O6    O     O_R   0.499970 0.385290 0.601820 -0.572718
O7    O     O_R   0.499970 0.614710 0.601820 -0.598417
O8    O     O_R   0.500030 0.385290 0.398180 -0.599952
Zn1   Zn    Zn3+2 0.500000 0.653120 0.500000 0.954217
Zn2   Zn    Zn3+2 0.500000 0.346880 0.500000 0.959656

loop_
_geom_bond_atom_site_label_1
_geom_bond_atom_site_label_2
_ccdc_geom_bond_type
C39   N6    S    
C35   H30   S    
C14   C18   A    
C34   C42   A    
C35   N2    S    
C13   C25   A    
C4    C25   S    
C9    C25   A    
C28   H3    S    
C15   C19   A    
C30   H10   S    
C28   H2    S    
C33   N14   S    
N1    Zn1   S    
H36   N4    S    
C36   N3    S    
H14   N12   S    
C1    C2    S    
H5    N10   S    
C36   H33   S    
C41   H52   S    
C23   C40   A    
C30   H13   S    
C23   C43   A    
C24   N1    A    
C31   H15   S    
C11   N14   S    
C31   H17   S    
C36   H32   S    
C2    O2    A    
C27   H53   S    
C20   C24   A    
C44   O1    A    
C31   N12   S    
C15   N4    S    
O2    Zn2   S    
C39   H46   S    
C20   H1    S    
C19   C42   S    
C33   H25   S    
C20   N7    A    
C21   N1    A    
H9    N11   S    
C9    N12   S    
C40   C42   A    
H56   N9    S    
C21   C22   A    
H31   N3    S    
C41   C43   A    
C37   H37   S    
C22   N7    A    
C34   C41   A    
N7    Zn2   S    
C39   H47   S    
C2    O3    A    
C17   C18   A    
C29   H6    S    
O1    Zn1   S    
C38   H41   S    
C1    C6    A    
C29   N10   S    
C32   H20   S    
C5    C12   A    
C8    N11   S    
C5    C7    A    
C6    C8    A    
C11   C26   A    
C23   H49   S    
C31   H16   S    
C9    C14   A    
C37   N4    S    
H44   N6    S    
C11   C16   A    
C44   O4    A    
C8    C12   A    
C27   H55   S    
H40   N5    S    
O4    Zn2   S    
C10   N13   S    
C3    O5    A    
C16   N5    S    
H18   N13   S    
C33   H26   S    
C24   H34   S    
H27   N2    S    
C38   H42   S    
C35   H28   S    
C32   N13   S    
C6    N9    S    
C37   H38   S    
C40   H51   S    
O8    Zn2   S    
C39   H48   S    
C29   H7    S    
C35   H29   S    
C27   H54   S    
H22   N14   S    
C1    C7    A    
C3    C26   S    
C4    O6    A    
C34   H50   S    
C32   H19   S    
C36   H35   S    
C21   H12   S    
C3    O8    A    
O5    Zn1   S    
C28   N9    S    
C30   H11   S    
C30   N11   S    
C7    N10   S    
C13   C17   A    
C38   H43   S    
C10   C15   A    
C38   N5    S    
O3    Zn1   S    
C12   C44   S    
C18   C43   S    
C10   C26   A    
C14   N3    S    
C27   N8    S    
C16   C19   A    
H45   N8    S    
C28   H4    S    
C4    O7    A    
C22   H23   S    
O7    Zn1   S    
C37   H39   S    
C13   N2    S    
C17   N6    S    
C5    N8    S    
O6    Zn2   S    
C33   H24   S    
C32   H21   S    
C29   H8    S    
