data_mof_unit_61096.cif
_audit_creation_date              2012-12-10T17:59:47-0500
_audit_creation_method            fapswitch 2.2
_symmetry_space_group_name_H-M    P1
_symmetry_Int_Tables_number       1
_space_group_crystal_system       triclinic
_cell_length_a                    18.621735
_cell_length_b                    18.613672
_cell_length_c                    18.713502
_cell_angle_alpha                 109.293508
_cell_angle_beta                  109.80295
_cell_angle_gamma                 109.070742
_cell_volume                      5008.24252145

loop_
_atom_site_label
_atom_site_type_symbol
_atom_type_description
_atom_site_fract_x
_atom_site_fract_y
_atom_site_fract_z
_atom_type_partial_charge
C1    C     C_R   0.620556 0.620261 0.500214 0.872417
C2    C     C_3   0.173696 0.431765 0.221127 -0.181557
C3    C     C_3   0.234032 0.507255 0.317142 -0.177169
C4    C     C_3   0.312522 0.500068 0.312569 -0.110023
C5    C     C_R   0.754407 0.761613 0.579552 -0.183520
C6    C     C_R   0.818868 0.825068 0.579546 -0.184641
C7    C     C_R   0.813846 0.813816 0.500113 -0.004967
C8    C     C_R   0.745873 0.739293 0.420787 -0.193775
C9    C     C_R   0.683044 0.674488 0.421023 -0.189135
C10   C     C_R   0.687146 0.686260 0.500355 -0.031376
C11   C     C_R   0.679798 0.500409 0.759459 -0.188919
C12   C     C_R   0.379156 0.499854 0.379349 0.955715
C13   C     C_R   0.743554 0.499071 0.823168 -0.184709
C14   C     C_R   0.816100 0.500063 0.815955 -0.010000
C15   C     C_R   0.824806 0.501013 0.744942 -0.186068
C16   C     C_R   0.759683 0.499590 0.679857 -0.183245
C17   C     C_R   0.687829 0.499984 0.687769 -0.006032
C18   C     C_R   0.227850 0.299524 0.460933 0.475540
C19   C     C_R   0.163657 0.233876 0.459684 -0.283584
C20   C     C_R   0.186896 0.187368 0.500069 -0.092650
C21   C     C_R   0.273747 0.204653 0.539976 -0.171963
C22   C     C_R   0.337153 0.267875 0.538933 -0.278326
C23   C     C_R   0.380139 0.380038 0.500083 0.931425
C24   C     C_R   0.313771 0.314427 0.499426 -0.090621
C25   C     C_R   0.003005 0.620223 0.123087 0.858317
C26   C     C_R   0.124553 0.499771 0.124229 0.927087
C27   C     C_R   0.004559 0.379712 0.884216 0.869973
C28   C     C_R   0.882713 0.499990 0.882553 0.859000
C29   C     C_R   0.000900 0.879672 0.380594 0.861908
C30   C     C_R   0.879830 0.879833 0.500020 0.859136
C31   C     C_R   0.999377 0.120412 0.619325 0.859766
C32   C     C_R   0.120449 0.120447 0.499933 0.894228
C33   C     C_R   0.001843 0.757792 0.179916 -0.185182
C34   C     C_R   0.621172 0.499985 0.621164 0.852070
C35   C     C_R   0.999926 0.821035 0.242687 -0.182815
C36   C     C_R   0.001457 0.813542 0.314980 -0.009898
C37   C     C_R   0.003580 0.742785 0.324491 -0.187421
C38   C     C_R   0.002777 0.678167 0.260363 -0.189198
C39   C     C_R   0.002551 0.686348 0.188740 -0.008121
C40   C     C_R   0.082206 0.319068 0.824701 -0.177700
C41   C     C_R   0.080797 0.255065 0.759502 -0.181468
C42   C     C_R   0.000329 0.187471 0.685636 -0.012910
C43   C     C_R   0.921169 0.182987 0.676731 -0.187223
C44   C     C_R   0.922495 0.245765 0.743182 -0.187201
C45   C     C_3   0.329622 0.568166 0.283349 0.397732
C46   C     C_R   0.003067 0.313688 0.816595 -0.007445
C47   C     C_3   0.250586 0.576137 0.286510 -0.359942
C48   C     C_3   0.191439 0.500128 0.191411 -0.111129
C49   C     C_3   0.270045 0.493702 0.188316 0.474617
C50   C     C_3   0.253084 0.424657 0.217390 -0.231567
H1    H     H_    0.246017 0.636474 0.312022 0.146922
H2    H     H_    0.630376 0.616377 0.359599 0.159227
H3    H     H_    0.880976 0.501387 0.739377 0.144038
H4    H     H_    0.765849 0.499623 0.624321 0.144091
H5    H     H_    0.096263 0.219654 0.427471 0.165583
H6    H     H_    0.292364 0.168691 0.570849 0.167104
H7    H     H_    0.404345 0.280940 0.569170 0.150999
H8    H     H_    0.001322 0.763641 0.124034 0.144760
H9    H     H_    0.998686 0.876245 0.235783 0.145740
H10   H     H_    0.003736 0.622796 0.267091 0.142936
H11   H     H_    0.144442 0.371530 0.881893 0.144051
H12   H     H_    0.142138 0.258506 0.766182 0.145699
H13   H     H_    0.858860 0.130184 0.619661 0.144716
H14   H     H_    0.861268 0.242250 0.737005 0.142736
H15   H     H_    0.255733 0.363358 0.190348 0.172790
H16   H     H_    0.221372 0.513300 0.372066 0.161946
H17   H     H_    0.757577 0.770501 0.640980 0.148586
H18   H     H_    0.871626 0.883279 0.640849 0.142022
H19   H     H_    0.742475 0.730902 0.359380 0.143332
O1    O     O_R   0.592040 0.539900 0.448690 -0.622394
O2    O     O_R   0.054890 0.643310 0.094620 -0.623626
O3    O     O_R   0.044450 0.448260 0.096050 -0.627111
O4    O     O_R   0.147910 0.551670 0.096030 -0.635527
O5    O     O_R   0.952840 0.356630 0.912840 -0.620134
O6    O     O_R   0.056290 0.460040 0.912820 -0.632276
O7    O     O_R   0.859820 0.448260 0.911420 -0.623609
O8    O     O_R   0.963280 0.551670 0.911400 -0.621907
O9    O     O_R   0.052810 0.908290 0.461080 -0.622449
O10   O     O_R   0.948580 0.908330 0.356880 -0.623182
O11   O     O_R   0.960490 0.908280 0.552000 -0.620843
O12   O     O_R   0.591220 0.643330 0.551330 -0.627782
O13   O     O_R   0.856260 0.908310 0.447800 -0.622952
O14   O     O_R   0.051420 0.091500 0.642940 -0.622618
O15   O     O_R   0.947190 0.091540 0.538750 -0.623613
O16   O     O_R   0.143740 0.091510 0.552020 -0.629527
O17   O     O_R   0.039510 0.091550 0.447830 -0.627278
O18   O     O_R   0.408100 0.448290 0.356370 -0.621765
O19   O     O_R   0.407270 0.551710 0.459000 -0.642729
O20   O     O_R   0.408780 0.356670 0.448670 -0.617267
O21   O     O_R   0.407960 0.460100 0.551310 -0.631899
O22   O     O_R   0.592730 0.448290 0.541000 -0.625204
O23   O     O_R   0.591900 0.551710 0.643630 -0.625659
O24   O     O_R   0.951430 0.539890 0.094630 -0.623971
Zn1   Zn    Zn3+2 0.500550 0.430940 0.431470 0.967928
Zn2   Zn    Zn3+2 0.499450 0.569060 0.568530 0.938054
Zn3   Zn    Zn3+2 0.934780 0.430920 0.003740 0.952610
Zn4   Zn    Zn3+2 0.072940 0.569020 0.003710 0.942479
Zn5   Zn    Zn3+2 0.069600 0.999890 0.569480 0.950711
Zn6   Zn    Zn3+2 0.930400 0.999940 0.430340 0.948545
H20   H     H_    0.623769 0.500328 0.765164 0.142070
H21   H     H_    0.737201 0.498688 0.878524 0.144123
O25   O     O_3   0.206151 0.342849 0.416873 -0.659451
C51   C     C_3   0.175598 0.395546 0.456516 0.071125
H22   H     H_    0.223274 0.465007 0.482908 0.162909
H23   H     H_    0.170152 0.390315 0.512484 0.121584
C52   C     C_3   0.086134 0.372310 0.387265 -0.337466
H24   H     H_    0.090575 0.376133 0.330777 0.230814
H25   H     H_    0.037316 0.304090 0.363457 0.217814
C53   C     C_3   0.054760 0.434173 0.423951 -0.971326
H26   H     H_    0.048508 0.430490 0.479774 0.267378
H27   H     H_    0.989588 0.415216 0.372224 0.268597
H28   H     H_    0.101682 0.502580 0.446199 0.260674
O26   O     O_3   0.414670 0.634971 0.314944 -0.685087
C54   C     C_3   0.438117 0.710719 0.388676 0.059336
H29   H     H_    0.430861 0.695378 0.439408 0.166552
H30   H     H_    0.396558 0.739779 0.369017 0.142446
C55   C     C_3   0.533772 0.777932 0.427614 -0.304181
H31   H     H_    0.575872 0.749239 0.445602 0.238597
H32   H     H_    0.541674 0.794785 0.378027 0.222834
C56   C     C_3   0.563881 0.861119 0.508983 -0.961452
H33   H     H_    0.523482 0.891992 0.492484 0.261436
H34   H     H_    0.633600 0.908267 0.535482 0.268799
H35   H     H_    0.558321 0.845838 0.560096 0.266195
H36   H     H_    0.004409 0.737067 0.380515 0.144209
O27   O     O_3   0.281404 0.479726 0.114848 -0.662565
C57   C     C_3   0.331721 0.560190 0.122489 0.138897
H37   H     H_    0.402585 0.583322 0.163035 0.184421
H38   H     H_    0.316265 0.611497 0.152448 0.157502
C58   C     C_3   0.312784 0.546397 0.031554 -0.356373
H39   H     H_    0.325683 0.494019 0.999226 0.227501
H40   H     H_    0.242580 0.525540 0.991476 0.240296
C59   C     C_3   0.369586 0.630242 0.036310 -0.972249
H41   H     H_    0.356535 0.683078 0.067047 0.263984
H42   H     H_    0.353977 0.618074 0.969243 0.267937
H43   H     H_    0.440252 0.651809 0.074978 0.266776
H44   H     H_    0.108272 0.375912 0.194534 0.165629

loop_
_geom_bond_atom_site_label_1
_geom_bond_atom_site_label_2
_ccdc_geom_bond_type
C8    C9    A    
C25   O24   A    
C33   H8    S    
C31   C42   S    
C26   O3    A    
C41   C42   A    
C35   C36   A    
C5    H17   S    
C22   H7    S    
C54   H29   S    
C43   H13   S    
C7    C8    A    
C44   H14   S    
C40   C46   A    
O2    Zn4   S    
C29   C36   S    
C8    H19   S    
C33   C39   A    
C57   H37   S    
C18   C24   A    
C15   H3    S    
O10   Zn6   S    
C36   C37   A    
O1    Zn1   S    
C58   H39   S    
C53   H27   S    
O13   Zn6   S    
C5    C6    A    
O12   Zn2   S    
C52   H24   S    
C1    O12   A    
C15   C16   A    
O18   Zn1   S    
O6    Zn4   S    
C26   O4    A    
C31   O14   A    
C35   H9    S    
C18   C19   A    
C18   O25   S    
O20   Zn1   S    
C34   O22   A    
O16   Zn5   S    
C2    C50   S    
C29   O9    A    
C19   C20   A    
C44   C46   A    
C16   C17   A    
O14   Zn5   S    
O9    Zn5   S    
C23   C24   S    
C23   O20   A    
O8    Zn4   S    
C25   O2    A    
C4    C12   S    
C27   O5    A    
C9    C10   A    
C56   H35   S    
C26   C48   S    
C58   C59   S    
C30   O11   A    
C6    H18   S    
O19   Zn2   S    
C7    C30   S    
C13   C14   A    
C9    H2    S    
C41   H12   S    
C27   O6    A    
C56   H34   S    
C16   H4    S    
C4    C45   S    
C45   C47   S    
C12   O19   A    
O5    Zn3   S    
O21   Zn2   S    
C53   H28   S    
C59   H41   S    
C47   H1    S    
C57   C58   S    
C2    C48   S    
O23   Zn2   S    
C2    H44   S    
C31   O15   A    
C4    C50   S    
C11   H20   S    
C30   O13   A    
O4    Zn4   S    
C43   C44   A    
C37   C38   A    
C28   O8    A    
C37   H36   S    
C47   C48   S    
C29   O10   A    
C45   C49   S    
C32   O17   A    
C23   O21   A    
C51   H23   S    
O17   Zn6   S    
C38   H10   S    
C27   C46   S    
C48   C49   S    
O24   Zn3   S    
O27   C57   S    
C22   C24   A    
C55   C56   S    
C3    H16   S    
C42   C43   A    
C13   H21   S    
C3    C4    S    
C28   O7    A    
C56   H33   S    
O26   C54   S    
C20   C32   S    
C19   H5    S    
C11   C17   A    
C57   H38   S    
C12   O18   A    
O11   Zn5   S    
O15   Zn6   S    
C1    C10   S    
C21   H6    S    
C54   H30   S    
C6    C7    A    
C49   O27   S    
C1    O1    A    
C55   H32   S    
C2    C3    S    
C5    C10   A    
C55   H31   S    
C25   C39   S    
O22   Zn1   S    
C11   C13   A    
C38   C39   A    
C52   H25   S    
C59   H43   S    
C32   O16   A    
C3    C47   S    
C33   C35   A    
C51   C52   S    
O25   C51   S    
C50   H15   S    
C34   O23   A    
C54   C55   S    
C40   H11   S    
O3    Zn3   S    
C45   O26   S    
C20   C21   A    
C59   H42   S    
C49   C50   S    
C17   C34   S    
C53   H26   S    
C51   H22   S    
C14   C15   A    
C40   C41   A    
C14   C28   S    
C21   C22   A    
O7    Zn3   S    
C58   H40   S    
C52   C53   S    
