data_mof_unit_60185.cif
_audit_creation_date              2012-10-26T20:41:33-0400
_audit_creation_method            fapswitch 2.2
_symmetry_space_group_name_H-M    P1
_symmetry_Int_Tables_number       1
_space_group_crystal_system       triclinic
_cell_length_a                    11.726037
_cell_length_b                    10.481906
_cell_length_c                    10.658881
_cell_angle_alpha                 89.786474
_cell_angle_beta                  90.090063
_cell_angle_gamma                 90.060575
_cell_volume                      1310.08460157

loop_
_atom_site_label
_atom_site_type_symbol
_atom_type_description
_atom_site_fract_x
_atom_site_fract_y
_atom_site_fract_z
_atom_type_partial_charge
C1    C     C_R   0.283360 0.499952 0.500086 0.542570
C2    C     C_3   0.409904 0.432128 0.042297 -0.121581
C3    C     C_3   0.403851 0.552247 0.958596 0.013836
C4    C     C_3   0.596152 0.447751 0.041402 0.013836
C5    C     C_3   0.500075 0.499110 0.877603 0.030887
C6    C     C_3   0.499928 0.500889 0.122396 0.030884
C7    C     C_1   0.161974 0.499888 0.500095 -0.029072
C8    C     C_1   0.838026 0.500112 0.499904 -0.029072
C9    C     C_1   0.059740 0.499946 0.500046 -0.045368
C10   C     C_1   0.940260 0.500054 0.499953 -0.045368
C11   C     C_3   0.294325 0.611265 0.906819 -0.269922
C12   C     C_R   0.716640 0.500048 0.499914 0.542570
C13   C     C_3   0.214853 0.652385 0.012290 -0.439359
C14   C     C_3   0.705678 0.388734 0.093179 -0.269923
C15   C     C_3   0.785142 0.347588 0.987709 -0.439360
C16   C     C_R   0.499802 0.500288 0.258709 0.544500
C17   C     C_R   0.500199 0.499711 0.741291 0.544501
C18   C     C_1   0.500001 0.072101 0.499999 0.093419
C19   C     C_1   0.499999 0.927899 0.500000 0.093419
C20   C     C_3   0.492760 0.621721 0.040307 -0.111502
C21   C     C_3   0.507242 0.378278 0.959691 -0.111498
C22   C     C_3   0.590099 0.567870 0.957702 -0.121583
Cu1   Cu    Cu3+1 0.500000 0.625300 0.500000 0.974876
Cu2   Cu    Cu3+1 0.500000 0.374700 0.500000 0.974875
H1    H     H_    0.486062 0.721004 0.075428 0.123011
H2    H     H_    0.742736 0.275399 0.927486 0.156967
H3    H     H_    0.809864 0.431101 0.929317 0.151761
H4    H     H_    0.863549 0.304805 0.028401 0.141298
H5    H     H_    0.749903 0.459777 0.153188 0.143609
H6    H     H_    0.683645 0.304460 0.151830 0.161582
H7    H     H_    0.513938 0.278995 0.924571 0.123011
H8    H     H_    0.663873 0.622481 0.920398 0.111787
H9    H     H_    0.336129 0.377518 0.079602 0.111786
H10   H     H_    0.190139 0.568858 0.070669 0.151757
H11   H     H_    0.257252 0.724569 0.072527 0.156968
H12   H     H_    0.136442 0.695163 0.971601 0.141299
H13   H     H_    0.316357 0.695552 0.848184 0.161579
H14   H     H_    0.250107 0.540230 0.846795 0.143612
N1    N     N_1   0.500000 0.186410 0.500000 -0.192900
N2    N     N_1   0.500000 0.813590 0.500000 -0.192900
O1    O     O_R   0.337200 0.605810 0.499990 -0.491372
O2    O     O_R   0.662800 0.394190 0.500010 -0.491373
O3    O     O_R   0.662800 0.605810 0.500010 -0.488167
O4    O     O_R   0.337200 0.394190 0.499990 -0.488167
O5    O     O_R   0.499970 0.605800 0.316850 -0.500091
O6    O     O_R   0.500030 0.394200 0.683150 -0.500092
O7    O     O_R   0.500030 0.605800 0.683150 -0.500764
O8    O     O_R   0.499970 0.394200 0.316850 -0.500765

loop_
_geom_bond_atom_site_label_1
_geom_bond_atom_site_label_2
_ccdc_geom_bond_type
C16   O5    A    
C11   H14   S    
C18   N1    T    
Cu1   O5    S    
Cu2   O2    S    
C9    C10   S    
C1    O4    A    
C15   H3    S    
Cu1   O1    S    
C3    C11   S    
C8    C12   S    
Cu2   O6    S    
C16   O8    A    
C2    C21   S    
C2    C3    S    
C5    C21   S    
C13   H10   S    
C3    C20   S    
C4    C21   S    
C21   H7    S    
C15   H4    S    
C2    C6    S    
C22   H8    S    
C6    C20   S    
C14   H6    S    
C2    H9    S    
C8    C10   T    
C20   C22   S    
C13   H11   S    
C12   O3    A    
C4    C14   S    
Cu2   O4    S    
C5    C17   S    
C19   N2    T    
Cu1   O7    S    
C14   H5    S    
C6    C16   S    
Cu1   N2    S    
Cu2   O8    S    
C7    C9    T    
C11   C13   S    
Cu2   N1    S    
C4    C22   S    
C17   O6    A    
C13   H12   S    
C4    C6    S    
C18   C19   S    
C20   H1    S    
C1    O1    A    
C11   H13   S    
C14   C15   S    
C15   H2    S    
C12   O2    A    
Cu1   Cu2   S    
C1    C7    S    
Cu1   O3    S    
C5    C22   S    
C17   O7    A    
C3    C5    S    
