data_mof_unit_7493.cif
_audit_creation_date              2012-12-11T14:08:09-0500
_audit_creation_method            fapswitch 2.2
_symmetry_space_group_name_H-M    P1
_symmetry_Int_Tables_number       1
_space_group_crystal_system       triclinic
_cell_length_a                    10.935887
_cell_length_b                    10.976723
_cell_length_c                    18.724399
_cell_angle_alpha                 90.387591
_cell_angle_beta                  89.78923
_cell_angle_gamma                 60.304206
_cell_volume                      1952.37937565

loop_
_atom_site_label
_atom_site_type_symbol
_atom_type_description
_atom_site_fract_x
_atom_site_fract_y
_atom_site_fract_z
_atom_type_partial_charge
C1    C     C_R   0.236074 0.645621 0.608527 0.571301
C2    C     C_3   0.677558 0.546932 0.800772 -0.257019
C3    C     C_3   0.697775 0.674528 0.813245 -0.012249
C4    C     C_3   0.672305 0.645737 0.677027 0.022715
C5    C     C_3   0.815654 0.641780 0.690563 0.399426
C6    C     C_3   0.667733 0.526743 0.720426 -0.266027
C7    C     C_2   0.667398 0.162360 0.671848 0.251909
C8    C     C_2   0.689455 0.176333 0.831804 -0.082781
C9    C     C_2   0.797108 0.121277 0.784697 -0.121336
C10   C     C_2   0.775377 0.157406 0.708556 -0.132715
C11   C     C_2   0.178391 0.662878 0.680427 0.002912
C12   C     C_R   0.653827 0.621333 0.601674 0.612329
C13   C     C_2   0.193031 0.663470 0.839035 0.353702
C14   C     C_2   0.189850 0.563299 0.799067 -0.139407
C15   C     C_2   0.221781 0.549852 0.722429 -0.086038
C16   C     C_2   0.652228 0.647767 0.318349 0.376445
C17   C     C_2   0.631695 0.665987 0.159106 -0.037148
C18   C     C_2   0.701689 0.547592 0.196117 0.364402
C19   C     C_2   0.675065 0.543694 0.272076 -0.089446
C20   C     C_2   0.635381 0.193312 0.319577 0.403713
C21   C     C_2   0.635725 0.203626 0.163188 -0.062603
C22   C     C_2   0.525175 0.225751 0.202294 -0.136859
C23   C     C_R   0.626738 0.229397 0.602319 0.579572
C24   C     C_2   0.520883 0.256827 0.277450 -0.130477
C25   C     C_2   0.115869 0.683814 0.347329 0.225518
C26   C     C_2   0.118756 0.689152 0.189547 -0.073522
C27   C     C_2   0.044375 0.799562 0.233539 -0.056802
C28   C     C_2   0.082635 0.795730 0.307462 -0.074086
C29   C     C_R   0.702691 0.104759 0.898841 0.541860
C30   C     C_R   0.722472 0.687703 0.888996 0.556312
C31   C     C_R   0.118484 0.706587 0.907269 0.564509
C32   C     C_R   0.672783 0.114556 0.101038 0.563028
C33   C     C_R   0.692050 0.688678 0.094621 0.586090
C34   C     C_R   0.215044 0.651412 0.404805 0.556219
C35   C     C_R   0.088549 0.712398 0.114665 0.539670
C36   C     C_R   0.642447 0.622058 0.393318 0.608038
C37   C     C_R   0.615056 0.232290 0.393868 0.587809
C38   C     C_3   0.569417 0.809946 0.783259 0.117576
C39   C     C_3   0.547359 0.786919 0.704513 -0.196253
C40   C     C_3   0.831064 0.653561 0.771782 -0.202466
Cr1   Cr    Cr6+3 0.393010 0.398050 0.501480 1.126956
Cr2   Cr    Cr6+3 0.398820 0.707980 0.501630 1.079048
Cr3   Cr    Cr6+3 0.708140 0.393940 0.496850 1.104557
Cr4   Cr    Cr6+3 0.937950 0.938450 0.008940 1.090138
Cr5   Cr    Cr6+3 0.626180 0.937030 0.994750 1.100502
Cr6   Cr    Cr6+3 0.937790 0.625760 0.001410 1.079059
H1    H     H_    0.594573 0.895768 0.787211 0.214471
H2    H     H_    0.756443 0.422797 0.704328 0.175503
H3    H     H_    0.924382 0.556839 0.791146 0.168790
H4    H     H_    0.901638 0.041327 0.800895 0.184253
H5    H     H_    0.850583 0.179696 0.682171 0.141601
H6    H     H_    0.585471 0.257763 0.815884 0.149266
H7    H     H_    0.158773 0.492095 0.822024 0.130417
H8    H     H_    0.282245 0.444298 0.700540 0.197410
H9    H     H_    0.114994 0.768465 0.701815 0.181967
H10   H     H_    0.689979 0.444354 0.291913 0.108028
H11   H     H_    0.539469 0.755722 0.182218 0.113990
H12   H     H_    0.443637 0.206275 0.181622 0.177901
H13   H     H_    0.417146 0.327786 0.299629 0.135487
H14   H     H_    0.712685 0.230113 0.183640 0.200692
H15   H     H_    0.967288 0.901187 0.212797 0.214037
H16   H     H_    0.447179 0.784616 0.698748 0.204973
H17   H     H_    0.106342 0.876530 0.324545 0.156339
H18   H     H_    0.199116 0.587227 0.208232 0.119835
H19   H     H_    0.536266 0.875646 0.671796 0.214931
H20   H     H_    0.851256 0.741423 0.784230 0.131343
H21   H     H_    0.767416 0.450397 0.823058 0.148418
H22   H     H_    0.580105 0.563106 0.828191 0.190168
H23   H     H_    0.568780 0.524561 0.709304 0.123933
O1    O     O_R   0.507110 0.256280 0.580300 -0.449937
O2    O     O_R   0.524640 0.695370 0.425100 -0.489565
O3    O     O_R   0.735890 0.504390 0.415980 -0.497102
O4    O     O_R   0.690560 0.277820 0.422350 -0.492136
O5    O     O_3   0.499990 0.499990 0.499980 -0.319027
O6    O     O_R   0.089190 0.825870 0.932320 -0.444616
O7    O     O_R   0.819070 0.053960 0.931440 -0.504545
O8    O     O_R   0.607070 0.076440 0.916460 -0.480751
O9    O     O_R   0.647110 0.806550 0.917690 -0.457751
O10   O     O_R   0.837080 0.593860 0.915300 -0.534509
O11   O     O_R   0.064770 0.636080 0.932550 -0.555389
O12   O     O_R   0.280830 0.527190 0.577940 -0.475914
O13   O     O_R   0.068250 0.829200 0.092940 -0.515723
O14   O     O_R   0.799650 0.057040 0.080330 -0.488104
O15   O     O_R   0.586130 0.079760 0.077080 -0.508637
O16   O     O_R   0.627700 0.809630 0.066580 -0.502242
O17   O     O_R   0.816140 0.597180 0.075920 -0.419272
O18   O     O_R   0.045360 0.639170 0.081440 -0.471190
O19   O     O_3   0.833980 0.833750 0.001700 -0.288039
O20   O     O_R   0.261360 0.738990 0.584270 -0.503130
O21   O     O_R   0.532590 0.694780 0.574370 -0.515438
O22   O     O_R   0.744470 0.503750 0.577000 -0.447398
O23   O     O_R   0.698520 0.277230 0.571620 -0.532421
O24   O     O_R   0.498530 0.256920 0.419280 -0.524471
O25   O     O_R   0.272880 0.527780 0.428680 -0.465806
O26   O     O_R   0.252780 0.739630 0.423250 -0.533978
Cl1   Cl    Cl    0.967267 0.482885 0.659020 -0.542238
Cl2   Cl    Cl    0.550436 0.112487 0.709547 -0.619155
F1    F     F_    0.242958 0.743956 0.811035 -0.607244
Cl3   Cl    Cl    0.408733 0.870179 0.832873 -0.469935
F2    F     F_    0.806726 0.428583 0.165507 -0.599125
F3    F     F_    0.637324 0.772797 0.297350 -0.611937
F4    F     F_    0.766391 0.101292 0.294466 -0.644460
Cl4   Cl    Cl    0.055722 0.564223 0.327047 -0.513022
Cl5   Cl    Cl    0.821081 0.782637 0.645204 -0.567629

loop_
_geom_bond_atom_site_label_1
_geom_bond_atom_site_label_2
_ccdc_geom_bond_type
C19   H10   S    
Cr3   O4    S    
C7    C10   D    
C32   O14   A    
Cr3   O3    S    
C3    C30   S    
C12   O22   A    
C1    C11   S    
Cr4   O14   S    
C31   O11   A    
C29   O7    A    
C25   C28   D    
C26   C27   D    
C18   F2    S    
C8    C29   S    
C12   O21   A    
C2    H22   S    
C16   C19   D    
Cr6   O10   S    
C20   F4    S    
C1    O12   A    
C40   H3    S    
C18   C19   S    
C13   F1    S    
Cr4   O7    S    
C33   O16   A    
C26   H18   S    
C27   H15   S    
Cr1   O5    S    
C11   C15   D    
Cr1   O24   S    
C20   C24   D    
C3    C38   S    
C8    C9    D    
Cr5   O9    S    
C13   C14   D    
C4    C12   S    
C9    C10   S    
C8    H6    S    
C6    H23   S    
C36   O2    A    
C25   C34   S    
Cr3   O5    S    
C5    Cl5   S    
C40   H20   S    
C21   C22   D    
C39   H19   S    
C23   O1    A    
C2    C6    S    
C17   C33   S    
C10   H5    S    
C35   O13   A    
Cr6   O19   S    
C32   O15   A    
C21   C32   S    
Cr2   O5    S    
Cr2   O26   S    
C15   H8    S    
Cr5   O19   S    
C34   O26   A    
C21   H14   S    
C4    C6    S    
C2    H21   S    
C25   Cl4   S    
Cr3   O22   S    
Cr2   O21   S    
Cr4   O6    S    
Cr5   O16   S    
C33   O17   A    
C26   C35   S    
C31   O6    A    
Cr1   O25   S    
C4    C39   S    
Cr1   O12   S    
C17   C18   D    
C37   O24   A    
C38   H1    S    
C6    H2    S    
C30   O10   A    
C3    C40   S    
C22   C24   S    
Cr5   O15   S    
C5    Cl1   S    
C11   H9    S    
Cr6   O18   S    
C35   O18   A    
C39   H16   S    
C37   O4    A    
C1    O20   A    
C7    Cl2   S    
C23   O23   A    
C13   C31   S    
C9    H4    S    
C34   O25   A    
C38   Cl3   S    
C22   H12   S    
Cr4   O13   S    
Cr3   O23   S    
Cr2   O20   S    
C2    C3    S    
C16   C36   S    
Cr6   O11   S    
C20   C37   S    
C38   C39   S    
C24   H13   S    
C7    C23   S    
Cr2   O2    S    
C30   O9    A    
C28   H17   S    
C16   F3    S    
C4    C5    S    
C14   H7    S    
C29   O8    A    
C5    C40   S    
C27   C28   S    
C14   C15   S    
Cr5   O8    S    
Cr4   O19   S    
C36   O3    A    
C17   H11   S    
Cr1   O1    S    
Cr6   O17   S    
