data_mof_unit_52443.cif
_audit_creation_date              2012-10-26T19:10:47-0400
_audit_creation_method            fapswitch 2.2
_symmetry_space_group_name_H-M    P1
_symmetry_Int_Tables_number       1
_space_group_crystal_system       triclinic
_cell_length_a                    10.738995
_cell_length_b                    9.406962
_cell_length_c                    23.519948
_cell_angle_alpha                 89.81964
_cell_angle_beta                  90.093563
_cell_angle_gamma                 89.997085
_cell_volume                      2376.00119971

loop_
_atom_site_label
_atom_site_type_symbol
_atom_type_description
_atom_site_fract_x
_atom_site_fract_y
_atom_site_fract_z
_atom_type_partial_charge
C1    C     C_R   0.259887 0.500176 0.499887 0.631374
C2    C     C_R   0.613354 0.483403 0.119494 0.407581
C3    C     C_R   0.553542 0.608301 0.237114 -0.009102
C4    C     C_R   0.501907 0.500339 0.390934 0.635840
C5    C     C_R   0.555263 0.613549 0.296401 0.240520
C6    C     C_R   0.503545 0.500176 0.328275 0.046411
C7    C     C_R   0.452829 0.382886 0.299424 -0.136171
C8    C     C_R   0.452106 0.378620 0.240216 -0.043096
C9    C     C_R   0.502223 0.491426 0.208850 0.188788
C10   C     C_R   0.477948 0.369744 0.760748 -0.038629
C11   C     C_R   0.478813 0.370915 0.701489 -0.101810
C12   C     C_R   0.274271 0.493678 0.970560 -0.123440
C13   C     C_R   0.498445 0.498717 0.671658 0.051507
C14   C     C_R   0.516973 0.625209 0.702180 -0.101311
C15   C     C_R   0.516693 0.623564 0.761466 -0.040129
C16   C     C_R   0.739887 0.500171 0.499841 0.637974
C17   C     C_R   0.497190 0.495900 0.790815 0.243099
C18   C     C_3   0.072745 0.424301 0.554395 0.103512
C19   C     C_3   0.072429 0.419559 0.446517 0.099731
C20   C     C_3   0.927408 0.424158 0.554351 0.103234
C21   C     C_3   0.927101 0.419669 0.446476 0.105467
C22   C     C_3   0.071039 0.655386 0.498475 -0.224598
C23   C     C_R   0.275264 0.493024 0.029810 -0.123619
C24   C     C_3   0.121965 0.500513 0.499813 -0.009091
C25   C     C_3   0.877831 0.500500 0.499792 -0.013022
C26   C     C_3   0.928731 0.655378 0.498572 -0.225746
C27   C     C_3   0.626229 0.083792 0.490313 -0.106671
C28   C     C_3   0.626228 0.916429 0.490354 -0.106746
C29   C     C_3   0.457694 0.083407 0.556513 -0.105855
C30   C     C_3   0.457756 0.915847 0.556528 -0.105359
C31   C     C_3   0.416288 0.084090 0.456821 -0.102019
C32   C     C_3   0.416069 0.916597 0.456918 -0.101128
C33   C     C_R   0.499542 0.499734 0.609104 0.612180
C34   C     C_R   0.388490 0.491586 0.059813 0.032393
C35   C     C_R   0.609903 0.491874 0.879672 0.404138
C36   C     C_R   0.387522 0.494495 0.880398 0.404618
C37   C     C_R   0.386439 0.493484 0.940055 0.038364
C38   C     C_R   0.500682 0.492085 0.969701 -0.041342
C39   C     C_R   0.613366 0.490689 0.939314 -0.021548
C40   C     C_3   0.883090 0.629790 0.067549 0.045008
C41   C     C_3   0.950086 0.697688 0.016690 -0.302619
C42   C     C_3   0.020802 0.831351 0.034117 -0.450618
C43   C     C_R   0.502029 0.490988 0.029758 -0.069039
C44   C     C_R   0.616480 0.488842 0.059556 0.021320
C45   C     C_R   0.729569 0.491842 0.028398 0.263263
C46   C     C_R   0.726596 0.488496 0.968957 -0.102733
C47   C     C_R   0.390895 0.491534 0.119353 0.404561
Cl1   Cl    Cl    0.141722 0.496917 0.618020 -0.520097
Cl2   Cl    Cl    0.141297 0.486216 0.381761 -0.517699
Cl3   Cl    Cl    0.858603 0.496342 0.617996 -0.515715
Cl4   Cl    Cl    0.858204 0.486704 0.381718 -0.458803
Cl5   Cl    Cl    0.629161 0.760907 0.327957 -0.572287
Cu1   Cu    Cu3+1 0.499860 0.642410 0.500030 0.977412
Cu2   Cu    Cu3+1 0.499860 0.357590 0.500030 0.944321
H1    H     H_    0.185442 0.494009 0.948718 0.165567
H2    H     H_    0.104776 0.712418 0.459945 0.175047
H3    H     H_    0.895128 0.715696 0.536167 0.169429
H4    H     H_    0.894382 0.712806 0.460191 0.184526
H5    H     H_    0.692499 0.121300 0.523426 0.121271
H6    H     H_    0.692350 0.878583 0.523549 0.117733
H7    H     H_    0.187025 0.493086 0.052044 0.173621
H8    H     H_    0.661802 0.123645 0.448808 0.144986
H9    H     H_    0.662022 0.877090 0.448948 0.176707
H10   H     H_    0.519849 0.120225 0.591314 0.126419
H11   H     H_    0.520027 0.878760 0.591317 0.124714
H12   H     H_    0.463608 0.271998 0.679120 0.120341
H13   H     H_    0.319673 0.123174 0.463317 0.121418
H14   H     H_    0.319402 0.877889 0.463677 0.117731
H15   H     H_    0.445343 0.122156 0.414093 0.139815
H16   H     H_    0.444445 0.878631 0.414207 0.177590
H17   H     H_    0.362711 0.123343 0.566508 0.126879
H18   H     H_    0.362836 0.875686 0.566598 0.130892
H19   H     H_    0.814104 0.485676 0.946133 0.177693
H20   H     H_    0.593046 0.695054 0.212693 0.161110
H21   H     H_    0.412568 0.294662 0.322706 0.148493
H22   H     H_    0.412791 0.287479 0.218656 0.158984
H23   H     H_    0.532594 0.725081 0.680348 0.121232
H24   H     H_    0.462900 0.270815 0.783375 0.129699
H25   H     H_    0.949354 0.622913 0.103790 0.209665
H26   H     H_    0.805036 0.699303 0.081912 0.136969
H27   H     H_    0.016647 0.620379 0.998257 0.175724
H28   H     H_    0.880988 0.726760 0.983443 0.165789
H29   H     H_    0.955880 0.910454 0.052711 0.174414
H30   H     H_    0.065975 0.879200 0.996180 0.172309
H31   H     H_    0.094199 0.804626 0.065736 0.172339
H32   H     H_    0.531709 0.721329 0.784670 0.128427
H33   H     H_    0.104171 0.311518 0.553389 0.096005
H34   H     H_    0.103653 0.306879 0.449443 0.093948
H35   H     H_    0.896164 0.311320 0.553242 0.094677
H36   H     H_    0.895737 0.307031 0.449304 0.092980
H37   H     H_    0.105251 0.716123 0.535906 0.172627
N1    N     N_R   0.498173 0.494098 0.851663 -0.401623
N2    N     N_R   0.502032 0.487543 0.147829 -0.409447
N3    N     N_3   0.500250 0.143650 0.501250 -0.241702
N4    N     N_3   0.500250 0.856350 0.501250 -0.246520
O1    O     O_R   0.317570 0.620260 0.500030 -0.504005
O2    O     O_2   0.279137 0.496410 0.851288 -0.461549
O3    O     O_2   0.283035 0.496771 0.148656 -0.468074
O4    O     O_2   0.720081 0.472353 0.149494 -0.420381
O5    O     O_3   0.844501 0.489228 0.055078 -0.519842
O6    O     O_R   0.317570 0.379740 0.500030 -0.517083
O7    O     O_R   0.499840 0.620290 0.417900 -0.456432
O8    O     O_R   0.499840 0.379710 0.417900 -0.513853
O9    O     O_R   0.682190 0.620260 0.500010 -0.496578
O10   O     O_R   0.682190 0.379740 0.500010 -0.517318
O11   O     O_R   0.499920 0.620230 0.582140 -0.507489
O12   O     O_R   0.499920 0.379770 0.582140 -0.506570
O13   O     O_2   0.717135 0.490690 0.849831 -0.461877

loop_
_geom_bond_atom_site_label_1
_geom_bond_atom_site_label_2
_ccdc_geom_bond_type
C7    H21   S    
C9    N2    S    
Cu1   N4    S    
C41   C42   S    
Cu2   O6    S    
C33   O12   A    
C10   H24   S    
C7    C8    A    
Cu1   Cu2   S    
C31   H13   S    
C12   C23   A    
C29   C30   S    
C47   O3    S    
Cu2   O12   S    
C28   N4    S    
C18   C24   S    
C36   C37   A    
C19   C21   S    
C5    C6    A    
C20   C25   S    
C10   C17   A    
C4    O8    A    
C8    H22   S    
C30   N4    S    
C14   H23   S    
C12   C37   A    
C3    H20   S    
C20   Cl3   S    
C35   O13   S    
Cu1   O11   S    
C16   O9    A    
C2    C44   A    
C8    C9    A    
C4    O7    A    
C22   H37   S    
C40   H26   S    
C5    Cl5   S    
C36   O2    S    
C11   H12   S    
C32   H14   S    
C35   N1    A    
C36   N1    A    
C29   H10   S    
C13   C14   A    
Cu1   O1    S    
C17   N1    S    
C21   H36   S    
C28   H6    S    
C33   O11   A    
C30   H11   S    
Cu2   O8    S    
C42   H30   S    
C4    C6    S    
C19   H34   S    
C32   H16   S    
C25   C26   S    
C45   C46   A    
C35   C39   A    
C43   C44   A    
C13   C33   S    
C37   C38   A    
C3    C9    A    
C27   H8    S    
C19   Cl2   S    
C31   C32   S    
C31   H15   S    
Cu1   O7    S    
C23   C34   A    
C41   H27   S    
C47   N2    A    
C40   H25   S    
C42   H31   S    
C26   H4    S    
C16   O10   A    
C15   H32   S    
C40   C41   S    
C2    O4    S    
C39   C46   A    
C29   N3    S    
C22   C24   S    
C1    O6    A    
C21   Cl4   S    
C44   C45   A    
C16   C25   S    
C15   C17   A    
C21   C25   S    
Cu2   O10   S    
C2    N2    A    
C42   H29   S    
C3    C5    A    
C45   O5    S    
C18   Cl1   S    
C40   O5    S    
C30   H18   S    
C6    C7    A    
C31   N3    S    
C20   H35   S    
C18   H33   S    
C22   H2    S    
C19   C24   S    
C38   C43   A    
C27   H5    S    
C11   C13   A    
C38   C39   A    
C1    O1    A    
C41   H28   S    
C18   C20   S    
C26   H3    S    
Cu2   N3    S    
C12   H1    S    
C10   C11   A    
C28   H9    S    
C23   H7    S    
C32   N4    S    
C1    C24   S    
C22   C26   S    
C27   C28   S    
C14   C15   A    
C27   N3    S    
C34   C47   A    
Cu1   O9    S    
C34   C43   A    
C46   H19   S    
C29   H17   S    
