data_mof_unit_9615.cif
_audit_creation_date              2012-12-10T20:33:29-0500
_audit_creation_method            fapswitch 2.2
_symmetry_space_group_name_H-M    P1
_symmetry_Int_Tables_number       1
_space_group_crystal_system       triclinic
_cell_length_a                    14.126402
_cell_length_b                    10.65884
_cell_length_c                    9.939782
_cell_angle_alpha                 90.176006
_cell_angle_beta                  91.396853
_cell_angle_gamma                 90.444378
_cell_volume                      1496.14578115

loop_
_atom_site_label
_atom_site_type_symbol
_atom_type_description
_atom_site_fract_x
_atom_site_fract_y
_atom_site_fract_z
_atom_type_partial_charge
C1    C     C_R   0.505998 0.260678 0.500432 0.915997
C2    C     C_1   0.772204 0.499298 0.503137 -0.096245
C3    C     C_R   0.490721 0.065063 0.618022 0.011956
C4    C     C_R   0.520975 0.129320 0.505195 -0.134717
C5    C     C_R   0.568396 0.063668 0.403984 0.283895
C6    C     C_R   0.562055 0.933317 0.402328 -0.237395
C7    C     C_R   0.512111 0.871701 0.503415 -0.096190
C8    C     C_R   0.484634 0.938055 0.616310 0.030363
C9    C     C_3   0.397234 0.937526 0.699593 0.257085
C10   C     C_3   0.405481 0.080059 0.702265 -0.493376
C11   C     C_R   0.417110 0.497831 0.066474 0.079392
C12   C     C_R   0.329346 0.498580 0.498561 0.938576
C13   C     C_R   0.580810 0.518258 0.077318 -0.105787
C14   C     C_R   0.581452 0.525368 0.934917 0.451916
C15   C     C_R   0.417310 0.500300 0.925728 0.066044
C16   C     C_3   0.334135 0.415587 0.909716 -0.479577
C17   C     C_3   0.333025 0.409447 0.063523 0.294074
C18   C     C_R   0.500948 0.739818 0.500360 0.961808
C19   C     C_R   0.670672 0.499881 0.501200 0.884672
C20   C     C_1   0.227803 0.497235 0.495868 -0.094503
C21   C     C_1   0.142500 0.496911 0.496118 0.056191
C22   C     C_1   0.042629 0.497225 0.498216 0.069594
C23   C     C_1   0.957369 0.497810 0.500468 0.069289
C24   C     C_1   0.857501 0.498645 0.502626 0.057689
H1    H     H_    0.352237 0.326874 0.857577 0.233232
H2    H     H_    0.268786 0.452487 0.105966 0.099842
H3    H     H_    0.594333 0.881095 0.321996 0.194373
H4    H     H_    0.408943 0.894029 0.800093 0.127657
H5    H     H_    0.347469 0.130963 0.648645 0.218261
H6    H     H_    0.424422 0.117690 0.803873 0.221336
H7    H     H_    0.645269 0.531431 0.136418 0.199933
H8    H     H_    0.271842 0.465062 0.865514 0.198384
N1    N     N_R   0.499420 0.499140 0.142800 -0.102391
N2    N     N_R   0.499420 0.499180 0.857150 -0.140207
O1    O     O_R   0.500010 0.316790 0.614690 -0.626525
O2    O     O_R   0.500000 0.316760 0.385350 -0.508877
O3    O     O_R   0.373720 0.500020 0.614700 -0.595530
O4    O     O_R   0.373710 0.499980 0.385350 -0.589418
O5    O     O_R   0.500000 0.683240 0.614650 -0.569690
O6    O     O_R   0.499990 0.683210 0.385310 -0.622444
O7    O     O_R   0.626290 0.500020 0.614650 -0.520634
O8    O     O_R   0.626280 0.499980 0.385300 -0.619716
Zn1   Zn    Zn3+2 0.500010 0.500020 0.653130 1.049078
Zn2   Zn    Zn3+2 0.499990 0.499980 0.346870 1.048340
Br1   Br    Br    0.645251 0.144533 0.272580 -0.409556
S1    S     S_3+6 0.353547 0.252963 0.121770 0.048806
O9    O     O_2   0.334456 0.244651 0.269398 -0.296894
O10   O     O_2   0.286842 0.165244 0.047066 -0.279368
O11   O     O_3   0.465612 0.211581 0.091983 -0.524684
H9    H     H_    0.464498 0.118668 0.089456 0.386955
S2    S     S_3+6 0.291574 0.883700 0.613060 0.050081
O12   O     O_2   0.278585 0.746465 0.640660 -0.290540
O13   O     O_2   0.207518 0.952963 0.664696 -0.233860
O14   O     O_3   0.298469 0.905919 0.446053 -0.515048
H10   H     H_    0.304795 0.997883 0.434823 0.375547
S3    S     S_3+6 0.689491 0.584414 0.871702 0.053455
O15   O     O_2   0.748038 0.643195 0.983892 -0.295969
O16   O     O_2   0.745211 0.478089 0.814496 -0.283901
O17   O     O_3   0.669480 0.696225 0.755729 -0.545132
H11   H     H_    0.732932 0.719381 0.723023 0.374356

loop_
_geom_bond_atom_site_label_1
_geom_bond_atom_site_label_2
_ccdc_geom_bond_type
C14   N2    A    
O14   H10   S    
C14   S3    S    
C18   O5    A    
S3    O17   S    
O17   H11   S    
O4    Zn2   S    
C6    C7    A    
C16   H8    S    
S2    O14   S    
O1    Zn1   S    
C9    C10   S    
C10   H6    S    
C15   N2    A    
C6    H3    S    
S1    O11   S    
C19   O8    A    
O6    Zn2   S    
C23   C24   S    
C7    C18   S    
C1    C4    S    
C8    C9    S    
C7    C8    A    
C3    C10   S    
C5    Br1   S    
C13   C14   A    
C17   S1    S    
C13   N1    A    
O7    Zn1   S    
C10   H5    S    
C12   C20   S    
O8    Zn2   S    
C17   H2    S    
C21   C22   S    
S3    O16   D    
C3    C8    A    
C1    O2    A    
C2    C24   T    
C5    C6    A    
S1    O10   D    
O3    Zn1   S    
O2    Zn2   S    
S3    O15   D    
C15   C16   S    
C12   O4    A    
C19   O7    A    
C11   N1    A    
S2    O12   D    
C20   C21   T    
C1    O1    A    
O11   H9    S    
C12   O3    A    
C16   H1    S    
C18   O6    A    
C22   C23   T    
C16   C17   S    
O5    Zn1   S    
C2    C19   S    
S1    O9    D    
N1    Zn2   S    
C11   C15   A    
C13   H7    S    
C11   C17   S    
N2    Zn1   S    
C3    C4    A    
C9    H4    S    
C4    C5    A    
S2    O13   D    
C9    S2    S    
