data_mof_unit_40483.cif
_audit_creation_date              2012-12-11T14:58:32-0500
_audit_creation_method            fapswitch 2.2
_symmetry_space_group_name_H-M    P1
_symmetry_Int_Tables_number       1
_space_group_crystal_system       triclinic
_cell_length_a                    11.088995
_cell_length_b                    11.005665
_cell_length_c                    18.742147
_cell_angle_alpha                 90.044729
_cell_angle_beta                  90.770048
_cell_angle_gamma                 59.207461
_cell_volume                      1964.64568176

loop_
_atom_site_label
_atom_site_type_symbol
_atom_type_description
_atom_site_fract_x
_atom_site_fract_y
_atom_site_fract_z
_atom_type_partial_charge
C1    C     C_R   0.357535 0.774169 0.397800 0.598096
C2    C     C_R   0.618169 0.161735 0.151878 -0.102296
C3    C     C_R   0.360202 0.344485 0.158393 0.048900
C4    C     C_R   0.498120 0.273597 0.267548 0.319988
C5    C     C_R   0.491562 0.264363 0.192912 0.049208
C6    C     C_R   0.079488 0.680370 0.336949 0.281803
C7    C     C_R   0.957576 0.758577 0.376774 0.218216
C8    C     C_R   0.691808 0.017487 0.170802 0.333863
C9    C     C_R   0.795351 0.917680 0.126398 0.457502
C10   C     C_R   0.245848 0.449773 0.195576 -0.033970
C11   C     C_R   0.244928 0.452601 0.269967 0.021744
C12   C     C_R   0.389108 0.358225 0.385536 0.622423
C13   C     C_R   0.838142 0.756147 0.353837 0.372723
C14   C     C_R   0.851916 0.666319 0.298266 0.514771
C15   C     C_R   0.985152 0.553587 0.280525 0.280677
C16   C     C_R   0.105934 0.553343 0.304010 -0.085267
C17   C     C_R   0.372465 0.355524 0.307245 0.117755
C18   C     C_R   0.914360 0.220044 0.305386 0.157782
C19   C     C_R   0.938839 0.202206 0.231438 0.178869
C20   C     C_R   0.864035 0.321023 0.184649 0.006159
C21   C     C_R   0.753160 0.448053 0.209723 0.310151
C22   C     C_R   0.734380 0.463067 0.282549 0.428079
C23   C     C_R   0.778054 0.377936 0.403678 0.621702
C24   C     C_R   0.818066 0.353572 0.330033 0.011940
C25   C     C_R   0.377354 0.707082 0.273931 0.459544
C26   C     C_R   0.368976 0.732189 0.201728 0.419217
C27   C     C_R   0.352457 0.858451 0.177845 -0.011120
C28   C     C_R   0.351128 0.957350 0.226132 -0.039109
C29   C     C_R   0.350404 0.936428 0.299665 0.240963
C30   C     C_R   0.355745 0.811972 0.323330 0.056961
C31   C     C_R   0.296868 0.230943 0.682025 0.375429
C32   C     C_R   0.272347 0.212059 0.752471 0.330311
C33   C     C_R   0.282922 0.294449 0.806707 -0.013421
C34   C     C_R   0.346664 0.765697 0.605513 0.608190
C35   C     C_R   0.317521 0.398358 0.790293 0.263854
C36   C     C_R   0.339105 0.417664 0.719535 0.377996
C37   C     C_R   0.330221 0.333692 0.665830 -0.013487
C38   C     C_R   0.906154 0.395335 0.706621 0.405609
C39   C     C_R   0.934327 0.383786 0.778854 0.340654
C40   C     C_R   0.918556 0.286872 0.820443 -0.041343
C41   C     C_R   0.882793 0.194831 0.787238 0.385832
C42   C     C_R   0.854197 0.205831 0.714152 0.201519
C43   C     C_R   0.853156 0.316335 0.674717 -0.076358
C44   C     C_R   0.204456 0.837851 0.713337 -0.103696
C45   C     C_R   0.369368 0.349023 0.594864 0.640073
C46   C     C_R   0.195550 0.845384 0.786551 -0.093712
C47   C     C_R   0.308146 0.830554 0.828129 0.077281
C48   C     C_R   0.436778 0.793330 0.796326 0.310754
C49   C     C_R   0.445645 0.785358 0.721844 0.432055
C50   C     C_R   0.328898 0.807892 0.680121 0.087386
C51   C     C_R   0.914502 0.312149 0.112622 0.616220
C52   C     C_R   0.329350 0.297058 0.091007 0.594722
C53   C     C_R   0.307704 0.901643 0.105425 0.622405
C54   C     C_R   0.946531 0.281397 0.897117 0.604418
C55   C     C_R   0.271541 0.258718 0.879495 0.574730
C56   C     C_R   0.771503 0.371407 0.608156 0.585673
C57   C     C_R   0.277401 0.890710 0.899281 0.606870
C58   C     C_R   0.819363 0.957818 0.059850 0.158213
C59   C     C_R   0.738058 0.101839 0.038260 0.209800
C60   C     C_R   0.649385 0.203638 0.087156 0.359812
Cr1   Cr    Cr6+3 0.601770 0.606860 0.505860 1.214706
Cr2   Cr    Cr6+3 0.291380 0.601660 0.495070 1.143154
Cr3   Cr    Cr6+3 0.606880 0.291510 0.499120 1.160804
Cr4   Cr    Cr6+3 0.062440 0.063090 0.008210 1.109332
Cr5   Cr    Cr6+3 0.062880 0.375170 0.998920 1.194129
Cr6   Cr    Cr6+3 0.374700 0.061720 0.992470 1.123936
H1    H     H_    0.338080 0.056246 0.206704 0.170294
H2    H     H_    0.114548 0.851535 0.682882 0.184864
H3    H     H_    0.097155 0.870408 0.810235 0.227325
H4    H     H_    0.149993 0.521606 0.166580 0.232816
O1    O     O_R   0.748800 0.497470 0.428000 -0.480437
O2    O     O_R   0.300070 0.471040 0.567100 -0.472196
O3    O     O_R   0.491670 0.258900 0.574910 -0.465629
O4    O     O_R   0.718780 0.304180 0.577850 -0.510232
O5    O     O_3   0.500010 0.500010 0.500020 -0.313916
O6    O     O_R   0.186690 0.923650 0.086970 -0.444898
O7    O     O_R   0.957250 0.194250 0.084630 -0.474453
O8    O     O_R   0.934970 0.407490 0.085330 -0.428526
O9    O     O_R   0.203780 0.365190 0.067090 -0.480940
O10   O     O_R   0.417600 0.174890 0.067840 -0.526820
O11   O     O_R   0.375320 0.946260 0.070860 -0.494205
O12   O     O_R   0.476420 0.724060 0.429470 -0.442285
O13   O     O_R   0.160600 0.919630 0.926660 -0.527223
O14   O     O_R   0.933060 0.190520 0.936020 -0.414785
O15   O     O_R   0.908880 0.403460 0.925020 -0.427092
O16   O     O_R   0.179600 0.361450 0.918490 -0.469460
O17   O     O_R   0.391510 0.170860 0.907530 -0.476750
O18   O     O_R   0.351130 0.942530 0.922260 -0.443568
O19   O     O_3   0.166667 0.166667 0.999870 -0.366758
O20   O     O_R   0.264580 0.744340 0.416750 -0.415085
O21   O     O_R   0.309380 0.472470 0.418200 -0.510505
O22   O     O_R   0.501710 0.260430 0.414300 -0.413994
O23   O     O_R   0.728090 0.305600 0.428960 -0.457749
O24   O     O_R   0.738760 0.495930 0.588610 -0.398693
O25   O     O_R   0.467110 0.722640 0.578360 -0.427717
O26   O     O_R   0.254530 0.742800 0.577360 -0.509702
O27   O     O_3   0.626587 0.205091 0.303077 -0.597708
H5    H     H_    0.702875 0.184017 0.269763 0.308317
F1    F     F_    0.708123 0.855689 0.375638 -0.531344
F2    F     F_    0.741480 0.705749 0.253528 -0.432485
F3    F     F_    0.997187 0.458661 0.231365 -0.639794
O28   O     O_3   0.981815 0.110826 0.353983 -0.655806
H6    H     H_    0.972255 0.031673 0.335879 0.385471
O29   O     O_3   0.036874 0.073345 0.203468 -0.689060
H7    H     H_    0.084787 0.002381 0.241642 0.334628
O30   O     O_3   0.667762 0.561596 0.165765 -0.532308
H8    H     H_    0.672963 0.528187 0.116220 0.362546
F4    F     F_    0.636823 0.588538 0.308743 -0.554744
F5    F     F_    0.408621 0.578068 0.296919 -0.615698
F6    F     F_    0.374881 0.634679 0.155195 -0.576362
F7    F     F_    0.868863 0.779661 0.146515 -0.531031
O31   O     O_3   0.339272 0.040618 0.344940 -0.620446
H9    H     H_    0.335954 0.013581 0.394896 0.345864
F8    F     F_    0.289752 0.148705 0.630058 -0.587755
F9    F     F_    0.239121 0.112614 0.768180 -0.677471
O32   O     O_3   0.337008 0.478781 0.840753 -0.601494
H10   H     H_    0.342136 0.440826 0.889131 0.366400
F10   F     F_    0.379982 0.511474 0.703673 -0.614553
F11   F     F_    0.922717 0.491161 0.668918 -0.536564
F12   F     F_    0.972913 0.471899 0.808239 -0.570374
F13   F     F_    0.871486 0.096519 0.825355 -0.582892
O33   O     O_3   0.822601 0.110948 0.684178 -0.593397
H11   H     H_    0.865139 0.086887 0.636281 0.332824
O34   O     O_3   0.949220 0.860479 0.422775 -0.630750
H12   H     H_    0.855948 0.908304 0.445493 0.365497
O35   O     O_3   0.550156 0.768213 0.839062 -0.629509
H13   H     H_    0.633079 0.741187 0.809212 0.402466
F14   F     F_    0.568566 0.753198 0.690816 -0.571062
O36   O     O_3   0.920751 0.854038 0.017593 -0.621449
H14   H     H_    0.949973 0.899156 0.981557 0.352629
O37   O     O_3   0.731433 0.145255 0.968742 -0.566533
H15   H     H_    0.754268 0.064639 0.936916 0.366356
F15   F     F_    0.577673 0.341975 0.067000 -0.562873
O38   O     O_3   0.122821 0.761987 0.304326 -0.679168
H16   H     H_    0.128235 0.742546 0.252349 0.334842
F16   F     F_    0.658369 0.973083 0.230711 -0.508011

loop_
_geom_bond_atom_site_label_1
_geom_bond_atom_site_label_2
_ccdc_geom_bond_type
C33   C55   S    
C9    F7    S    
O35   H13   S    
Cr5   O9    S    
Cr2   O26   S    
C8    F16   S    
C41   C42   A    
C12   O21   A    
C35   C36   A    
C7    O34   S    
C54   O14   A    
O27   H5    S    
Cr5   O16   S    
C22   F4    S    
Cr1   O5    S    
Cr5   O19   S    
C59   O37   S    
C26   C27   A    
C1    O20   A    
C18   C24   A    
C45   O3    A    
C36   C37   A    
C34   O26   A    
C18   C19   A    
C20   C51   S    
Cr1   O12   S    
Cr6   O18   S    
C38   C39   A    
C2    C60   A    
O30   H8    S    
C58   O36   S    
C39   F12   S    
O32   H10   S    
C53   O11   A    
C9    C58   A    
C18   O28   S    
C41   F13   S    
O31   H9    S    
C46   H3    S    
C29   O31   S    
Cr4   O14   S    
C31   C32   A    
C8    C9    A    
Cr3   O22   S    
C23   C24   S    
C57   O13   A    
C52   O9    A    
C36   F10   S    
C26   F6    S    
C31   F8    S    
C21   O30   S    
C25   F5    S    
Cr1   O1    S    
C59   C60   A    
C13   C14   A    
C45   O2    A    
Cr4   O19   S    
O29   H7    S    
C44   C46   A    
Cr6   O19   S    
C34   C50   S    
C56   O4    A    
C23   O1    A    
C28   H1    S    
C34   O25   A    
C13   F1    S    
Cr6   O17   S    
Cr1   O24   S    
Cr3   O3    S    
C58   C59   A    
C48   O35   S    
C23   O23   A    
C12   C17   S    
C56   O24   A    
C51   O7    A    
Cr4   O13   S    
C29   C30   A    
C47   C57   S    
C11   C16   S    
C47   C48   A    
Cr2   O21   S    
C27   C53   S    
Cr4   O6    S    
Cr2   O2    S    
C35   O32   S    
C15   F3    S    
Cr5   O15   S    
O38   H16   S    
C4    C17   A    
C10   H4    S    
C40   C41   A    
C40   C54   S    
C22   C24   A    
Cr2   O5    S    
C44   H2    S    
C53   O6    A    
C42   C43   A    
C38   F11   S    
C37   C45   S    
O37   H15   S    
C39   C40   A    
C42   O33   S    
O36   H14   S    
C44   C50   A    
C25   C30   A    
C49   F14   S    
C46   C47   A    
C28   C29   A    
Cr5   O8    S    
C12   O22   A    
C2    C8    A    
C4    C5    A    
C3    C5    A    
C19   O29   S    
C11   C17   A    
C54   O15   A    
C3    C52   S    
Cr1   O25   S    
C14   F2    S    
C6    C7    A    
Cr3   O4    S    
Cr6   O10   S    
Cr3   O23   S    
C57   O18   A    
C21   C22   A    
C19   C20   A    
C25   C26   A    
C51   O8    A    
C38   C43   A    
C6    O38   S    
C3    C10   A    
C52   O10   A    
C32   C33   A    
Cr6   O11   S    
C1    O12   A    
Cr3   O5    S    
C55   O16   A    
C48   C49   A    
Cr2   O20   S    
C1    C30   S    
C33   C35   A    
C32   F9    S    
C55   O17   A    
O28   H6    S    
C10   C11   A    
C6    C16   A    
C2    C5    S    
C31   C37   A    
C43   C56   S    
C7    C13   A    
C20   C21   A    
C49   C50   A    
C27   C28   A    
Cr4   O7    S    
C14   C15   A    
O33   H11   S    
C4    O27   S    
C60   F15   S    
C15   C16   A    
O34   H12   S    
