data_mof_unit_56778.cif
_audit_creation_date              2012-12-10T16:38:09-0500
_audit_creation_method            fapswitch 2.2
_symmetry_space_group_name_H-M    P1
_symmetry_Int_Tables_number       1
_space_group_crystal_system       triclinic
_cell_length_a                    28.246722
_cell_length_b                    18.438346
_cell_length_c                    16.718877
_cell_angle_alpha                 90.016133
_cell_angle_beta                  61.078265
_cell_angle_gamma                 90.021766
_cell_volume                      7621.57366307

loop_
_atom_site_label
_atom_site_type_symbol
_atom_type_description
_atom_site_fract_x
_atom_site_fract_y
_atom_site_fract_z
_atom_type_partial_charge
C1    C     C_R   0.699786 0.263346 0.677665 0.837654
C2    C     C_R   0.092086 0.503771 0.522567 0.017746
C3    C     C_R   0.199761 0.201317 0.898084 0.043404
C4    C     C_R   0.613352 0.325886 0.054111 -0.188577
C5    C     C_R   0.334266 0.590729 0.015959 -0.171420
C6    C     C_R   0.386814 0.325654 0.945778 -0.183847
C7    C     C_R   0.665768 0.590632 0.983886 -0.171301
C8    C     C_R   0.113352 0.825886 0.054111 -0.188577
C9    C     C_R   0.834266 0.090729 0.015959 -0.171422
C10   C     C_R   0.886814 0.825654 0.945778 -0.183847
C11   C     C_R   0.165768 0.090633 0.983886 -0.171301
C12   C     C_R   0.642133 0.311308 0.100459 0.081153
C13   C     C_R   0.407527 0.003747 0.479420 -0.001656
C14   C     C_R   0.301657 0.599571 0.974957 0.081939
C15   C     C_R   0.358060 0.311045 0.899380 0.082683
C16   C     C_R   0.698382 0.599456 0.024885 0.081983
C17   C     C_R   0.142132 0.811308 0.100459 0.081153
C18   C     C_R   0.801657 0.099571 0.974957 0.081941
C19   C     C_R   0.858060 0.811046 0.899380 0.082683
C20   C     C_R   0.198382 0.099456 0.024885 0.081983
C21   C     C_R   0.729483 0.171951 0.804645 -0.017035
C22   C     C_R   0.264476 0.811537 0.190767 -0.014538
C23   C     C_R   0.270475 0.171914 0.195330 -0.017076
C24   C     C_R   0.592086 0.003771 0.522567 0.017746
C25   C     C_R   0.735680 0.811443 0.809146 -0.013818
C26   C     C_R   0.229483 0.671951 0.804644 -0.017035
C27   C     C_R   0.764476 0.311537 0.190767 -0.014538
C28   C     C_R   0.770475 0.671913 0.195330 -0.017076
C29   C     C_R   0.235680 0.311443 0.809146 -0.013816
C30   C     C_R   0.758307 0.154692 0.851232 -0.220352
C31   C     C_R   0.230641 0.819964 0.151524 -0.327941
C32   C     C_R   0.241679 0.154625 0.148688 -0.220151
C33   C     C_R   0.769565 0.819803 0.848310 -0.328964
C34   C     C_R   0.258308 0.654692 0.851232 -0.220353
C35   C     C_R   0.107355 0.379045 0.468023 0.115399
C36   C     C_R   0.730641 0.319964 0.151524 -0.327942
C37   C     C_R   0.741679 0.654624 0.148687 -0.220151
C38   C     C_R   0.269565 0.319803 0.848310 -0.328965
C39   C     C_R   0.079909 0.090861 0.928036 0.949574
C40   C     C_R   0.927567 0.897298 0.063973 0.888895
C41   C     C_R   0.920087 0.090854 0.071968 0.949364
C42   C     C_R   0.072460 0.897327 0.935992 0.889094
C43   C     C_R   0.579909 0.590861 0.928036 0.949574
C44   C     C_R   0.427568 0.397298 0.063973 0.888895
C45   C     C_R   0.420087 0.590854 0.071968 0.949364
C46   C     C_R   0.924077 0.630706 0.434651 0.087654
C47   C     C_R   0.572460 0.397327 0.935992 0.889094
C48   C     C_R   0.537636 0.135398 0.535369 0.002689
C49   C     C_R   0.446989 0.874054 0.512756 0.074795
C50   C     C_R   0.460857 0.135892 0.470139 -0.046838
C51   C     C_R   0.553249 0.874270 0.487047 0.074506
C52   C     C_R   0.037636 0.635398 0.535369 0.002689
C53   C     C_R   0.946989 0.374054 0.512756 0.074795
C54   C     C_R   0.960857 0.635892 0.470139 -0.046838
C55   C     C_R   0.053249 0.374270 0.487047 0.074505
C56   C     C_R   0.516444 0.201908 0.522982 0.116546
C57   C     C_R   0.892853 0.378540 0.531865 0.118180
C58   C     C_R   0.472993 0.807512 0.508488 0.053311
C59   C     C_R   0.480810 0.202298 0.486057 0.095520
C60   C     C_R   0.527574 0.807645 0.490161 0.054279
C61   C     C_R   0.016444 0.701908 0.522982 0.116546
C62   C     C_R   0.972992 0.307512 0.508488 0.053311
C63   C     C_R   0.980811 0.702298 0.486057 0.095520
C64   C     C_R   0.027574 0.307645 0.490161 0.054280
C65   C     C_R   0.478335 0.070750 0.491083 0.000402
C66   C     C_R   0.524708 0.939186 0.500239 -0.033079
C67   C     C_R   0.520778 0.070621 0.512565 -0.012789
C68   C     C_R   0.074759 0.630510 0.569812 0.091904
C69   C     C_R   0.475192 0.939140 0.500762 -0.031518
C70   C     C_R   0.978335 0.570750 0.491083 0.000402
C71   C     C_R   0.024708 0.439186 0.500239 -0.033079
C72   C     C_R   0.020778 0.570621 0.512566 -0.012789
C73   C     C_R   0.975192 0.439140 0.500762 -0.031518
C74   C     C_R   0.953660 0.504713 0.490445 -0.003075
C75   C     C_R   0.045892 0.504692 0.511751 -0.006828
C76   C     C_R   0.453660 0.004713 0.490445 -0.003075
C77   C     C_R   0.545892 0.004692 0.511751 -0.006828
C78   C     C_R   0.877156 0.439222 0.496837 -0.008718
C79   C     C_R   0.607355 0.879045 0.468023 0.115399
C80   C     C_R   0.108158 0.567331 0.549547 0.037315
C81   C     C_R   0.122783 0.439455 0.503923 -0.007445
C82   C     C_R   0.891275 0.567422 0.453223 0.078924
C83   C     C_R   0.377156 0.939222 0.496837 -0.008718
C84   C     C_R   0.608158 0.067331 0.549547 0.037315
C85   C     C_R   0.622783 0.939455 0.503923 -0.007445
C86   C     C_R   0.391275 0.067422 0.453222 0.078924
C87   C     C_R   0.833268 0.438021 0.477171 -0.119155
C88   C     C_R   0.157951 0.565556 0.552263 -0.134309
C89   C     C_R   0.166747 0.438136 0.523286 -0.119250
C90   C     C_R   0.424077 0.130706 0.434651 0.087654
C91   C     C_R   0.841912 0.565524 0.448997 -0.106719
C92   C     C_R   0.333268 0.938021 0.477171 -0.119155
C93   C     C_R   0.657951 0.065556 0.552263 -0.134308
C94   C     C_R   0.666747 0.938136 0.523286 -0.119251
C95   C     C_R   0.341912 0.065524 0.448997 -0.106719
C96   C     C_R   0.817136 0.500557 0.452263 -0.267027
C97   C     C_R   0.182937 0.500616 0.548289 -0.248161
C98   C     C_R   0.317136 0.000557 0.452263 -0.267028
C99   C     C_R   0.682937 0.000616 0.548289 -0.248161
C100  C     C_2   0.729732 0.117800 0.738461 0.482125
C101  C     C_R   0.392852 0.878540 0.531865 0.118180
C102  C     C_2   0.270500 0.875336 0.239423 0.449285
C103  C     C_2   0.270142 0.117799 0.261581 0.480853
C104  C     C_2   0.729682 0.875276 0.760557 0.448811
C105  C     C_2   0.229733 0.617801 0.738460 0.482125
C106  C     C_2   0.770501 0.375336 0.239422 0.449281
C107  C     C_2   0.770142 0.617799 0.261581 0.480852
C108  C     C_2   0.229682 0.375276 0.760557 0.448807
C109  C     C_R   0.299727 0.735555 0.322369 0.961605
C110  C     C_R   0.574759 0.130510 0.569812 0.091904
C111  C     C_R   0.705818 0.240767 0.970257 0.004455
C112  C     C_R   0.267443 0.712150 0.059461 0.011059
C113  C     C_R   0.294276 0.240615 0.029622 0.005735
C114  C     C_R   0.732663 0.712024 0.940395 0.011788
C115  C     C_R   0.205818 0.740767 0.970257 0.004455
C116  C     C_R   0.767443 0.212149 0.059461 0.011058
C117  C     C_R   0.794276 0.740615 0.029622 0.005735
C118  C     C_R   0.232663 0.212024 0.940395 0.011789
C119  C     C_R   0.746033 0.186246 0.935952 0.011037
C120  C     C_R   0.300210 0.263350 0.322324 0.847400
C121  C     C_R   0.228879 0.768457 0.090644 0.060293
C122  C     C_R   0.254020 0.186129 0.063931 0.011333
C123  C     C_R   0.771280 0.768289 0.909189 0.060429
C124  C     C_R   0.246033 0.686246 0.935952 0.011037
C125  C     C_R   0.728879 0.268457 0.090644 0.060293
C126  C     C_R   0.754020 0.686129 0.063931 0.011333
C127  C     C_R   0.271280 0.268289 0.909189 0.060429
C128  C     C_R   0.772101 0.165348 0.988125 0.014523
C129  C     C_R   0.192585 0.774998 0.054494 0.021932
C130  C     C_R   0.227967 0.165225 0.011730 0.014649
C131  C     C_R   0.700274 0.735559 0.677639 0.959623
C132  C     C_R   0.807571 0.774796 0.945345 0.020716
C133  C     C_R   0.272101 0.665348 0.988125 0.014521
C134  C     C_R   0.692586 0.274998 0.054494 0.021932
C135  C     C_R   0.727967 0.665225 0.011730 0.014649
C136  C     C_R   0.307571 0.274796 0.945345 0.020715
C137  C     C_R   0.634427 0.310083 0.960287 0.034285
C138  C     C_R   0.337155 0.643502 0.074278 0.019324
C139  C     C_R   0.365669 0.309936 0.039632 0.032965
C140  C     C_R   0.662892 0.643436 0.925623 0.019027
C141  C     C_R   0.134427 0.810083 0.960287 0.034285
C142  C     C_R   0.199786 0.763346 0.677665 0.837655
C143  C     C_R   0.837155 0.143502 0.074278 0.019325
C144  C     C_R   0.865669 0.809936 0.039632 0.032965
C145  C     C_R   0.162892 0.143437 0.925623 0.019027
C146  C     C_R   0.611560 0.337793 0.906174 -0.119848
C147  C     C_R   0.373565 0.638117 0.110598 -0.132590
C148  C     C_R   0.388483 0.337733 0.093786 -0.121487
C149  C     C_R   0.626450 0.638102 0.889374 -0.132669
C150  C     C_R   0.111560 0.837793 0.906174 -0.119848
C151  C     C_R   0.873564 0.138117 0.110599 -0.132589
C152  C     C_R   0.888483 0.837733 0.093786 -0.121487
C153  C     C_R   0.799727 0.235555 0.322369 0.961610
C154  C     C_R   0.126450 0.138102 0.889374 -0.132669
C155  C     C_R   0.630571 0.314547 0.817796 -0.286020
C156  C     C_R   0.365814 0.678884 0.184625 -0.298921
C157  C     C_R   0.369425 0.314565 0.182199 -0.282236
C158  C     C_R   0.634189 0.678890 0.815387 -0.299202
C159  C     C_R   0.130571 0.814547 0.817796 -0.286020
C160  C     C_R   0.865814 0.178884 0.184625 -0.298922
C161  C     C_R   0.869425 0.814565 0.182199 -0.282236
C162  C     C_R   0.134189 0.178890 0.815387 -0.299202
C163  C     C_R   0.672957 0.266201 0.778264 -0.137094
C164  C     C_R   0.800210 0.763350 0.322324 0.847400
C165  C     C_R   0.323155 0.726171 0.223298 -0.075903
C166  C     C_R   0.327034 0.266197 0.221723 -0.133084
C167  C     C_R   0.676876 0.726158 0.776695 -0.075088
C168  C     C_R   0.172957 0.766201 0.778264 -0.137093
C169  C     C_R   0.823155 0.226171 0.223298 -0.075903
C170  C     C_R   0.827034 0.766197 0.221723 -0.133084
C171  C     C_R   0.176876 0.226159 0.776695 -0.075088
C172  C     C_R   0.694036 0.232716 0.832767 -0.019477
C173  C     C_R   0.295849 0.747393 0.173210 0.072361
C174  C     C_R   0.305969 0.232660 0.167198 -0.020953
C175  C     C_R   0.200274 0.235559 0.677639 0.959624
C176  C     C_R   0.704237 0.747334 0.826729 0.072239
C177  C     C_R   0.194036 0.732716 0.832767 -0.019477
C178  C     C_R   0.795849 0.247393 0.173210 0.072361
C179  C     C_R   0.805969 0.732660 0.167198 -0.020954
C180  C     C_R   0.204237 0.247334 0.826729 0.072239
C181  C     C_R   0.691147 0.129803 0.536141 0.871784
C182  C     C_R   0.304649 0.872272 0.479011 0.937276
C183  C     C_R   0.308794 0.129723 0.464241 0.893448
C184  C     C_R   0.695366 0.872304 0.521039 0.932815
C185  C     C_R   0.191147 0.629803 0.536141 0.871784
C186  C     C_R   0.907527 0.503747 0.479420 -0.001656
C187  C     C_R   0.804649 0.372272 0.479011 0.937277
C188  C     C_R   0.808794 0.629723 0.464241 0.893448
C189  C     C_R   0.195366 0.372304 0.521039 0.932815
C190  C     C_R   0.678415 0.261477 0.920696 0.076802
C191  C     C_R   0.300320 0.701402 0.101810 0.043688
C192  C     C_R   0.321652 0.261353 0.079223 0.077082
C193  C     C_R   0.699761 0.701317 0.898084 0.043404
C194  C     C_R   0.178415 0.761476 0.920696 0.076801
C195  C     C_R   0.800320 0.201402 0.101810 0.043687
C196  C     C_R   0.821652 0.761353 0.079223 0.077083
H1    H     H_    0.782123 0.499676 0.441753 0.210859
H2    H     H_    0.890420 0.169121 0.217192 0.190373
H3    H     H_    0.885669 0.838671 0.223032 0.189374
H4    H     H_    0.109551 0.169159 0.782863 0.190503
H5    H     H_    0.572957 0.346488 0.095429 0.186166
H6    H     H_    0.354495 0.539091 0.006283 0.180586
H7    H     H_    0.427231 0.346235 0.904508 0.187136
H8    H     H_    0.645514 0.538999 0.993538 0.180762
H9    H     H_    0.072957 0.846488 0.095429 0.186166
H10   H     H_    0.854495 0.039091 0.006283 0.180585
H11   H     H_    0.927231 0.846235 0.904508 0.187136
H12   H     H_    0.218169 0.499746 0.558182 0.209643
H13   H     H_    0.145514 0.038999 0.993538 0.180762
H14   H     H_    0.790347 0.115660 0.819824 0.182368
H15   H     H_    0.208518 0.870183 0.163638 0.148267
H16   H     H_    0.209609 0.115609 0.180076 0.182223
H17   H     H_    0.791757 0.869986 0.836160 0.147886
H18   H     H_    0.290348 0.615661 0.819824 0.182368
H19   H     H_    0.708519 0.370183 0.163637 0.148267
H20   H     H_    0.709609 0.615608 0.180076 0.182223
H21   H     H_    0.291757 0.369986 0.836160 0.147886
H22   H     H_    0.056885 0.210999 0.427718 0.185281
H23   H     H_    0.282123 0.999676 0.441753 0.210859
H24   H     H_    0.033691 0.210903 0.542441 0.184582
H25   H     H_    0.919818 0.772068 0.507713 0.183535
H26   H     H_    0.978367 0.782265 0.404436 0.178839
H27   H     H_    0.944152 0.210202 0.569271 0.185232
H28   H     H_    0.967341 0.211313 0.454559 0.184611
H29   H     H_    0.075884 0.773126 0.505040 0.179517
H30   H     H_    0.018279 0.777703 0.609783 0.202671
H31   H     H_    0.556885 0.710999 0.427718 0.185282
H32   H     H_    0.533691 0.710904 0.542441 0.184582
H33   H     H_    0.419818 0.272068 0.507713 0.183536
H34   H     H_    0.718170 0.999746 0.558182 0.209644
H35   H     H_    0.478367 0.282265 0.404437 0.178840
H36   H     H_    0.444152 0.710202 0.569271 0.185232
H37   H     H_    0.467341 0.711312 0.454559 0.184612
H38   H     H_    0.575884 0.273126 0.505040 0.179517
H39   H     H_    0.518279 0.277703 0.609783 0.202672
H40   H     H_    0.185360 0.364293 0.363225 0.183462
H41   H     H_    0.149447 0.286373 0.404085 0.249358
H42   H     H_    0.914773 0.729510 0.385887 0.205716
H43   H     H_    0.970317 0.681429 0.313145 0.182882
H44   H     H_    0.814960 0.363000 0.636694 0.184591
H45   H     H_    0.614298 0.338581 0.776988 0.190152
H46   H     H_    0.851160 0.285397 0.594919 0.248881
H47   H     H_    0.080276 0.651739 0.685870 0.181599
H48   H     H_    0.088450 0.725487 0.620608 0.210078
H49   H     H_    0.685360 0.864293 0.363225 0.183462
H50   H     H_    0.649447 0.786373 0.404085 0.249358
H51   H     H_    0.414773 0.229510 0.385887 0.205716
H52   H     H_    0.470317 0.181429 0.313145 0.182883
H53   H     H_    0.314960 0.863000 0.636694 0.184592
H54   H     H_    0.351160 0.785397 0.594919 0.248881
H55   H     H_    0.580276 0.151739 0.685870 0.181600
H56   H     H_    0.390420 0.669121 0.217192 0.190373
H57   H     H_    0.588450 0.225487 0.620608 0.210078
H58   H     H_    0.620959 0.376705 0.210742 0.179764
H59   H     H_    0.626983 0.286699 0.231039 0.204240
H60   H     H_    0.323092 0.530082 0.867861 0.177626
H61   H     H_    0.254047 0.535626 0.940862 0.205453
H62   H     H_    0.379352 0.376361 0.789019 0.178586
H63   H     H_    0.373204 0.286364 0.768805 0.207110
H64   H     H_    0.676896 0.529953 0.131950 0.177366
H65   H     H_    0.745945 0.535533 0.059033 0.205945
H66   H     H_    0.120958 0.876704 0.210742 0.179764
H67   H     H_    0.385669 0.338671 0.223032 0.189374
H68   H     H_    0.126983 0.786698 0.231039 0.204240
H69   H     H_    0.823094 0.030080 0.867864 0.177627
H70   H     H_    0.754048 0.035626 0.940857 0.205454
H71   H     H_    0.879352 0.876361 0.789019 0.178585
H72   H     H_    0.873204 0.786364 0.768805 0.207110
H73   H     H_    0.176895 0.029954 0.131950 0.177366
H74   H     H_    0.245945 0.035533 0.059034 0.205945
H75   H     H_    0.697566 0.117851 0.720578 0.041708
H76   H     H_    0.239140 0.916501 0.266697 0.087737
H77   H     H_    0.302296 0.117826 0.279490 0.049757
H78   H     H_    0.609551 0.669159 0.782863 0.190503
H79   H     H_    0.761081 0.916412 0.733260 0.087601
H80   H     H_    0.197566 0.617849 0.720580 0.041706
H81   H     H_    0.739142 0.416503 0.266693 0.087739
H82   H     H_    0.802296 0.617826 0.279490 0.049758
H83   H     H_    0.261080 0.416413 0.733261 0.087598
H84   H     H_    0.114298 0.838581 0.776988 0.190152
N1    N     N_3   0.055297 0.240638 0.482245 -0.465866
N2    N     N_3   0.929424 0.677715 0.361989 -0.454751
N3    N     N_3   0.853287 0.339557 0.610926 -0.432818
N4    N     N_3   0.066959 0.677231 0.644469 -0.462604
N5    N     N_3   0.647126 0.840608 0.388623 -0.433127
N6    N     N_3   0.429424 0.177715 0.361989 -0.454751
N7    N     N_3   0.353287 0.839557 0.610926 -0.432818
N8    N     N_3   0.566959 0.177231 0.644469 -0.462604
N9    N     N_3   0.614370 0.323354 0.197494 -0.477749
N10   N     N_3   0.292460 0.535497 0.935530 -0.470884
N11   N     N_3   0.385863 0.323006 0.802330 -0.470533
N12   N     N_3   0.962094 0.771575 0.474129 -0.441898
N13   N     N_3   0.707548 0.535381 0.064299 -0.470357
N14   N     N_3   0.114369 0.823353 0.197494 -0.477749
N15   N     N_3   0.792460 0.035497 0.935530 -0.470886
N16   N     N_3   0.885863 0.823006 0.802330 -0.470533
N17   N     N_3   0.207548 0.035382 0.064299 -0.470356
N18   N     N_3   0.945592 0.240402 0.515259 -0.466176
N19   N     N_3   0.033637 0.770818 0.539553 -0.439019
N20   N     N_3   0.555297 0.740638 0.482245 -0.465866
N21   N     N_3   0.462094 0.271575 0.474130 -0.441898
N22   N     N_3   0.445592 0.740402 0.515259 -0.466176
N23   N     N_3   0.533637 0.270818 0.539553 -0.439018
N24   N     N_3   0.147126 0.340608 0.388623 -0.433127
O1    O     O_R   0.746490 0.236330 0.638080 -0.642727
O2    O     O_R   0.325830 0.813840 0.483730 -0.641105
O3    O     O_R   0.325830 0.186160 0.483730 -0.635511
O4    O     O_R   0.674170 0.813840 0.516270 -0.640310
O5    O     O_R   0.174170 0.686160 0.516270 -0.645809
O6    O     O_R   0.825830 0.313840 0.483730 -0.641106
O7    O     O_R   0.825830 0.686160 0.483730 -0.635511
O8    O     O_R   0.174170 0.313840 0.516270 -0.640310
O9    O     O_R   0.739960 0.127620 0.525000 -0.610220
O10   O     O_R   0.260040 0.872380 0.475000 -0.609976
O11   O     O_R   0.260040 0.127620 0.475000 -0.617453
O12   O     O_R   0.253510 0.763670 0.361920 -0.626962
O13   O     O_R   0.739960 0.872380 0.525000 -0.611320
O14   O     O_R   0.239960 0.627620 0.525000 -0.610218
O15   O     O_R   0.760040 0.372380 0.475000 -0.609974
O16   O     O_R   0.760040 0.627620 0.475000 -0.617453
O17   O     O_R   0.239960 0.372380 0.525000 -0.611319
O18   O     O_R   0.680700 0.294870 0.629350 -0.636433
O19   O     O_R   0.319300 0.705130 0.370650 -0.621656
O20   O     O_R   0.319300 0.294870 0.370650 -0.631527
O21   O     O_R   0.680700 0.705130 0.629350 -0.622134
O22   O     O_R   0.180700 0.794870 0.629350 -0.636433
O23   O     O_R   0.253510 0.236330 0.361920 -0.645725
O24   O     O_R   0.819300 0.205130 0.370650 -0.621657
O25   O     O_R   0.819300 0.794870 0.370650 -0.631527
O26   O     O_R   0.180700 0.205130 0.629350 -0.622134
O27   O     O_R   0.062020 0.072840 0.007170 -0.622266
O28   O     O_R   0.937980 0.927160 0.992830 -0.647806
O29   O     O_R   0.937980 0.072840 0.992830 -0.622187
O30   O     O_R   0.062020 0.927160 0.007170 -0.647998
O31   O     O_R   0.562020 0.572840 0.007170 -0.622266
O32   O     O_R   0.437980 0.427160 0.992830 -0.647806
O33   O     O_R   0.437980 0.572840 0.992830 -0.622187
O34   O     O_R   0.746490 0.763670 0.638080 -0.628977
O35   O     O_R   0.562020 0.427160 0.007170 -0.647998
O36   O     O_R   0.947860 0.073950 0.109290 -0.611093
O37   O     O_R   0.052140 0.926050 0.890710 -0.625270
O38   O     O_R   0.052140 0.073950 0.890710 -0.611038
O39   O     O_R   0.947860 0.926050 0.109290 -0.626009
O40   O     O_R   0.447860 0.573950 0.109290 -0.611093
O41   O     O_R   0.552140 0.426050 0.890710 -0.625271
O42   O     O_R   0.552140 0.573950 0.890710 -0.611038
O43   O     O_R   0.447860 0.426050 0.109290 -0.626010
O44   O     O_2   0.765212 0.071958 0.704259 -0.613183
O45   O     O_R   0.246490 0.736330 0.638080 -0.642724
O46   O     O_2   0.311286 0.884362 0.246080 -0.575941
O47   O     O_2   0.234603 0.072013 0.295813 -0.613433
O48   O     O_2   0.688880 0.884361 0.753981 -0.576864
O49   O     O_2   0.265215 0.571962 0.704254 -0.613180
O50   O     O_2   0.811285 0.384360 0.246083 -0.575942
O51   O     O_2   0.734603 0.572013 0.295813 -0.613433
O52   O     O_2   0.188880 0.384361 0.753980 -0.576865
O53   O     O_R   0.753510 0.263670 0.361920 -0.626959
O54   O     O_R   0.753510 0.736330 0.361920 -0.645724
O55   O     O_R   0.246490 0.263670 0.638080 -0.628976
O56   O     O_R   0.674170 0.186160 0.516270 -0.645810
Zn1   Zn    Zn3+2 0.792340 0.208750 0.507670 0.982652
Zn2   Zn    Zn3+2 0.494040 0.500000 0.919480 0.938562
Zn3   Zn    Zn3+2 0.005960 1.000000 0.080520 0.937071
Zn4   Zn    Zn3+2 0.994040 0.000000 0.919480 0.938562
Zn5   Zn    Zn3+2 0.207660 0.791250 0.492330 0.941482
Zn6   Zn    Zn3+2 0.207660 0.208750 0.492330 0.982835
Zn7   Zn    Zn3+2 0.792340 0.791250 0.507670 0.944573
Zn8   Zn    Zn3+2 0.292340 0.708750 0.507670 0.982657
Zn9   Zn    Zn3+2 0.707660 0.291250 0.492330 0.941484
Zn10  Zn    Zn3+2 0.707660 0.708750 0.492330 0.982836
Zn11  Zn    Zn3+2 0.292340 0.291250 0.507670 0.944574
Zn12  Zn    Zn3+2 0.505960 0.500000 0.080520 0.937071

loop_
_geom_bond_atom_site_label_1
_geom_bond_atom_site_label_2
_ccdc_geom_bond_type
H62   N11   S    
O9    Zn1   S    
C18   N15   S    
C188  O16   A    
C9    C143  A    
H41   N24   S    
C120  C166  S    
C42   O37   A    
H22   N1    S    
C44   O43   A    
C124  C133  A    
C50   C59   A    
C109  O19   A    
C52   C61   A    
C36   H19   S    
C54   C63   A    
C58   C60   A    
C60   N20   S    
C162  H4    S    
C100  O44   D    
C61   C63   A    
C117  C132  A    
C189  O8    A    
C62   C64   A    
C91   C96   A    
C116  C195  A    
C93   C181  S    
C50   C90   A    
C23   C103  S    
C113  C122  A    
H44   N3    S    
C70   C74   A    
H38   N23   S    
C29   C108  S    
C78   C186  A    
C4    C12   A    
O37   Zn4   S    
C24   C85   A    
C88   C97   A    
C119  C128  A    
C143  C151  A    
C47   C146  S    
O28   Zn4   S    
C49   C69   A    
O31   Zn12  S    
O35   Zn12  S    
C26   C105  S    
O8    Zn6   S    
C158  C167  A    
O25   Zn7   S    
C139  C148  A    
H27   N18   S    
C11   C20   A    
C166  C174  A    
C150  C159  A    
C39   C154  S    
H49   N5    S    
C137  C146  A    
C127  C136  A    
C31   C121  A    
C139  C192  A    
C86   C90   A    
C71   C73   A    
C33   H17   S    
H36   N22   S    
H25   N12   S    
C172  C190  A    
C17   C129  A    
C173  C191  A    
O3    Zn11  S    
C82   C91   A    
C182  O2    A    
O30   Zn3   S    
C51   C66   A    
O40   Zn12  S    
O55   Zn11  S    
C52   C72   A    
C3    C118  A    
C105  O49   D    
C54   C70   A    
C163  C172  A    
C157  H67   S    
C31   H15   S    
C43   O31   A    
C79   C85   A    
H42   N2    S    
C66   C77   A    
O33   Zn2   S    
C34   C124  A    
C105  H80   S    
C57   C78   A    
C41   C151  S    
C21   C172  A    
C8    C17   A    
C27   C106  S    
C56   C59   A    
C188  O7    A    
C6    H7    S    
C80   C88   A    
C92   C182  S    
C112  C191  A    
C57   N3    S    
C95   C183  S    
C4    H5    S    
C120  O20   A    
C84   C93   A    
C48   C67   A    
C8    H9    S    
C86   C95   A    
O20   Zn11  S    
C142  C168  S    
C24   C77   A    
C164  O25   A    
C2    C81   A    
H31   N20   S    
C103  O47   D    
C55   C71   A    
C2    C75   A    
C175  O26   A    
C100  H75   S    
C78   C87   A    
C48   C110  A    
H65   N13   S    
C123  C132  A    
O10   Zn5   S    
C187  O15   A    
C138  C191  A    
C67   C77   A    
C27   C178  A    
C1    O18   A    
C23   C174  A    
C42   O30   A    
C56   N23   S    
H26   N12   S    
O11   Zn6   S    
C40   C152  S    
C69   C76   A    
C111  C119  A    
C184  O4    A    
C6    C139  A    
C18   C128  A    
C4    C137  A    
C46   C82   A    
C104  O48   D    
C29   C38   A    
C90   N6    S    
C8    C141  A    
C176  C193  A    
C149  C158  A    
C37   H20   S    
C152  C161  A    
C131  C167  S    
C12   C134  A    
C87   C96   A    
C72   C75   A    
C141  C150  A    
O21   Zn10  S    
C162  C171  A    
C102  O46   D    
C87   C187  S    
C15   C136  A    
C39   O38   A    
C155  C163  A    
C1    O1    A    
C140  C193  A    
H72   N16   S    
C187  O6    A    
C3    C180  A    
C14   N10   S    
O22   Zn5   S    
H47   N4    S    
C142  O45   A    
H54   N7    S    
O2    Zn8   S    
C20   N17   S    
C10   C144  A    
C145  C154  A    
C40   O39   A    
C88   C185  S    
C115  C194  A    
C3    C145  A    
C116  C125  A    
C109  O12   A    
C41   O29   A    
C63   N12   S    
C46   N2    S    
C118  C127  A    
C114  C123  A    
O13   Zn7   S    
H35   N21   S    
C22   C173  A    
C37   C126  A    
C117  C126  A    
C26   C177  A    
C19   C132  A    
C113  C192  A    
C181  O9    A    
C83   C101  A    
O6    Zn1   S    
O7    Zn7   S    
C45   C147  S    
C183  O3    A    
C154  C162  A    
O26   Zn6   S    
C111  C134  A    
C144  C196  A    
C14   C133  A    
C170  C179  A    
O34   Zn7   S    
C112  C121  A    
H59   N9    S    
C47   O41   A    
C28   C37   A    
C15   N11   S    
C148  C157  A    
C97   H12   S    
C50   C65   A    
C51   C79   A    
C137  C190  A    
O15   Zn9   S    
C9    C18   A    
C120  O23   A    
O39   Zn3   S    
C19   N16   S    
C51   C60   A    
C107  H82   S    
C140  C149  A    
C174  C192  A    
C59   N21   S    
C125  C134  A    
C79   N5    S    
O27   Zn3   S    
C61   N19   S    
O18   Zn9   S    
H32   N20   S    
O53   Zn9   S    
C73   C74   A    
H33   N21   S    
H57   N8    S    
C65   C76   A    
C102  H76   S    
C82   C186  A    
C9    H10   S    
C49   C101  A    
C7    C140  A    
C168  C177  A    
O32   Zn2   S    
H69   N15   S    
O43   Zn12  S    
C108  O52   D    
C117  C196  A    
C164  C170  S    
C45   O33   A    
C146  C155  A    
C65   C67   A    
C91   C188  S    
C160  C169  A    
H66   N14   S    
H24   N1    S    
C108  H83   S    
C93   C99   A    
C81   C89   A    
C98   H23   S    
O17   Zn11  S    
C38   H21   S    
C94   C184  S    
H51   N6    S    
H40   N24   S    
H73   N17   S    
C131  O21   A    
C179  C196  A    
H43   N2    S    
H48   N4    S    
C177  C194  A    
C32   C122  A    
O16   Zn10  S    
C103  H77   S    
C164  O54   A    
C34   H18   S    
C53   C57   A    
C160  H2    S    
C181  O56   A    
C106  O50   D    
C7    H8    S    
C118  C130  A    
C10   C19   A    
C143  C195  A    
C46   C54   A    
C185  O5    A    
C25   C104  S    
C106  H81   S    
C147  C156  A    
C142  O22   A    
C5    C14   A    
C58   N22   S    
C109  C165  S    
H74   N17   S    
C155  H45   S    
C7    C16   A    
C126  C135  A    
C39   O27   A    
C175  O55   A    
H55   N8    S    
H46   N3    S    
O5    Zn5   S    
C115  C124  A    
O38   Zn4   S    
C121  C129  A    
C22   C102  S    
C156  H56   S    
C47   O35   A    
C27   C36   A    
C21   C30   A    
C13   C83   A    
C23   C32   A    
C131  O34   A    
H52   N6    S    
C156  C165  A    
C28   C179  A    
O45   Zn8   S    
O56   Zn9   S    
O19   Zn8   S    
C1    C163  S    
C111  C190  A    
C144  C152  A    
C182  O10   A    
C153  C169  S    
H68   N14   S    
C89   C189  S    
H70   N15   S    
C40   O28   A    
C74   C186  A    
C107  O51   D    
C68   C80   A    
C114  C193  A    
C36   C125  A    
C112  C133  A    
H60   N10   S    
C38   C127  A    
C35   C81   A    
C95   C98   A    
C92   C98   A    
C5    C138  A    
H39   N23   S    
C83   C92   A    
C101  N7    S    
O54   Zn10  S    
H30   N19   S    
C189  O17   A    
C32   H16   S    
C66   C69   A    
C30   C119  A    
C28   C107  S    
C165  C173  A    
O23   Zn6   S    
O36   Zn3   S    
C159  C168  A    
C184  O13   A    
O12   Zn5   S    
C6    C15   A    
C64   N1    S    
C26   C34   A    
C113  C136  A    
C13   C86   A    
C114  C135  A    
C183  O11   A    
H58   N9    S    
C43   C149  S    
C185  O14   A    
H28   N18   S    
C159  H84   S    
H61   N10   S    
C158  H78   S    
C17   N14   S    
C96   H1    S    
C22   C31   A    
C161  H3    S    
C35   C55   A    
O42   Zn2   S    
C5    H6    S    
C21   C100  S    
C11   C145  A    
O1    Zn1   S    
C12   N9    S    
C171  C175  S    
C29   C180  A    
C84   C110  A    
C49   C58   A    
C153  O53   A    
C89   C97   A    
O41   Zn2   S    
C10   H11   S    
C85   C94   A    
C13   C76   A    
H63   N11   S    
C138  C147  A    
C55   C64   A    
C110  N8    S    
H64   N13   S    
C104  H79   S    
C161  C170  A    
H37   N22   S    
H53   N7    S    
C62   N18   S    
C171  C180  A    
C169  C178  A    
C99   H34   S    
C115  C129  A    
C48   C56   A    
O29   Zn4   S    
C53   C73   A    
C20   C130  A    
C52   C68   A    
C157  C166  A    
C30   H14   S    
O4    Zn10  S    
C178  C195  A    
H29   N19   S    
C16   N13   S    
C151  C160  A    
C24   C84   A    
C153  O24   A    
C11   H13   S    
C71   C75   A    
C41   O36   A    
C25   C176  A    
C94   C99   A    
C35   N24   S    
C44   C148  S    
C141  C194  A    
H71   N16   S    
C42   C150  S    
C43   O42   A    
C2    C80   A    
C44   O32   A    
C45   O40   A    
O14   Zn8   S    
O24   Zn1   S    
C53   C62   A    
C116  C128  A    
C25   C33   A    
C33   C123  A    
H50   N5    S    
C70   C72   A    
C68   N4    S    
C16   C135  A    
C122  C130  A    
C167  C176  A    
