data_mof_unit_7699.cif
_audit_creation_date              2012-12-11T16:08:45-0500
_audit_creation_method            fapswitch 2.2
_symmetry_space_group_name_H-M    P1
_symmetry_Int_Tables_number       1
_space_group_crystal_system       triclinic
_cell_length_a                    19.804442
_cell_length_b                    19.711253
_cell_length_c                    19.808362
_cell_angle_alpha                 110.740131
_cell_angle_beta                  107.104925
_cell_angle_gamma                 109.989311
_cell_volume                      5989.71711277

loop_
_atom_site_label
_atom_site_type_symbol
_atom_type_description
_atom_site_fract_x
_atom_site_fract_y
_atom_site_fract_z
_atom_type_partial_charge
Br1   Br    Br    0.516395 0.379468 0.823872 -0.577391
Br2   Br    Br    0.278023 0.463543 0.967015 -0.534577
Br3   Br    Br    0.799781 0.117092 0.677999 -0.593317
Br4   Br    Br    0.417142 0.913886 0.392938 -0.653473
Br5   Br    Br    0.913608 0.651406 0.443860 -0.496727
Br6   Br    Br    0.053357 0.414473 0.519664 -0.592113
Br7   Br    Br    0.763110 0.285236 0.096859 -0.547377
Br8   Br    Br    0.206360 0.704189 0.865712 -0.585742
C1    C     C_R   0.664130 0.926756 0.970825 -0.197281
C2    C     C_3   0.366208 0.401034 0.814335 -0.500450
C3    C     C_3   0.962604 0.990081 0.908803 0.260569
C4    C     C_3   0.961602 0.057869 0.888588 -0.305954
C5    C     C_3   0.006749 0.069029 0.839370 -0.953182
C6    C     C_3   0.539208 0.172298 0.339972 0.145410
C7    C     C_3   0.475397 0.186894 0.290687 -0.312161
C8    C     C_3   0.440741 0.226986 0.341664 -1.016674
C9    C     C_3   0.445710 0.819707 0.637979 0.182787
C10   C     C_3   0.372366 0.832106 0.605737 -0.409506
C11   C     C_3   0.337077 0.798405 0.513777 -0.868451
C12   C     C_3   0.152478 0.172826 0.080429 0.222651
C13   C     C_3   0.470251 0.486254 0.937678 0.573306
C14   C     C_3   0.234025 0.229355 0.159437 -0.325698
C15   C     C_3   0.304397 0.263311 0.141767 -0.980135
C16   C     C_3   0.876001 0.828086 0.088126 0.208340
C17   C     C_3   0.857564 0.859197 0.159429 -0.256312
C18   C     C_3   0.765889 0.820066 0.129611 -1.015279
C19   C     C_3   0.468597 0.821699 0.195623 0.209143
C20   C     C_3   0.549287 0.830064 0.197197 -0.345867
C21   C     C_3   0.587140 0.800497 0.251436 -0.982333
C22   C     C_3   0.642711 0.187828 0.836325 0.173890
C23   C     C_3   0.722775 0.218848 0.832381 -0.264695
C24   C     C_3   0.321895 0.354218 0.850892 0.583503
C25   C     C_3   0.725213 0.266736 0.786416 -0.857293
C26   C     C_3   0.856996 0.170482 0.070024 0.211192
C27   C     C_3   0.937318 0.245100 0.143879 -0.231102
C28   C     C_3   0.999195 0.281784 0.117711 -0.976754
C29   C     C_3   0.189092 0.832256 0.021531 0.218112
C30   C     C_3   0.257638 0.832005 0.082666 -0.346273
C31   C     C_3   0.226299 0.785372 0.123737 -0.873433
C32   C     C_3   0.602661 0.564302 0.046298 0.251223
C33   C     C_3   0.607990 0.625050 0.124450 -0.382237
C34   C     C_3   0.671962 0.638447 0.200858 -0.927874
C35   C     C_1   0.420606 0.633959 0.916443 0.007301
C36   C     C_3   0.194065 0.264360 0.734537 0.201669
C37   C     C_3   0.158415 0.322991 0.740296 -0.328610
C38   C     C_3   0.097863 0.298458 0.655661 -0.879289
C39   C     C_1   0.437839 0.256515 0.939384 -0.041131
C40   C     C_3   0.347917 0.437825 0.924344 0.297065
C41   C     C_3   0.444873 0.403852 0.864729 0.296391
C42   C     C_3   0.392687 0.484264 0.889073 -0.123983
C43   C     C_3   0.400017 0.357423 0.900050 -0.101710
C44   C     C_1   0.402226 0.563272 0.897748 0.154425
C45   C     C_R   0.343799 0.073373 0.072194 -0.276340
C46   C     C_1   0.415300 0.297035 0.916618 0.135276
C47   C     C_3   0.688409 0.055473 0.591017 0.134878
C48   C     C_3   0.531018 0.973293 0.475071 0.069425
C49   C     C_R   0.536620 0.069253 0.236645 0.509209
C50   C     C_R   0.501845 0.930189 0.771548 0.511772
C51   C     C_3   0.649370 0.978376 0.504041 0.348695
C52   C     C_3   0.570737 0.049768 0.560483 0.426712
C53   C     C_1   0.560399 0.006457 0.322014 0.017607
C54   C     C_1   0.582070 0.001908 0.716090 0.009881
C55   C     C_3   0.645500 0.094666 0.552210 0.386606
C56   C     C_R   0.523734 0.000375 0.245480 -0.261509
C57   C     C_3   0.573980 0.933835 0.512202 0.365268
C58   C     C_3   0.606607 0.017987 0.465797 -0.327260
C59   C     C_3   0.612489 0.009810 0.598272 -0.249459
C60   C     C_1   0.587074 0.012616 0.387459 0.125996
C61   C     C_1   0.601972 0.004909 0.665587 0.175078
C62   C     C_3   0.956883 0.583005 0.466469 0.344179
C63   C     C_3   0.012841 0.484867 0.497127 0.266027
C64   C     C_3   0.975670 0.575624 0.543871 0.571734
C65   C     C_3   0.995042 0.492730 0.420350 0.576578
C66   C     C_1   0.192942 0.677882 0.685365 0.032845
C67   C     C_R   0.549965 0.000518 0.771091 -0.267013
C68   C     C_1   0.781300 0.363283 0.284659 0.045163
C69   C     C_3   0.038734 0.589260 0.471275 -0.468717
C70   C     C_3   0.931529 0.479349 0.492428 -0.476162
C71   C     C_3   0.055952 0.580898 0.548537 -0.168979
C72   C     C_3   0.914481 0.487435 0.415212 -0.119258
C73   C     C_R   0.720604 0.234733 0.152600 0.458097
C74   C     C_R   0.268707 0.774360 0.835405 0.388509
C75   C     C_1   0.131558 0.631864 0.622758 0.107531
C76   C     C_1   0.839165 0.425742 0.342156 0.165853
C77   C     C_3   0.072053 0.018641 0.175769 0.386612
C78   C     C_R   0.720503 0.281197 0.222537 -0.105046
C79   C     C_3   0.979382 0.999389 0.034105 0.327710
C80   C     C_3   0.034680 0.074329 0.165936 0.412443
C81   C     C_3   0.015250 0.943354 0.043520 0.321658
C82   C     C_1   0.811756 0.990315 0.059494 0.004685
C83   C     C_1   0.215697 0.016028 0.076307 -0.025611
C84   C     C_3   0.989054 0.939763 0.108560 0.368928
C85   C     C_3   0.060808 0.078543 0.100459 0.298259
C86   C     C_3   0.952573 0.995880 0.099441 -0.372154
C87   C     C_3   0.098891 0.023126 0.110498 -0.447416
C88   C     C_1   0.874458 0.990472 0.082740 0.170472
C89   C     C_R   0.264193 0.739329 0.759407 -0.037904
C90   C     C_1   0.166367 0.022138 0.096970 0.112477
C91   C     C_R   0.423852 0.766682 0.991361 -0.035835
C92   C     C_R   0.526274 0.193243 0.956843 -0.053636
C93   C     C_R   0.653875 0.232521 0.224312 -0.095602
C94   C     C_R   0.338481 0.781295 0.765752 -0.187452
C95   C     C_R   0.496482 0.768833 0.925264 -0.114376
C96   C     C_R   0.457286 0.194424 0.028168 -0.114030
C97   C     C_R   0.470898 0.929441 0.167041 0.478876
C98   C     C_R   0.574190 0.070431 0.843302 0.452070
C99   C     C_R   0.735984 0.066272 0.039336 0.558915
C100  C     C_R   0.449513 0.720460 0.946823 0.013345
C101  C     C_R   0.272984 0.934962 0.005237 0.581378
C102  C     C_R   0.740772 0.994332 0.025177 -0.098797
C103  C     C_R   0.271926 0.007339 0.048494 -0.076165
C104  C     C_3   0.727278 0.913455 0.517045 0.240662
C105  C     C_3   0.816346 0.947378 0.535287 -0.257945
C106  C     C_3   0.859456 0.918901 0.587376 -0.956565
C107  C     C_3   0.494874 0.116315 0.546883 0.233431
C108  C     C_3   0.496359 0.194497 0.602338 -0.260252
C109  C     C_3   0.456448 0.227008 0.552907 -0.996615
C110  C     C_3   0.510942 0.793255 0.413916 0.267459
C111  C     C_R   0.471425 0.215710 0.972509 0.044758
C112  C     C_3   0.428783 0.716727 0.379959 -0.306467
C113  C     C_3   0.400820 0.650775 0.292874 -0.953129
C114  C     C_3   0.705412 0.205617 0.531181 0.215835
C115  C     C_3   0.779927 0.198894 0.529429 -0.298111
C116  C     C_3   0.805031 0.229316 0.475166 -0.920944
C117  C     C_3   0.979177 0.598946 0.669075 0.226790
C118  C     C_3   0.898716 0.557915 0.669957 -0.326743
C119  C     C_3   0.908966 0.530324 0.733454 -0.941217
C120  C     C_3   0.079933 0.466247 0.367770 0.213198
C121  C     C_3   0.105901 0.511924 0.323729 -0.290125
C122  C     C_3   0.426399 0.441038 0.974132 -0.508981
C123  C     C_3   0.191348 0.530794 0.335646 -1.020452
C124  C     C_3   0.115876 0.210759 0.275343 0.223091
C125  C     C_3   0.126911 0.266658 0.358918 -0.251981
C126  C     C_3   0.207841 0.348759 0.408166 -1.028739
C127  C     C_3   0.929268 0.812330 0.923816 0.267640
C128  C     C_3   0.919718 0.730082 0.918655 -0.304047
C129  C     C_3   0.833107 0.657652 0.857436 -0.992112
C130  C     C_3   0.195535 0.055804 0.279729 0.227664
C131  C     C_3   0.208153 0.979963 0.255766 -0.262786
C132  C     C_3   0.298026 0.006522 0.283807 -1.013955
H1    H     H_    0.646784 0.861537 0.946630 0.140369
H2    H     H_    0.356998 0.763192 0.719524 0.176185
H3    H     H_    0.244668 0.193887 0.190190 0.184458
H4    H     H_    0.302680 0.211496 0.093249 0.260414
H5    H     H_    0.363334 0.296625 0.198258 0.267527
H6    H     H_    0.300178 0.307873 0.120987 0.282339
H7    H     H_    0.853197 0.759941 0.062671 0.127313
H8    H     H_    0.841844 0.834071 0.036930 0.075485
H9    H     H_    0.884341 0.842553 0.204549 0.215585
H10   H     H_    0.885730 0.928391 0.190977 0.218396
H11   H     H_    0.738410 0.838937 0.087100 0.271387
H12   H     H_    0.754228 0.841593 0.182702 0.276894
H13   H     H_    0.514052 0.746592 0.878711 0.119721
H14   H     H_    0.736491 0.750765 0.097497 0.273166
H15   H     H_    0.426635 0.754321 0.170236 0.142967
H16   H     H_    0.474025 0.852908 0.257146 0.137895
H17   H     H_    0.537885 0.791557 0.134142 0.215438
H18   H     H_    0.593628 0.896039 0.220504 0.209112
H19   H     H_    0.599503 0.838287 0.314910 0.296291
H20   H     H_    0.645669 0.808163 0.252374 0.277573
H21   H     H_    0.545520 0.733468 0.227742 0.264276
H22   H     H_    0.638081 0.243444 0.869220 0.140769
H23   H     H_    0.590044 0.149399 0.773305 0.113326
H24   H     H_    0.417687 0.204030 0.053329 0.114714
H25   H     H_    0.774633 0.260695 0.895605 0.225163
H26   H     H_    0.730216 0.164809 0.801314 0.231624
H27   H     H_    0.673861 0.226072 0.723185 0.301491
H28   H     H_    0.783311 0.286987 0.783276 0.293183
H29   H     H_    0.721040 0.322999 0.818377 0.253081
H30   H     H_    0.834764 0.188609 0.024468 0.155947
H31   H     H_    0.869562 0.119821 0.040757 0.103360
H32   H     H_    0.926288 0.294769 0.178466 0.253447
H33   H     H_    0.962944 0.224397 0.185409 0.223330
H34   H     H_    0.008066 0.232479 0.079107 0.298470
H35   H     H_    0.695504 0.844163 0.480166 0.097813
H36   H     H_    0.058603 0.331292 0.172790 0.266177
H37   H     H_    0.977768 0.309822 0.082421 0.277145
H38   H     H_    0.135591 0.767878 0.983586 0.171467
H39   H     H_    0.167471 0.871468 0.053383 0.105335
H40   H     H_    0.284578 0.800860 0.049828 0.272258
H41   H     H_    0.305771 0.897528 0.130370 0.184900
H42   H     H_    0.194474 0.811730 0.153125 0.255580
H43   H     H_    0.278379 0.791267 0.171291 0.293373
H44   H     H_    0.183351 0.717929 0.077788 0.270370
H45   H     H_    0.663577 0.589997 0.049311 0.137090
H46   H     H_    0.724243 0.930025 0.575696 0.127118
H47   H     H_    0.588114 0.502595 0.042165 0.099233
H48   H     H_    0.624096 0.686219 0.127471 0.230113
H49   H     H_    0.547938 0.600585 0.123313 0.214841
H50   H     H_    0.656505 0.578088 0.199528 0.272452
H51   H     H_    0.673910 0.682359 0.256216 0.272479
H52   H     H_    0.733142 0.665696 0.204700 0.274515
H53   H     H_    0.142661 0.199279 0.702273 0.143209
H54   H     H_    0.225441 0.264595 0.696306 0.092914
H55   H     H_    0.126849 0.320082 0.778077 0.252044
H56   H     H_    0.207968 0.388516 0.770043 0.221457
H57   H     H_    0.819166 0.924987 0.476722 0.205616
H58   H     H_    0.128462 0.302055 0.617169 0.271819
H59   H     H_    0.073387 0.342047 0.661843 0.296290
H60   H     H_    0.046196 0.233824 0.625004 0.257809
H61   H     H_    0.848650 0.016870 0.568292 0.239251
H62   H     H_    0.857666 0.941113 0.646431 0.272645
H63   H     H_    0.924133 0.945325 0.600397 0.278028
H64   H     H_    0.829671 0.849521 0.554368 0.275218
H65   H     H_    0.368500 0.137722 0.117623 0.146984
H66   H     H_    0.430361 0.066603 0.503421 0.160424
H67   H     H_    0.525472 0.131809 0.511039 0.100576
H68   H     H_    0.463501 0.179600 0.636483 0.223170
H69   H     H_    0.560531 0.244322 0.647425 0.223558
H70   H     H_    0.490394 0.245191 0.520778 0.262118
H71   H     H_    0.457310 0.282902 0.594736 0.300420
H72   H     H_    0.392128 0.178257 0.507176 0.258758
H73   H     H_    0.556314 0.772608 0.412857 0.097942
H74   H     H_    0.504556 0.819387 0.372368 0.118023
H75   H     H_    0.433814 0.688925 0.419945 0.204185
H76   H     H_    0.449789 0.455174 0.038537 0.188666
H77   H     H_    0.382277 0.736143 0.379385 0.237862
H78   H     H_    0.393534 0.676817 0.251522 0.269909
H79   H     H_    0.341195 0.596019 0.270082 0.279450
H80   H     H_    0.445849 0.629448 0.291708 0.263086
H81   H     H_    0.721699 0.272250 0.554845 0.125243
H82   H     H_    0.653003 0.170931 0.469179 0.087017
H83   H     H_    0.831664 0.237487 0.592683 0.239991
H84   H     H_    0.766179 0.133001 0.505552 0.226546
H85   H     H_    0.754458 0.190665 0.411278 0.282050
H86   H     H_    0.859036 0.223983 0.475054 0.288999
H87   H     H_    0.343647 0.388299 0.750412 0.193890
H88   H     H_    0.821180 0.295890 0.498717 0.259690
H89   H     H_    0.023904 0.656142 0.729896 0.164150
H90   H     H_    0.004945 0.556093 0.660740 0.119088
H91   H     H_    0.876384 0.603154 0.684370 0.219389
H92   H     H_    0.852342 0.502412 0.608500 0.200653
H93   H     H_    0.928773 0.482994 0.718665 0.277987
H94   H     H_    0.849856 0.501911 0.733317 0.269269
H95   H     H_    0.954845 0.584896 0.795588 0.275234
H96   H     H_    0.081967 0.407238 0.343598 0.142020
H97   H     H_    0.124696 0.504757 0.434420 0.112227
H98   H     H_    0.886685 0.434636 0.500233 0.181554
H99   H     H_    0.062066 0.472580 0.257164 0.230346
H100  H     H_    0.105101 0.571646 0.347779 0.207826
H101  H     H_    0.236159 0.569263 0.401864 0.266270
H102  H     H_    0.209316 0.566084 0.305074 0.285935
H103  H     H_    0.192561 0.471631 0.308265 0.265085
H104  H     H_    0.119559 0.245871 0.242115 0.144847
H105  H     H_    0.166056 0.195712 0.285056 0.081002
H106  H     H_    0.076191 0.280638 0.350343 0.222231
H107  H     H_    0.124912 0.233135 0.393761 0.223650
H108  H     H_    0.259538 0.336321 0.419415 0.271944
H109  H     H_    0.083869 0.634587 0.464277 0.187701
H110  H     H_    0.213481 0.388161 0.468053 0.299658
H111  H     H_    0.210857 0.383639 0.374713 0.260188
H112  H     H_    0.916744 0.805724 0.862709 0.107683
H113  H     H_    0.882790 0.824413 0.938112 0.081331
H114  H     H_    0.963037 0.715978 0.899562 0.209261
H115  H     H_    0.934702 0.736372 0.979938 0.226665
H116  H     H_    0.788919 0.669800 0.876267 0.268929
H117  H     H_    0.828403 0.599047 0.855198 0.282621
H118  H     H_    0.817469 0.649118 0.795267 0.270495
H119  H     H_    0.228119 0.094761 0.347629 0.120362
H120  H     H_    0.373493 0.740902 0.002636 0.180229
H121  H     H_    0.223774 0.097185 0.258120 0.069365
H122  H     H_    0.184919 0.944565 0.284421 0.225450
H123  H     H_    0.173096 0.937727 0.188321 0.200945
H124  H     H_    0.334785 0.051150 0.350851 0.270687
H125  H     H_    0.320386 0.035917 0.250632 0.264917
H126  H     H_    0.305978 0.951021 0.270385 0.312034
H127  H     H_    0.925722 0.928771 0.850818 0.101222
H128  H     H_    0.025910 0.000964 0.934801 0.098111
H129  H     H_    0.897414 0.040404 0.852668 0.217471
H130  H     H_    0.990739 0.118333 0.946095 0.225010
H131  H     H_    0.548698 0.200393 0.915193 0.118901
H132  H     H_    0.072219 0.091287 0.876261 0.260216
H133  H     H_    0.002043 0.116107 0.822854 0.296149
H134  H     H_    0.979774 0.008877 0.782247 0.267340
H135  H     H_    0.583891 0.231346 0.399299 0.132204
H136  H     H_    0.509996 0.124453 0.355112 0.104235
H137  H     H_    0.503088 0.228184 0.268863 0.203657
H138  H     H_    0.424895 0.125908 0.236668 0.186181
H139  H     H_    0.414329 0.188155 0.366057 0.271257
H140  H     H_    0.391985 0.232590 0.302790 0.270587
H141  H     H_    0.489378 0.290472 0.393611 0.274278
H142  H     H_    0.629669 0.256124 0.263465 0.160427
H143  H     H_    0.423174 0.751361 0.605496 0.133038
H144  H     H_    0.492317 0.846404 0.620847 0.156052
H145  H     H_    0.324021 0.798904 0.618219 0.206040
H146  H     H_    0.390934 0.899521 0.636215 0.210707
H147  H     H_    0.383499 0.833621 0.500467 0.304946
H148  H     H_    0.283393 0.806267 0.491702 0.274561
H149  H     H_    0.317465 0.730839 0.480493 0.245155
H150  H     H_    0.146755 0.208048 0.048003 0.144409
H151  H     H_    0.150375 0.116704 0.037478 0.091761
H152  H     H_    0.232471 0.282976 0.202008 0.206404
N1    N     N_R   0.613530 0.956740 0.956480 -0.069802
N2    N     N_R   0.386500 0.842990 0.843230 -0.056869
N3    N     N_R   0.499770 0.842990 0.956480 -0.048140
N4    N     N_R   0.500230 0.157010 0.043520 -0.050600
N5    N     N_R   0.456470 0.956710 0.113500 -0.132027
N6    N     N_R   0.543530 0.043290 0.886500 -0.118068
N7    N     N_R   0.656800 0.043290 0.999750 -0.087503
N8    N     N_R   0.343200 0.956710 0.000250 -0.095973
N9    N     N_R   0.386470 0.043260 0.043520 -0.068618
N10   N     N_R   0.499750 0.043260 0.156770 -0.129232
N11   N     N_R   0.500250 0.956740 0.843230 -0.115307
N12   N     N_R   0.656790 0.157020 0.113500 -0.082866
N13   N     N_R   0.343210 0.842980 0.886500 -0.082909
N14   N     N_R   0.456490 0.842980 0.999750 -0.050812
N15   N     N_R   0.543510 0.157020 0.000250 -0.040516
N16   N     N_R   0.613500 0.157010 0.156770 -0.066703
Ni1   Ni    Ni4+2 0.500010 0.900760 0.900750 0.235561
Ni2   Ni    Ni4+2 0.499990 0.099240 0.099250 0.183557
Ni3   Ni    Ni4+2 0.599260 0.099260 0.000000 0.287954
Ni4   Ni    Ni4+2 0.400740 0.900740 0.000000 0.235664
O1    O     O_3   0.690647 0.942879 0.470073 -0.658320
O2    O     O_3   0.925767 0.986709 0.959678 -0.654521
O3    O     O_3   0.583072 0.151806 0.298840 -0.673788
O4    O     O_3   0.480756 0.847835 0.723079 -0.670156
O5    O     O_3   0.087114 0.153914 0.098585 -0.672531
O6    O     O_3   0.960962 0.867930 0.116309 -0.627644
O7    O     O_3   0.430030 0.845179 0.143095 -0.686357
O8    O     O_3   0.645068 0.146629 0.882107 -0.631070
O9    O     O_3   0.798566 0.146923 0.096807 -0.662507
O10   O     O_3   0.211128 0.853237 0.966822 -0.638689
O11   O     O_3   0.547533 0.558694 0.977605 -0.645988
O12   O     O_3   0.531908 0.088544 0.595541 -0.652556
O13   O     O_3   0.244741 0.282105 0.812848 -0.632667
O14   O     O_3   0.536277 0.850690 0.495948 -0.662003
O15   O     O_3   0.683927 0.182385 0.584627 -0.638975
O16   O     O_3   0.967042 0.623794 0.609680 -0.632830
O17   O     O_3   0.998482 0.444515 0.350394 -0.643729
O18   O     O_3   0.038312 0.138395 0.231068 -0.629520
O19   O     O_3   0.010719 0.876626 0.980058 -0.647143
O20   O     O_3   0.112067 0.029219 0.253904 -0.617137

loop_
_geom_bond_atom_site_label_1
_geom_bond_atom_site_label_2
_ccdc_geom_bond_type
C120  H96   S    
C118  C119  S    
C85   O5    S    
C113  H78   S    
C127  H112  S    
C36   O13   S    
C93   N16   A    
C29   H38   S    
C30   H41   S    
C19   O7    S    
C93   H142  S    
C109  H70   S    
C29   C30   S    
C51   O1    S    
C64   C71   S    
C47   C51   S    
C51   C58   S    
C124  H105  S    
C38   H58   S    
C79   C86   S    
C19   H16   S    
C26   C27   S    
C104  C105  S    
C80   O18   S    
C112  H77   S    
C41   C43   S    
C42   C44   S    
N5    N10   A    
C122  H76   S    
C105  H61   S    
C97   O7    S    
C73   C78   A    
C5    H133  S    
C125  H106  S    
C40   C42   S    
C117  C118  S    
C70   H98   S    
Br4   C48   S    
C27   H32   S    
C126  H108  S    
C69   C71   S    
Br6   C63   S    
C66   C75   T    
C4    H129  S    
C52   O12   S    
C123  H101  S    
C5    H132  S    
C63   C65   S    
C120  H97   S    
C115  H83   S    
C117  O16   S    
C32   H47   S    
C108  H69   S    
C22   O8    S    
C34   H50   S    
C130  H121  S    
C20   H18   S    
C86   C88   S    
C98   N6    A    
C10   H146  S    
C74   N13   A    
C84   O6    S    
C120  O17   S    
C79   C81   S    
C99   C102  A    
C54   C67   S    
C25   H28   S    
C64   O16   S    
C22   H22   S    
C49   N10   A    
C3    O2    S    
N8    N9    A    
C104  O1    S    
C18   H11   S    
C109  H72   S    
C96   H24   S    
C131  C132  S    
C1    C102  A    
C129  H117  S    
N13   Ni4   S    
C119  H95   S    
C33   H49   S    
C12   H150  S    
C118  H91   S    
C8    H140  S    
C48   C58   S    
C26   O9    S    
C110  H73   S    
C35   C100  S    
C83   C90   T    
C110  C112  S    
C6    H136  S    
N3    N14   A    
C114  H82   S    
C65   C69   S    
C14   C15   S    
C2    C41   S    
C26   H31   S    
C92   H131  S    
C131  H123  S    
C120  C121  S    
C63   C71   S    
C116  H85   S    
C115  C116  S    
C91   C100  A    
C117  H89   S    
C101  C103  A    
C30   C31   S    
C70   C72   S    
C35   C44   T    
C107  C108  S    
C17   H9    S    
C64   C70   S    
C13   O11   S    
C9    H144  S    
Br3   C47   S    
C124  H104  S    
C23   H25   S    
C52   C59   S    
C47   C55   S    
C3    H128  S    
C31   H44   S    
N11   Ni1   S    
C96   C111  A    
C45   C103  A    
C37   H56   S    
C85   C87   S    
C121  H99   S    
C62   C69   S    
C77   C84   S    
N16   Ni2   S    
C21   H20   S    
C15   H6    S    
C80   C86   S    
C119  H93   S    
C27   H33   S    
C99   O9    S    
C17   C18   S    
N5    Ni4   S    
C9    C10   S    
C92   C111  A    
C108  H68   S    
Br7   C73   S    
N9    Ni2   S    
C2    H87   S    
C106  H64   S    
C50   O4    S    
C112  C113  S    
C77   C80   S    
C50   N11   A    
C128  C129  S    
C16   H7    S    
C82   C88   T    
C98   O8    S    
C18   H12   S    
C45   N9    A    
C101  O10   S    
C99   N7    A    
C51   C57   S    
C77   C87   S    
C38   H59   S    
N2    Ni1   S    
C11   H148  S    
C79   C85   S    
C132  H126  S    
N6    N11   A    
C31   H42   S    
N12   N16   A    
C4    C5    S    
C132  H124  S    
C107  H66   S    
C6    C7    S    
C94   H2    S    
C77   O20   S    
C28   H34   S    
C24   C40   S    
C33   C34   S    
C128  H115  S    
C27   C28   S    
C72   C76   S    
C25   H29   S    
C29   O10   S    
C68   C76   T    
C127  C128  S    
C94   N2    A    
C37   C38   S    
C112  H75   S    
C36   H53   S    
Br8   C74   S    
C22   H23   S    
C20   C21   S    
C4    H130  S    
C22   C23   S    
C10   C11   S    
C8    H141  S    
C92   N15   A    
C65   O17   S    
C34   H51   S    
C57   C59   S    
C106  H62   S    
C24   O13   S    
C89   C94   A    
N1    Ni1   S    
C55   C58   S    
C113  H79   S    
C40   C122  S    
C25   H27   S    
C126  H111  S    
C1    N1    A    
C19   H15   S    
C29   H39   S    
C30   H40   S    
C62   C72   S    
C7    H137  S    
N2    N13   A    
Br2   C40   S    
C130  O20   S    
C48   C52   S    
C54   C61   T    
C81   C87   S    
C53   C56   S    
C118  H92   S    
C24   C43   S    
C114  O15   S    
C124  O18   S    
C101  N8    A    
C109  H71   S    
C110  H74   S    
C95   N3    A    
C6    O3    S    
C5    H134  S    
C125  H107  S    
C39   C46   T    
C12   C14   S    
C28   H36   S    
N4    Ni2   S    
C125  C126  S    
C74   C89   A    
C15   H4    S    
C49   O3    S    
C69   H109  S    
C2    C42   S    
C68   C78   S    
C36   C37   S    
C105  C106  S    
C130  H119  S    
C123  H102  S    
C116  H86   S    
C107  O12   S    
C96   N4    A    
N4    N15   A    
C115  H84   S    
C71   C75   S    
C20   H17   S    
C81   O19   S    
N15   Ni3   S    
C129  H116  S    
C130  C131  S    
C9    H143  S    
C33   H48   S    
C67   C98   A    
C11   H149  S    
C3    H127  S    
C31   H43   S    
C7    C8    S    
C37   H55   S    
N12   Ni3   S    
C58   C60   S    
C107  H67   S    
C87   C90   S    
C56   C97   A    
C21   H19   S    
C10   H145  S    
C129  H118  S    
C15   H5    S    
Br5   C62   S    
C52   C55   S    
C128  H114  S    
C55   O15   S    
C8    H139  S    
C104  H46   S    
N6    Ni3   S    
C48   C57   S    
C108  C109  S    
C91   N14   A    
C83   C103  S    
N8    Ni4   S    
C16   O6    S    
C6    H135  S    
C95   H13   S    
C124  C125  S    
C114  H81   S    
C14   H3    S    
C45   H65   S    
C23   C25   S    
C95   C100  A    
C14   H152  S    
C26   H30   S    
C39   C111  S    
C97   N5    A    
C84   C86   S    
C13   C42   S    
C116  H88   S    
C43   C122  S    
C50   C67   A    
C66   C89   S    
C9    O4    S    
C21   H21   S    
C16   C17   S    
C117  H90   S    
C16   H8    S    
C1    H1    S    
C32   H45   S    
N14   Ni4   S    
C17   H10   S    
C59   C61   S    
N1    N7    A    
C2    C24   S    
C38   H60   S    
C23   H26   S    
C11   H147  S    
N10   Ni2   S    
C7    H138  S    
C127  H113  S    
C81   C84   S    
C13   C41   S    
N7    Ni3   S    
C32   C33   S    
C79   O2    S    
C121  H100  S    
C18   H14   S    
C126  H110  S    
C82   C102  S    
C57   O14   S    
C73   N12   A    
C49   C56   A    
C12   O5    S    
C80   C85   S    
C119  H94   S    
C127  O19   S    
C132  H125  S    
C12   H151  S    
C28   H37   S    
C32   O11   S    
C47   C59   S    
C3    C4    S    
C36   H54   S    
C43   C46   S    
C123  H103  S    
C53   C60   T    
N3    Ni1   S    
C91   H120  S    
C113  H80   S    
C65   C72   S    
C13   C122  S    
C110  O14   S    
C34   H52   S    
C104  H35   S    
C131  H122  S    
C19   C20   S    
C105  H57   S    
C106  H63   S    
C62   C64   S    
C114  C115  S    
C78   C93   A    
Br1   C41   S    
C63   C70   S    
C121  C123  S    
