data_mof_unit_56443.cif
_audit_creation_date              2012-12-11T14:29:48-0500
_audit_creation_method            fapswitch 2.2
_symmetry_space_group_name_H-M    P1
_symmetry_Int_Tables_number       1
_space_group_crystal_system       triclinic
_cell_length_a                    6.931631
_cell_length_b                    14.72161
_cell_length_c                    16.34224
_cell_angle_alpha                 90.350852
_cell_angle_beta                  89.912573
_cell_angle_gamma                 89.982184
_cell_volume                      1667.60680041

loop_
_atom_site_label
_atom_site_type_symbol
_atom_type_description
_atom_site_fract_x
_atom_site_fract_y
_atom_site_fract_z
_atom_type_partial_charge
O1    O     O_R   0.494400 0.416610 0.413880 -0.541346
O2    O     O_R   0.823920 0.406790 0.585520 -0.554246
O3    O     O_R   0.994250 0.583390 0.586120 -0.538428
C1    C     C_R   0.653798 0.383439 0.612407 0.641405
O4    O     O_R   0.824110 0.405730 0.414490 -0.539557
O5    O     O_R   0.994440 0.582310 0.413870 -0.540932
C2    C     C_R   0.655442 0.385912 0.384976 0.754688
O6    O     O_R   0.494210 0.417690 0.586130 -0.539736
O7    O     O_3   0.660810 0.557940 0.500000 -0.372336
V1    V     V_3+5 0.935650 0.489250 0.500000 1.388112
O8    O     O_R   0.324160 0.593210 0.414480 -0.547063
C3    C     C_R   0.156216 0.610085 0.383120 0.739487
O9    O     O_R   0.323970 0.594270 0.585510 -0.541285
C4    C     C_R   0.154231 0.620626 0.610383 0.713130
V2    V     V_3+5 0.435660 0.510750 0.500000 1.400601
O10   O     O_3   0.160630 0.442060 0.500000 -0.375855
H1    H     H_    0.877427 0.926258 0.521502 0.128314
C5    C     C_R   0.263917 0.575094 0.772985 -0.259529
C6    C     C_R   0.301087 0.545423 0.852304 0.440526
C7    C     C_R   0.247201 0.599477 0.918289 -0.262518
C8    C     C_R   0.170363 0.686072 0.905915 0.375921
C9    C     C_R   0.161346 0.723284 0.825446 -0.034899
C10   C     C_R   0.192295 0.663744 0.757719 -0.045148
C11   C     C_R   0.120482 0.816623 0.811497 -0.151558
C12   C     C_R   0.090300 0.848133 0.729729 -0.023403
C13   C     C_R   0.082950 0.783803 0.662956 0.033114
C14   C     C_R   0.144470 0.691364 0.676952 -0.104841
C15   C     C_R   0.062007 0.942858 0.712284 0.117187
C16   C     C_R   0.965054 0.968034 0.640422 0.168355
C17   C     C_R   0.943034 0.904712 0.578403 -0.136090
C18   C     C_R   0.018435 0.817092 0.584975 0.099534
H2    H     H_    0.293326 0.527255 0.724157 0.136586
H3    H     H_    0.259946 0.573202 0.979818 0.152110
C19   C     C_2   0.990715 0.710791 0.283714 -0.142844
C20   C     C_2   0.152283 0.670458 0.311375 -0.308642
H4    H     H_    0.853248 0.695640 0.312522 0.139582
H5    H     H_    0.287766 0.679908 0.279487 0.148041
C21   C     C_2   0.986522 0.770550 0.210311 -0.120774
C22   C     C_2   0.124753 0.831384 0.189297 0.017565
H6    H     H_    0.857788 0.765495 0.172907 0.098920
C23   C     C_2   0.776957 0.219784 0.790000 -0.130770
C24   C     C_2   0.614080 0.187453 0.824256 -0.262443
H7    H     H_    0.915737 0.194154 0.810073 0.135822
H8    H     H_    0.476569 0.218297 0.810270 0.181719
C25   C     C_2   0.778767 0.293893 0.728079 -0.233490
C26   C     C_2   0.636481 0.308671 0.673209 0.325284
H9    H     H_    0.904900 0.337610 0.727699 0.091092
C27   C     C_2   0.767377 0.215184 0.210045 -0.138690
C28   C     C_2   0.609259 0.165863 0.188880 0.018901
H10   H     H_    0.895252 0.210786 0.171715 0.114382
C29   C     C_2   0.785663 0.273894 0.284372 -0.136105
C30   C     C_2   0.640537 0.325955 0.312727 -0.316458
H11   H     H_    0.926653 0.278207 0.313022 0.138768
H12   H     H_    0.504093 0.327189 0.280597 0.148723
O11   O     O_R   0.770210 0.079270 0.910680 -0.544125
O12   O     O_R   0.440150 0.091160 0.082270 -0.540064
O13   O     O_R   0.269970 0.914530 0.082860 -0.531711
C31   C     C_R   0.607850 0.109932 0.112871 0.719377
O14   O     O_R   0.440480 0.090100 0.911240 -0.546148
O15   O     O_R   0.270310 0.913460 0.910610 -0.539792
C32   C     C_R   0.609546 0.113960 0.885208 0.721677
O16   O     O_R   0.769870 0.080340 0.082930 -0.551714
O17   O     O_3   0.603660 0.938980 0.996790 -0.370772
V3    V     V_3+5 0.328750 0.007610 0.996740 1.419631
O18   O     O_R   0.940600 0.902510 0.911180 -0.535773
C33   C     C_R   0.109542 0.881088 0.882384 0.826225
O19   O     O_R   0.940270 0.903570 0.082200 -0.552985
C34   C     C_R   0.109132 0.885715 0.113124 0.789736
V4    V     V_3+5 0.828770 0.986010 0.996670 1.411604
O20   O     O_3   0.103730 0.054750 0.996710 -0.381007
C35   C     C_3   0.293694 0.853332 0.244822 -0.769984
H13   H     H_    0.338406 0.925174 0.237316 0.189113
H14   H     H_    0.255288 0.845863 0.310402 0.222874
H15   H     H_    0.419172 0.809865 0.228773 0.203716
O21   O     O_3   0.488165 0.245369 0.665719 -0.552126
C36   C     C_3   0.305802 0.286561 0.677382 -0.236604
H16   H     H_    0.240986 0.303856 0.617425 0.174735
H17   H     H_    0.309665 0.347314 0.718459 0.144134
H18   H     H_    0.208406 0.236659 0.706539 0.134739
C37   C     C_3   0.434705 0.157401 0.244347 -0.757315
H19   H     H_    0.363477 0.090580 0.235436 0.190468
H20   H     H_    0.475596 0.160711 0.309934 0.223321
H21   H     H_    0.327290 0.210739 0.229619 0.198676
O22   O     O_3   0.371577 0.459164 0.865829 -0.555833
C38   C     C_3   0.574024 0.461915 0.858035 -0.258207
H22   H     H_    0.639345 0.511825 0.901402 0.131793
H23   H     H_    0.617877 0.477515 0.794093 0.123474
H24   H     H_    0.632565 0.394066 0.873452 0.175678
O23   O     O_3   0.092367 0.730700 0.972754 -0.563556
C39   C     C_3   0.899792 0.700865 0.981863 -0.236245
H25   H     H_    0.894542 0.628521 0.001066 0.126213
H26   H     H_    0.814444 0.710552 0.924817 0.132294
H27   H     H_    0.828781 0.741802 0.030247 0.162148
C40   C     C_3   0.161133 0.017242 0.760850 -0.739221
H28   H     H_    0.304577 0.993546 0.781544 0.207851
H29   H     H_    0.195413 0.076940 0.722830 0.208779
H30   H     H_    0.069899 0.040389 0.812595 0.206837
C41   C     C_3   0.886513 0.062619 0.627808 -0.746475
H31   H     H_    0.792954 0.066380 0.572797 0.206221
H32   H     H_    0.796464 0.081916 0.681162 0.237566
H33   H     H_    0.004765 0.112422 0.619442 0.206274
C42   C     C_3   0.027024 0.765270 0.505893 -0.754316
H34   H     H_    0.999033 0.808771 0.451827 0.189359
H35   H     H_    0.174768 0.738577 0.496828 0.193701
H36   H     H_    0.913235 0.712810 0.505397 0.236878

loop_
_geom_bond_atom_site_label_1
_geom_bond_atom_site_label_2
_ccdc_geom_bond_type
C31   O16   A    
C23   C24   D    
C6    C7    A    
C36   H18   S    
C1    O6    A    
C1    C26   S    
C25   C26   D    
C12   C15   A    
O14   V3    S    
C16   C41   S    
O13   V3    S    
C15   C16   A    
C20   H5    S    
C36   H17   S    
C2    C30   S    
C19   C20   D    
V4    O20   S    
O5    C3    A    
C21   C22   D    
V2    O10   S    
C42   H36   S    
C15   C40   S    
C5    C6    A    
C22   C34   S    
O8    V2    S    
O22   C38   S    
C27   C29   S    
O17   V4    S    
O12   V3    S    
O1    V2    S    
V3    O20   S    
C4    C14   S    
O7    V1    S    
C11   C33   S    
C40   H29   S    
C27   H10   S    
O15   C33   A    
C13   C18   A    
O1    C2    A    
O9    C4    A    
H1    C17   S    
C23   H7    S    
C40   H28   S    
C24   H8    S    
C37   H21   S    
O4    V1    S    
C26   O21   S    
C30   H12   S    
C25   H9    S    
O14   C32   A    
C38   H23   S    
C5    C10   A    
C18   C42   S    
C11   C12   A    
C37   H20   S    
C35   H14   S    
C8    O23   S    
C40   H30   S    
C12   C13   A    
C38   H22   S    
C28   C31   S    
O19   C34   A    
O16   V4    S    
O19   V4    S    
O2    C1    A    
O21   C36   S    
C16   C17   A    
C39   H26   S    
C13   C14   A    
C36   H16   S    
C3    C20   S    
C42   H35   S    
C24   C32   S    
O11   V4    S    
O3    C4    A    
C7    H3    S    
C27   C28   D    
C41   H31   S    
O6    V2    S    
C10   C14   A    
O9    V2    S    
C9    C11   A    
C5    H2    S    
O13   C34   A    
C6    O22   S    
O2    V1    S    
C39   H27   S    
O4    C2    A    
C38   H24   S    
C23   C25   S    
C19   C21   S    
C37   H19   S    
O5    V1    S    
C35   H15   S    
O8    C3    A    
C41   H33   S    
C41   H32   S    
C28   C37   S    
O15   V3    S    
O7    V2    S    
C29   C30   D    
O3    V1    S    
V1    O10   S    
C21   H6    S    
C39   H25   S    
C17   C18   A    
O18   V4    S    
O11   C32   A    
O12   C31   A    
C19   H4    S    
C42   H34   S    
O17   V3    S    
C35   H13   S    
C7    C8    A    
O18   C33   A    
C22   C35   S    
C9    C10   A    
C29   H11   S    
O23   C39   S    
C8    C9    A    
