data_mof_unit_63244.cif
_audit_creation_date              2012-12-10T20:22:28-0500
_audit_creation_method            fapswitch 2.2
_symmetry_space_group_name_H-M    P1
_symmetry_Int_Tables_number       1
_space_group_crystal_system       triclinic
_cell_length_a                    19.286986
_cell_length_b                    18.438326
_cell_length_c                    15.838718
_cell_angle_alpha                 90.002764
_cell_angle_beta                  89.970066
_cell_angle_gamma                 90.000256
_cell_volume                      5632.55992932

loop_
_atom_site_label
_atom_site_type_symbol
_atom_type_description
_atom_site_fract_x
_atom_site_fract_y
_atom_site_fract_z
_atom_type_partial_charge
C1    C     C_R   0.365532 0.500007 0.500039 0.878146
C2    C     C_R   0.634468 0.500007 0.499962 0.878138
C3    C     C_R   0.709798 0.500049 0.499831 -0.048190
C4    C     C_R   0.290202 0.500048 0.500170 -0.048190
C5    C     C_R   0.963723 0.500586 0.577297 0.230849
C6    C     C_R   0.036277 0.499851 0.422703 0.230854
C7    C     C_R   0.036023 0.500585 0.577431 0.228605
C8    C     C_R   0.963977 0.499849 0.422569 0.228602
C9    C     C_R   0.071697 0.500205 0.500133 -0.208222
C10   C     C_R   0.928303 0.500207 0.499867 -0.208214
C11   C     C_R   0.554457 0.726137 0.465486 0.040570
C12   C     C_R   0.533912 0.273900 0.437677 0.038080
C13   C     C_R   0.445544 0.726140 0.534513 0.040558
C14   C     C_R   0.466088 0.273905 0.562323 0.038062
C15   C     C_R   0.555597 0.802270 0.465127 -0.192168
C16   C     C_R   0.534329 0.197766 0.436330 -0.192605
C17   C     C_R   0.444404 0.802273 0.534872 -0.192157
C18   C     C_R   0.465671 0.197772 0.563671 -0.192621
C19   C     C_R   0.500001 0.841229 0.500000 0.172246
C20   C     C_R   0.500000 0.158816 0.500001 0.172147
C21   C     C_R   0.457089 0.961447 0.442978 -0.082405
C22   C     C_R   0.542415 0.038610 0.557573 -0.082523
C23   C     C_R   0.542913 0.961452 0.557024 -0.082404
C24   C     C_R   0.457585 0.038604 0.442429 -0.082527
C25   C     C_R   0.500000 0.077394 0.500001 -0.091202
C26   C     C_R   0.500001 0.922658 0.500000 -0.090801
C27   C     C_R   0.499998 0.499996 0.339101 0.918846
C28   C     C_R   0.500002 0.499999 0.660899 0.918841
C29   C     C_R   0.500885 0.565979 0.956230 -0.154372
C30   C     C_R   0.499127 0.433947 0.043771 -0.158680
C31   C     C_R   0.500898 0.565976 0.043781 -0.154447
C32   C     C_R   0.499113 0.433950 0.956218 -0.158764
C33   C     C_R   0.499991 0.499966 0.913085 0.157680
C34   C     C_R   0.500019 0.499961 0.086915 0.157678
C35   C     C_1   0.499987 0.499975 0.824239 -0.045737
C36   C     C_1   0.500019 0.499965 0.175761 -0.045738
C37   C     C_1   0.500012 0.499981 0.250650 -0.156072
C38   C     C_1   0.499991 0.499990 0.749350 -0.156068
C39   C     C_R   0.746100 0.434071 0.499957 -0.176917
C40   C     C_R   0.253982 0.566081 0.500188 -0.180556
C41   C     C_R   0.253900 0.434072 0.500287 -0.176940
C42   C     C_R   0.746019 0.566083 0.499572 -0.180567
C43   C     C_R   0.817933 0.434205 0.499921 -0.076125
C44   C     C_R   0.182151 0.566051 0.500224 -0.077685
C45   C     C_R   0.182067 0.434206 0.500327 -0.076139
C46   C     C_R   0.817849 0.566054 0.499530 -0.077705
C47   C     C_R   0.853418 0.500155 0.499737 0.214817
C48   C     C_R   0.146583 0.500155 0.500263 0.214809
H1    H     H_    0.501586 0.617015 0.077721 0.159948
H2    H     H_    0.498424 0.382911 0.922276 0.153343
H3    H     H_    0.501565 0.617020 0.922298 0.160034
H4    H     H_    0.498446 0.382907 0.077704 0.153426
H5    H     H_    0.719149 0.382537 0.500118 0.173164
H6    H     H_    0.280994 0.617581 0.500140 0.160637
H7    H     H_    0.280850 0.382539 0.500322 0.173109
H8    H     H_    0.719007 0.617585 0.499427 0.160573
H9    H     H_    0.845925 0.383253 0.500075 0.158298
H10   H     H_    0.154226 0.617042 0.500183 0.154631
H11   H     H_    0.154074 0.383255 0.500368 0.158283
H12   H     H_    0.845775 0.617047 0.499378 0.154616
H13   H     H_    0.597200 0.696358 0.438062 0.127891
H14   H     H_    0.560748 0.303763 0.388810 0.131722
H15   H     H_    0.402799 0.696363 0.561936 0.127990
H16   H     H_    0.439251 0.303772 0.611189 0.131638
H17   H     H_    0.599275 0.830606 0.437581 0.150116
H18   H     H_    0.561411 0.169424 0.386330 0.150417
H19   H     H_    0.400726 0.830611 0.562418 0.150155
H20   H     H_    0.438588 0.169434 0.613671 0.150382
N1    N     N_R   0.500000 0.689440 0.500000 -0.098718
N2    N     N_R   0.500000 0.310560 0.500000 -0.100132
O1    O     O_R   0.398180 0.560840 0.499980 -0.632001
O2    O     O_R   0.601820 0.439160 0.500020 -0.620444
O3    O     O_R   0.601820 0.560840 0.500020 -0.632000
O4    O     O_R   0.398180 0.439160 0.499980 -0.620450
O5    O     O_R   0.499980 0.560800 0.378020 -0.605466
O6    O     O_R   0.500020 0.439200 0.621980 -0.620697
O7    O     O_R   0.500020 0.560800 0.621980 -0.605422
O8    O     O_R   0.499980 0.439200 0.378020 -0.620659
Zn1   Zn    Zn3+2 0.500000 0.581210 0.500000 0.976027
Zn2   Zn    Zn3+2 0.500000 0.418790 0.500000 0.972160
Br1   Br    Br    0.913063 0.501067 0.682459 -0.378862
Br2   Br    Br    0.086937 0.499387 0.317540 -0.378808
Br3   Br    Br    0.086338 0.501050 0.682773 -0.385892
Br4   Br    Br    0.913662 0.499369 0.317228 -0.385878
C49   C     C_2   0.410149 0.921128 0.384988 0.964104
O9    O     O_2   0.432509 0.870957 0.342427 -0.599994
O10   O     O_R   0.340279 0.940741 0.379259 -0.776783
H21   H     H_    0.313675 0.909497 0.337745 0.359630
C50   C     C_2   0.585197 0.078937 0.620146 0.965195
O11   O     O_2   0.622142 0.129131 0.597230 -0.600831
O12   O     O_R   0.583057 0.059303 0.705379 -0.777957
H22   H     H_    0.614371 0.090550 0.741691 0.358685
C51   C     C_2   0.589855 0.921138 0.615013 0.964105
O13   O     O_2   0.567500 0.870958 0.657559 -0.600005
O14   O     O_R   0.659719 0.940766 0.620759 -0.776780
H23   H     H_    0.686325 0.909523 0.662269 0.359637
C52   C     C_2   0.414801 0.078925 0.379858 0.965178
O15   O     O_2   0.377857 0.129122 0.402775 -0.600821
O16   O     O_R   0.416936 0.059282 0.294626 -0.777954
H24   H     H_    0.385621 0.090525 0.258315 0.358675

loop_
_geom_bond_atom_site_label_1
_geom_bond_atom_site_label_2
_ccdc_geom_bond_type
C7    Br3   S    
C21   C26   A    
C3    C42   A    
C51   O13   D    
C6    Br2   S    
C14   C18   A    
O14   H23   S    
O10   H21   S    
C27   O8    A    
C6    C9    A    
O1    Zn1   S    
C52   O15   D    
C49   O9    D    
C15   C19   A    
C1    O1    A    
C1    O4    A    
C36   C37   T    
C2    O2    A    
C4    C41   A    
C18   H20   S    
C15   H17   S    
C29   C33   A    
C5    Br1   S    
C42   C46   A    
C23   C26   A    
C19   C26   S    
C41   H7    S    
C30   H4    S    
C42   H8    S    
C11   C15   A    
C4    C40   A    
C44   H10   S    
C22   C25   A    
C50   O12   S    
C43   C47   A    
C34   C36   S    
C49   O10   S    
C3    C39   A    
C51   O14   S    
O4    Zn2   S    
C14   N2    A    
C31   H1    S    
C27   O5    A    
C52   O16   S    
O7    Zn1   S    
C21   C49   S    
C17   H19   S    
C30   C34   A    
N2    Zn2   S    
C24   C52   S    
C12   C16   A    
C35   C38   T    
C24   C25   A    
O12   H22   S    
C5    C7    A    
C17   C19   A    
C6    C8    A    
C23   C51   S    
C12   H14   S    
O16   H24   S    
C13   H15   S    
C28   C38   S    
C16   C20   A    
C14   H16   S    
O3    Zn1   S    
C31   C34   A    
C28   O7    A    
O8    Zn2   S    
C32   H2    S    
C2    O3    A    
C8    C10   A    
C40   H6    S    
N1    Zn1   S    
C16   H18   S    
C28   O6    A    
C29   H3    S    
C45   C48   A    
C7    C9    A    
C12   N2    A    
C46   C47   A    
C45   H11   S    
C46   H12   S    
C8    Br4   S    
O6    Zn2   S    
C11   H13   S    
C39   C43   A    
C11   N1    A    
C13   C17   A    
C1    C4    S    
C32   C33   A    
C2    C3    S    
C5    C10   A    
O2    Zn2   S    
C30   C32   A    
C39   H5    S    
C13   N1    A    
C27   C37   S    
C33   C35   S    
C22   C50   S    
C18   C20   A    
C43   H9    S    
C40   C44   A    
C9    C48   S    
C29   C31   A    
C20   C25   S    
C21   C24   A    
C10   C47   S    
C41   C45   A    
C22   C23   A    
C50   O11   D    
O5    Zn1   S    
C44   C48   A    
