data_mof_unit_41700.cif
_audit_creation_date              2013-03-05T16:15:17-0500
_audit_creation_method            fapswitch 2.2
_symmetry_space_group_name_H-M    P1
_symmetry_Int_Tables_number       1
_space_group_crystal_system       triclinic
_cell_length_a                    27.613066
_cell_length_b                    10.793165
_cell_length_c                    9.45382
_cell_angle_alpha                 90.575575
_cell_angle_beta                  89.910247
_cell_angle_gamma                 86.296216
_cell_volume                      2811.51080036

loop_
_atom_site_label
_atom_site_type_symbol
_atom_site_description
_atom_site_fract_x
_atom_site_fract_y
_atom_site_fract_z
_atom_type_partial_charge
O1    O     O_R   0.500020 0.316850 0.620870 -0.515932
O2    O     O_R   0.499980 0.683150 0.379130 -0.502394
O3    O     O_R   0.500000 0.316860 0.379090 -0.565525
O4    O     O_R   0.500000 0.683140 0.620910 -0.573125
C1    C     C_R   0.499354 0.259851 0.499569 0.938747
C2    C     C_R   0.500289 0.740300 0.500583 0.981024
O5    O     O_R   0.430270 0.500020 0.620880 -0.480738
O6    O     O_R   0.569730 0.499980 0.379120 -0.544209
O7    O     O_R   0.430250 0.500030 0.379090 -0.597470
O8    O     O_R   0.569750 0.499970 0.620910 -0.551405
C3    C     C_R   0.407176 0.498876 0.500080 0.942450
C4    C     C_R   0.592693 0.492483 0.499988 0.907500
Cu1   Cu    Cu3+1 0.500010 0.499990 0.643150 1.130884
Cu2   Cu    Cu3+1 0.499990 0.500010 0.356850 1.086932
C5    C     C_R   0.183181 0.400949 0.539046 0.634538
C6    C     C_R   0.814410 0.526490 0.577643 0.622047
O9    O     O_2   0.215782 0.302335 0.533476 -0.478758
O10   O     O_2   0.781699 0.624077 0.593195 -0.492359
N1    N     N_R   0.199236 0.516595 0.521423 -0.428652
N2    N     N_R   0.798034 0.413328 0.544104 -0.430905
C7    C     C_R   0.168211 0.620144 0.525019 0.671360
C8    C     C_R   0.828740 0.309247 0.537281 0.675911
C9    C     C_R   0.277308 0.559462 0.626280 0.616287
C10   C     C_R   0.716505 0.365699 0.621379 0.630348
C11   C     C_R   0.327796 0.546822 0.623715 0.553601
C12   C     C_R   0.666464 0.392215 0.613277 0.506860
C13   C     C_R   0.325743 0.467195 0.381454 -0.137054
C14   C     C_R   0.676842 0.501689 0.392022 -0.119757
C15   C     C_R   0.274859 0.483430 0.385550 -0.192043
C16   C     C_R   0.726815 0.470012 0.399440 -0.208217
C17   C     C_R   0.250626 0.527588 0.507800 0.098235
C18   C     C_R   0.747008 0.407552 0.516633 0.114135
C19   C     C_R   0.100233 0.490075 0.558946 -0.049583
C20   C     C_R   0.897357 0.436156 0.576887 -0.052040
C21   C     C_R   0.133375 0.384771 0.561979 -0.178008
C22   C     C_R   0.864590 0.541351 0.593950 -0.177976
C23   C     C_R   0.115974 0.268314 0.595152 -0.098471
C24   C     C_R   0.883001 0.656133 0.632039 -0.096389
C25   C     C_R   0.117918 0.609769 0.547771 -0.074044
C26   C     C_R   0.879138 0.317630 0.559717 -0.077536
C27   C     C_R   0.353124 0.502592 0.501203 -0.324040
C28   C     C_R   0.646006 0.464530 0.501726 -0.281983
H1    H     H_    0.253548 0.453027 0.297026 0.223494
H2    H     H_    0.750985 0.504752 0.320750 0.210527
C29   C     C_R   0.981092 0.342484 0.573099 0.085263
C30   C     C_R   0.016522 0.582123 0.575803 0.085032
C31   C     C_R   0.966157 0.568159 0.596681 -0.069804
C32   C     C_R   0.032003 0.356093 0.583101 -0.066935
C33   C     C_R   0.948297 0.448954 0.581636 0.015131
C34   C     C_R   0.049485 0.476001 0.571731 0.014823
C35   C     C_R   0.961798 0.225660 0.556319 -0.143952
C36   C     C_R   0.034952 0.699351 0.558997 -0.140915
C37   C     C_R   0.911952 0.212054 0.562147 -0.070773
C38   C     C_R   0.084630 0.714426 0.557220 -0.068650
O11   O     O_2   0.810789 0.199596 0.503188 -0.472168
O12   O     O_2   0.185968 0.731666 0.501831 -0.488286
C39   C     C_R   0.066130 0.255393 0.609430 0.544427
C40   C     C_R   0.933058 0.668053 0.636872 0.544839
H3    H     H_    0.984847 0.142080 0.541920 0.243420
H4    H     H_    0.011217 0.782225 0.550156 0.239829
C41   C     C_3   0.544518 0.035127 0.520117 -0.383368
C42   C     C_3   0.454052 0.965492 0.481306 -0.390906
C43   C     C_3   0.527935 0.953752 0.396588 0.589302
C44   C     C_3   0.470678 0.047129 0.604638 0.572577
C45   C     C_3   0.499615 0.876922 0.501373 -0.452690
C46   C     C_3   0.499027 0.123561 0.499597 -0.427256
C47   C     C_3   0.516091 0.958494 0.624814 0.585146
C48   C     C_3   0.482444 0.042072 0.376508 0.605506
C49   C     C_3   0.523135 0.589785 0.051014 0.764196
C50   C     C_3   0.476837 0.410017 0.949053 0.793050
C51   C     C_3   0.479652 0.601801 0.952385 -0.154230
C52   C     C_3   0.520418 0.398508 0.047674 -0.177546
N3    N     N_3   0.500040 0.499970 0.858290 -0.273998
N4    N     N_3   0.499960 0.500030 0.141710 -0.279077
C53   C     C_3   0.544084 0.488831 0.948690 -0.236569
C54   C     C_3   0.455862 0.511695 0.051314 -0.247329
H5    H     H_    0.581126 0.480159 0.902569 0.247760
H6    H     H_    0.418969 0.523503 0.097653 0.207016
C55   C     C_2   0.347923 0.401734 0.256247 0.945620
O13   O     O_2   0.331865 0.424280 0.138092 -0.512781
O14   O     O_R   0.385382 0.309625 0.273535 -0.691417
H7    H     H_    0.397209 0.271735 0.180154 0.396099
C56   C     C_2   0.659639 0.585148 0.277153 0.982137
O15   O     O_2   0.673549 0.564650 0.155756 -0.515554
O16   O     O_R   0.629999 0.691519 0.308947 -0.689185
H8    H     H_    0.624746 0.746899 0.223751 0.422292
C57   C     C_2   0.595036 0.073880 0.543720 1.022879
O17   O     O_2   0.614355 0.135529 0.454754 -0.592602
O18   O     O_R   0.619682 0.040006 0.667772 -0.629904
H9    H     H_    0.653358 0.072156 0.671775 0.373365
C58   C     C_2   0.402906 0.930731 0.459781 1.028440
O19   O     O_2   0.370553 0.012262 0.445005 -0.479254
O20   O     O_R   0.392395 0.805872 0.456875 -0.779979
H10   H     H_    0.356596 0.794443 0.442086 0.337186
F1    F     F_    0.533770 0.915562 0.753150 -0.517108
F2    F     F_    0.464609 0.084155 0.248030 -0.540162
C59   C     C_2   0.457082 0.723311 0.901419 0.999467
O21   O     O_2   0.471573 0.820434 0.947334 -0.414831
O22   O     O_R   0.419019 0.725644 0.804667 -0.658951
H11   H     H_    0.407118 0.813193 0.778250 0.358205
C60   C     C_2   0.546850 0.282839 0.099997 1.003899
O23   O     O_2   0.532013 0.181585 0.070523 -0.408813
O24   O     O_R   0.589787 0.291263 0.176169 -0.718735
H12   H     H_    0.606102 0.206736 0.197224 0.381862
F3    F     F_    0.547385 0.686003 0.108641 -0.554382
F4    F     F_    0.452126 0.314399 0.891318 -0.530143
C61   C     C_2   0.149375 0.160486 0.627675 1.026315
O25   O     O_2   0.166002 0.148916 0.746948 -0.530410
O26   O     O_R   0.164228 0.077119 0.519698 -0.669972
H13   H     H_    0.189065 0.010511 0.553000 0.375012
C62   C     C_2   0.850829 0.764300 0.674327 1.027477
O27   O     O_2   0.841024 0.782148 0.799317 -0.534848
O28   O     O_R   0.829683 0.841365 0.570319 -0.677218
H14   H     H_    0.805577 0.907230 0.610787 0.370314
F5    F     F_    0.638103 0.348057 0.716300 -0.616242
F6    F     F_    0.351519 0.574508 0.744073 -0.545961
F7    F     F_    0.735631 0.305799 0.735960 -0.569202
F8    F     F_    0.254054 0.596722 0.747528 -0.560467
C63   C     C_2   0.896472 0.090176 0.605698 0.990478
O29   O     O_2   0.913421 0.994876 0.548593 -0.522808
O30   O     O_R   0.865570 0.085490 0.722435 -0.689531
H15   H     H_    0.864293 0.999251 0.761667 0.369633
C64   C     C_2   0.099607 0.838731 0.594614 0.991784
O31   O     O_2   0.083008 0.929730 0.530815 -0.515327
O32   O     O_R   0.129538 0.851498 0.712190 -0.680918
H16   H     H_    0.131263 0.940599 0.743962 0.372429
F9    F     F_    0.052156 0.148322 0.666310 -0.645663
F10   F     F_    0.948680 0.773852 0.695247 -0.640471
F11   F     F_    0.557094 0.907266 0.287176 -0.534338
F12   F     F_    0.441169 0.095346 0.712732 -0.516846

loop_
_geom_bond_atom_site_label_1
_geom_bond_atom_site_label_2
_geom_bond_distance
_ccdc_geom_bond_type
C46   C48   1.539647 S    
C57   O17   1.220826 D    
C43   C45   1.542194 S    
C40   F10   1.358796 S    
O20   H10   1.013800 S    
C13   C15   1.405111 A    
N3    C53   1.486739 S    
C62   O27   1.222434 D    
C38   C64   1.469237 S    
N1    C17   1.437289 S    
C9    F8    1.357584 S    
C10   C18   1.396285 A    
C59   O21   1.221885 D    
C64   O31   1.221939 D    
C31   C33   1.413264 A    
O16   H8    1.012841 S    
C5    N1    1.362979 A    
C51   C59   1.499540 S    
C10   F7    1.357207 S    
C48   F2    1.381360 S    
N4    C54   1.488140 S    
O1    C1    1.296614 A    
Cu2   N4    2.033899 S    
N1    C7    1.363673 A    
C10   C12   1.395264 A    
C23   C61   1.472765 S    
C13   C55   1.483373 S    
C51   C54   1.533290 S    
C64   O32   1.397169 S    
C25   C38   1.411530 A    
C52   C60   1.493929 S    
C29   C35   1.407808 A    
C30   C36   1.404318 A    
C41   C43   1.542048 S    
C14   C28   1.418161 A    
O4    Cu1   1.990000 S    
C49   C51   1.521076 S    
C41   C47   1.542021 S    
C12   F5    1.358026 S    
C4    C28   1.483671 S    
C41   C57   1.498387 S    
C24   C40   1.397225 A    
C41   C46   1.541467 S    
C2    C45   1.473439 S    
O22   H11   1.013966 S    
C45   C47   1.541675 S    
C42   C44   1.542700 S    
C61   O25   1.222654 D    
C49   C53   1.534042 S    
C36   H4    1.078225 S    
C6    N2    1.364112 A    
C32   C34   1.415228 A    
C60   O24   1.395637 S    
Cu1   Cu2   2.706631 S    
C15   H1    1.084120 S    
C14   C56   1.477279 S    
C47   F1    1.381652 S    
C61   O26   1.397294 S    
C16   H2    1.084339 S    
O2    C2    1.298231 A    
C52   C53   1.533561 S    
C5    C21   1.414142 A    
C59   O22   1.393541 S    
C36   C38   1.391851 A    
O14   H7    1.013819 S    
C63   O30   1.397279 S    
C54   H6    1.107536 S    
C60   O23   1.221433 D    
C32   C39   1.416033 A    
C52   N4    1.486261 S    
C50   F4    1.381804 S    
C11   F6    1.354197 S    
C11   C27   1.414810 A    
C58   O19   1.221989 D    
C55   O14   1.398521 S    
C49   F3    1.379603 S    
C19   C34   1.424312 A    
C35   C37   1.394680 A    
C9    C17   1.394055 A    
O5    C3    1.309221 A    
O7    Cu2   1.936837 S    
C44   C47   1.540614 S    
C58   O20   1.396754 S    
O7    C3    1.308992 A    
C13   C27   1.424961 A    
C56   O15   1.223168 D    
C7    C25   1.416709 A    
C29   C33   1.417963 A    
O6    C4    1.308358 A    
C8    C26   1.416560 A    
C42   C58   1.498197 S    
C50   N3    1.478089 S    
C49   N4    1.475870 S    
C62   O28   1.398242 S    
C19   C25   1.415149 A    
C53   H5    1.109275 S    
O30   H15   1.008130 S    
O3    Cu2   1.989999 S    
O8    C4    1.305373 A    
O4    C2    1.299767 A    
C56   O16   1.396129 S    
C44   F12   1.382390 S    
C57   O18   1.396835 S    
C50   C54   1.539241 S    
O32   H16   1.008704 S    
C20   C26   1.412516 A    
O1    Cu1   1.985729 S    
C12   C28   1.414884 A    
C51   N3    1.488306 S    
O28   H14   1.013615 S    
N2    C18   1.438317 S    
C29   C32   1.426031 A    
C5    O9    1.349435 S    
C30   C34   1.416403 A    
C30   C31   1.422201 A    
C20   C33   1.422965 A    
O6    Cu2   1.937517 S    
C42   C45   1.543276 S    
C21   C23   1.412298 A    
Cu1   N3    2.033899 S    
N2    C8    1.363949 A    
C1    C46   1.471608 S    
O3    C1    1.300640 A    
O8    Cu1   1.936837 S    
C39   F9    1.357570 S    
C7    O12   1.348526 S    
C63   O29   1.222427 D    
C37   C63   1.471591 S    
C8    O11   1.348645 S    
C43   C48   1.540243 S    
C42   C48   1.541789 S    
C22   C24   1.412746 A    
C24   C62   1.472257 S    
C15   C17   1.398541 A    
O26   H13   1.013807 S    
C6    C22   1.413631 A    
C31   C40   1.416159 A    
C16   C18   1.400430 A    
C14   C16   1.402079 A    
C19   C21   1.412964 A    
C3    C27   1.490501 S    
C20   C22   1.413111 A    
C43   F11   1.380117 S    
O2    Cu2   1.985728 S    
C55   O13   1.223374 D    
O5    Cu1   1.937517 S    
C9    C11   1.392138 A    
C35   H3    1.077247 S    
C6    O10   1.349237 S    
C26   C37   1.409685 A    
O24   H12   1.012778 S    
C50   C52   1.522954 S    
O18   H9    1.013951 S    
C23   C39   1.398773 A    
C44   C46   1.541717 S    
