data_mof_unit_50597.cif
_audit_creation_date              2012-10-26T17:11:07-0400
_audit_creation_method            fapswitch 2.2
_symmetry_space_group_name_H-M    P1
_symmetry_Int_Tables_number       1
_space_group_crystal_system       triclinic
_cell_length_a                    28.051551
_cell_length_b                    18.755634
_cell_length_c                    16.814548
_cell_angle_alpha                 90.000669
_cell_angle_beta                  62.707253
_cell_angle_gamma                 90.000543
_cell_volume                      7861.70833613

loop_
_atom_site_label
_atom_site_type_symbol
_atom_type_description
_atom_site_fract_x
_atom_site_fract_y
_atom_site_fract_z
_atom_type_partial_charge
C1    C     C_R   0.294831 0.728034 0.329661 0.551519
C2    C     C_R   0.439235 0.121633 0.536881 0.121794
C3    C     C_R   0.926550 0.097245 0.066289 0.562673
C4    C     C_R   0.426574 0.402724 0.066270 0.563931
C5    C     C_R   0.573448 0.597248 0.933713 0.562675
C6    C     C_R   0.573423 0.402720 0.933732 0.563927
C7    C     C_R   0.426550 0.597246 0.066289 0.562675
C8    C     C_R   0.048049 0.497563 0.507268 -0.049126
C9    C     C_R   0.951955 0.497563 0.492719 -0.049128
C10   C     C_R   0.548048 0.997560 0.507275 -0.049127
C11   C     C_R   0.451954 0.997561 0.492726 -0.049123
C12   C     C_R   0.026632 0.561960 0.494244 0.068532
C13   C     C_R   0.464946 0.872806 0.451574 0.123198
C14   C     C_R   0.978876 0.432668 0.487539 0.065831
C15   C     C_R   0.973370 0.561959 0.505751 0.068528
C16   C     C_R   0.021127 0.432667 0.512444 0.065831
C17   C     C_R   0.526634 0.061956 0.494241 0.068519
C18   C     C_R   0.478873 0.932665 0.487554 0.065830
C19   C     C_R   0.473373 0.061958 0.505747 0.068537
C20   C     C_R   0.521124 0.932665 0.512458 0.065835
C21   C     C_R   0.114911 0.435186 0.537264 -0.006345
C22   C     C_R   0.873513 0.561894 0.501526 -0.007027
C23   C     C_R   0.885091 0.435187 0.462723 -0.006346
C24   C     C_R   0.560779 0.121624 0.463088 0.121835
C25   C     C_R   0.126490 0.561893 0.498464 -0.007026
C26   C     C_R   0.614910 0.935185 0.537272 -0.006341
C27   C     C_R   0.373515 0.061897 0.501524 -0.007025
C28   C     C_R   0.385089 0.935186 0.462734 -0.006345
C29   C     C_R   0.626490 0.061892 0.498468 -0.007034
C30   C     C_R   0.166307 0.434885 0.535502 -0.025480
C31   C     C_R   0.827721 0.563706 0.485402 -0.023077
C32   C     C_R   0.833694 0.434885 0.464492 -0.025479
C33   C     C_R   0.172280 0.563706 0.514593 -0.023074
C34   C     C_R   0.666306 0.934885 0.535507 -0.025480
C35   C     C_R   0.035053 0.372808 0.548424 0.123201
C36   C     C_R   0.327722 0.063707 0.485403 -0.023075
C37   C     C_R   0.333693 0.934886 0.464499 -0.025479
C38   C     C_R   0.672279 0.063705 0.514597 -0.023075
C39   C     C_R   0.192208 0.499701 0.529886 -0.163179
C40   C     C_R   0.807791 0.499701 0.470112 -0.163179
C41   C     C_R   0.692208 0.999701 0.529890 -0.163177
C42   C     C_R   0.307791 0.999701 0.470117 -0.163181
C43   C     C_R   0.096406 0.498288 0.514930 0.012987
C44   C     C_R   0.903597 0.498289 0.485056 0.012986
C45   C     C_R   0.596405 0.998286 0.514938 0.012985
C46   C     C_R   0.939224 0.621627 0.536903 0.121803
C47   C     C_R   0.403597 0.998289 0.485063 0.012985
C48   C     C_R   0.580733 0.875197 0.562100 -0.110203
C49   C     C_R   0.389293 0.120058 0.537426 -0.112781
C50   C     C_R   0.419264 0.875198 0.437910 -0.110205
C51   C     C_R   0.610720 0.120046 0.462547 -0.112773
C52   C     C_R   0.080734 0.375199 0.562087 -0.110207
C53   C     C_R   0.889284 0.620050 0.537445 -0.112780
C54   C     C_R   0.919268 0.375200 0.437895 -0.110209
C55   C     C_R   0.110719 0.620050 0.462547 -0.112781
C56   C     C_R   0.964950 0.372809 0.451556 0.123202
C57   C     C_R   0.060777 0.621630 0.463098 0.121800
C58   C     C_R   0.221416 0.764290 0.951820 0.023023
C59   C     C_R   0.778266 0.235213 0.048478 0.023246
C60   C     C_R   0.778579 0.764293 0.048186 0.023010
C61   C     C_R   0.705156 0.271942 0.670347 0.568042
C62   C     C_R   0.221729 0.235223 0.951525 0.023229
C63   C     C_R   0.721410 0.264278 0.951826 0.023030
C64   C     C_R   0.278270 0.735221 0.048475 0.023244
C65   C     C_R   0.278577 0.264297 0.048188 0.023004
C66   C     C_R   0.721733 0.735215 0.951523 0.023231
C67   C     C_R   0.269200 0.800819 0.931931 -0.116755
C68   C     C_R   0.730462 0.198711 0.068418 -0.119572
C69   C     C_R   0.730835 0.800894 0.067982 -0.116754
C70   C     C_R   0.269505 0.198678 0.931652 -0.119572
C71   C     C_R   0.769198 0.300801 0.931926 -0.116754
C72   C     C_R   0.705170 0.728032 0.670338 0.551519
C73   C     C_R   0.230470 0.698713 0.068404 -0.119571
C74   C     C_R   0.230818 0.300864 0.068021 -0.116759
C75   C     C_R   0.769492 0.698635 0.931687 -0.119572
C76   C     C_R   0.297447 0.786487 0.980215 -0.118065
C77   C     C_R   0.702215 0.213038 0.020123 -0.118666
C78   C     C_R   0.702591 0.786555 0.019695 -0.118080
C79   C     C_R   0.297749 0.213012 0.979949 -0.118680
C80   C     C_R   0.797446 0.286471 0.980208 -0.118065
C81   C     C_R   0.202224 0.713043 0.020108 -0.118669
C82   C     C_R   0.202574 0.286528 0.019734 -0.118075
C83   C     C_R   0.294845 0.271940 0.329653 0.568043
C84   C     C_R   0.797736 0.712972 0.979985 -0.118682
C85   C     C_R   0.143782 0.826145 0.946747 0.101851
C86   C     C_R   0.855990 0.173502 0.053433 0.101684
C87   C     C_R   0.856214 0.826146 0.053256 0.101842
C88   C     C_R   0.144004 0.173514 0.946570 0.101683
C89   C     C_R   0.643772 0.326129 0.946755 0.101857
C90   C     C_R   0.355993 0.673507 0.053431 0.101684
C91   C     C_R   0.356208 0.326158 0.053262 0.101839
C92   C     C_R   0.644003 0.673516 0.946571 0.101681
C93   C     C_R   0.117672 0.850638 0.896766 0.022449
C94   C     C_R   0.794831 0.228034 0.329661 0.551517
C95   C     C_R   0.882232 0.149226 0.103302 0.021811
C96   C     C_R   0.882327 0.850638 0.103234 0.022450
C97   C     C_R   0.117765 0.149231 0.896699 0.021814
C98   C     C_R   0.617668 0.350632 0.896769 0.022445
C99   C     C_R   0.382234 0.649228 0.103301 0.021812
C100  C     C_R   0.382324 0.350643 0.103237 0.022455
C101  C     C_R   0.617765 0.649232 0.896700 0.021814
C102  C     C_R   0.136816 0.829482 0.807743 -0.168262
C103  C     C_R   0.863155 0.170494 0.192270 -0.170755
C104  C     C_R   0.863183 0.829483 0.192257 -0.168264
C105  C     C_R   0.205156 0.771941 0.670347 0.568041
C106  C     C_R   0.136845 0.170493 0.807729 -0.170754
C107  C     C_R   0.636817 0.329483 0.807742 -0.168263
C108  C     C_R   0.363155 0.670495 0.192270 -0.170753
C109  C     C_R   0.363183 0.329482 0.192257 -0.168263
C110  C     C_R   0.636846 0.670492 0.807729 -0.170756
C111  C     C_R   0.182648 0.787318 0.766266 -0.024813
C112  C     C_R   0.817263 0.212539 0.233802 -0.024841
C113  C     C_R   0.817351 0.787319 0.233734 -0.024814
C114  C     C_R   0.182737 0.212539 0.766198 -0.024841
C115  C     C_R   0.682647 0.287318 0.766267 -0.024813
C116  C     C_R   0.205169 0.228033 0.670339 0.551523
C117  C     C_R   0.317263 0.712540 0.233802 -0.024841
C118  C     C_R   0.317351 0.287317 0.233734 -0.024813
C119  C     C_R   0.682739 0.712535 0.766196 -0.024842
C120  C     C_R   0.209211 0.764470 0.815008 -0.140000
C121  C     C_R   0.790561 0.235148 0.185191 -0.143696
C122  C     C_R   0.790786 0.764471 0.184995 -0.139989
C123  C     C_R   0.209438 0.235151 0.814809 -0.143691
C124  C     C_R   0.709208 0.264466 0.815011 -0.140006
C125  C     C_R   0.290563 0.735151 0.185190 -0.143694
C126  C     C_R   0.290787 0.264470 0.184994 -0.139990
C127  C     C_R   0.794844 0.771941 0.329653 0.568043
C128  C     C_R   0.709443 0.735143 0.814806 -0.143688
C129  C     C_R   0.190029 0.783431 0.904740 -0.008114
C130  C     C_R   0.809687 0.216106 0.095506 -0.007676
C131  C     C_R   0.809967 0.783434 0.095265 -0.008131
C132  C     C_R   0.190310 0.216113 0.904495 -0.007687
C133  C     C_R   0.690022 0.283419 0.904746 -0.008110
C134  C     C_R   0.309689 0.716111 0.095505 -0.007678
C135  C     C_R   0.309965 0.283439 0.095267 -0.008125
C136  C     C_R   0.690314 0.716107 0.904492 -0.007694
C137  C     C_R   0.199969 0.630908 0.515711 0.552843
C138  C     C_R   0.535050 0.872807 0.548440 0.123203
C139  C     C_R   0.803123 0.368235 0.473166 0.550032
C140  C     C_R   0.800031 0.630908 0.484288 0.552842
C141  C     C_R   0.196878 0.368236 0.526832 0.550035
C142  C     C_R   0.699968 0.130908 0.515712 0.552843
C143  C     C_R   0.303122 0.868236 0.473169 0.550033
C144  C     C_R   0.300032 0.130909 0.484288 0.552845
C145  C     C_R   0.696877 0.868235 0.526833 0.550034
C146  C     C_R   0.926575 0.902721 0.066268 0.563927
C147  C     C_R   0.073449 0.097247 0.933712 0.562675
C148  C     C_R   0.073425 0.902722 0.933731 0.563930
Cu1   Cu    Cu3+1 0.209920 0.785290 0.495070 0.917034
Cu2   Cu    Cu3+1 0.504760 0.500000 0.075850 0.969961
Cu3   Cu    Cu3+1 0.995240 1.000000 0.924150 0.969966
Cu4   Cu    Cu3+1 0.004760 1.000000 0.075850 0.969965
Cu5   Cu    Cu3+1 0.790080 0.214710 0.504930 0.921332
Cu6   Cu    Cu3+1 0.790080 0.785290 0.504930 0.917040
Cu7   Cu    Cu3+1 0.209920 0.214710 0.495070 0.921335
Cu8   Cu    Cu3+1 0.709920 0.285290 0.495070 0.917032
Cu9   Cu    Cu3+1 0.290080 0.714710 0.504930 0.921331
Cu10  Cu    Cu3+1 0.290080 0.285290 0.504930 0.917026
Cu11  Cu    Cu3+1 0.709920 0.714710 0.495070 0.921332
Cu12  Cu    Cu3+1 0.495240 0.500000 0.924150 0.969965
H1    H     H_    0.229451 0.500029 0.534600 0.159175
H2    H     H_    0.862631 0.663744 0.570855 0.145419
H3    H     H_    0.912575 0.330353 0.403975 0.140538
H4    H     H_    0.137372 0.663746 0.429142 0.145422
H5    H     H_    0.165321 0.684579 0.036163 0.109473
H6    H     H_    0.834347 0.314944 0.964154 0.108341
H7    H     H_    0.834611 0.684461 0.963998 0.109498
H8    H     H_    0.165694 0.315032 0.035737 0.108362
H9    H     H_    0.665310 0.184577 0.036185 0.109464
H10   H     H_    0.334345 0.814964 0.964170 0.108346
H11   H     H_    0.334635 0.184526 0.963933 0.109502
H12   H     H_    0.770546 0.500028 0.465407 0.159176
H13   H     H_    0.665723 0.815082 0.035670 0.108364
H14   H     H_    0.284131 0.841008 0.879872 0.115037
H15   H     H_    0.715520 0.158550 0.120514 0.109835
H16   H     H_    0.715935 0.841141 0.119971 0.115035
H17   H     H_    0.284428 0.158483 0.879601 0.109863
H18   H     H_    0.784131 0.340984 0.879859 0.115033
H19   H     H_    0.215530 0.658546 0.120493 0.109841
H20   H     H_    0.215905 0.341083 0.120040 0.115042
H21   H     H_    0.784404 0.658412 0.879666 0.109857
H22   H     H_    0.117156 0.848321 0.769304 0.158513
H23   H     H_    0.729451 0.000029 0.534601 0.159176
H24   H     H_    0.882923 0.151844 0.230623 0.156172
H25   H     H_    0.882844 0.848322 0.230695 0.158512
H26   H     H_    0.117079 0.151839 0.769375 0.156172
H27   H     H_    0.617160 0.348328 0.769300 0.158513
H28   H     H_    0.382922 0.651843 0.230624 0.156173
H29   H     H_    0.382846 0.348318 0.230694 0.158510
H30   H     H_    0.617079 0.651839 0.769375 0.156172
H31   H     H_    0.245615 0.733088 0.783000 0.141360
H32   H     H_    0.754111 0.266434 0.217255 0.136818
H33   H     H_    0.754382 0.733090 0.217003 0.141371
H34   H     H_    0.270546 0.000029 0.465412 0.159177
H35   H     H_    0.245889 0.266435 0.782745 0.136824
H36   H     H_    0.745613 0.233085 0.783002 0.141358
H37   H     H_    0.254113 0.766439 0.217254 0.136821
H38   H     H_    0.254384 0.233085 0.217001 0.141367
H39   H     H_    0.745896 0.766423 0.782741 0.136826
H40   H     H_    0.485862 0.810298 0.651208 0.217064
H41   H     H_    0.521639 0.766659 0.553997 0.237030
H42   H     H_    0.423024 0.181950 0.645893 0.215087
H43   H     H_    0.448517 0.227358 0.548481 0.236606
H44   H     H_    0.514137 0.810293 0.348809 0.217074
H45   H     H_    0.587428 0.830347 0.596017 0.140539
H46   H     H_    0.478353 0.766655 0.446019 0.237028
H47   H     H_    0.576980 0.181879 0.354013 0.215086
H48   H     H_    0.551547 0.227370 0.451386 0.236546
H49   H     H_    0.985859 0.310300 0.651191 0.217066
H50   H     H_    0.021641 0.266658 0.553982 0.237028
H51   H     H_    0.923021 0.681870 0.645967 0.215100
H52   H     H_    0.948448 0.727356 0.548614 0.236578
H53   H     H_    0.014139 0.310298 0.348787 0.217067
H54   H     H_    0.978361 0.266659 0.446000 0.237028
H55   H     H_    0.076962 0.681900 0.354065 0.215096
H56   H     H_    0.362646 0.163760 0.570827 0.145432
H57   H     H_    0.051549 0.727365 0.451430 0.236573
H58   H     H_    0.113906 0.800995 0.078487 0.225900
H59   H     H_    0.155369 0.873080 0.045573 0.235768
H60   H     H_    0.844318 0.126360 0.954813 0.236727
H61   H     H_    0.885721 0.198502 0.921672 0.224334
H62   H     H_    0.886069 0.800983 0.921523 0.225921
H63   H     H_    0.844629 0.873089 0.954441 0.235759
H64   H     H_    0.155659 0.126379 0.045208 0.236726
H65   H     H_    0.114281 0.198545 0.078320 0.224343
H66   H     H_    0.613878 0.300951 0.078494 0.225892
H67   H     H_    0.412572 0.830350 0.403988 0.140544
H68   H     H_    0.655340 0.373041 0.045618 0.235773
H69   H     H_    0.344323 0.626367 0.954808 0.236728
H70   H     H_    0.385724 0.698512 0.921672 0.224336
H71   H     H_    0.386061 0.301028 0.921524 0.225920
H72   H     H_    0.344605 0.373113 0.954475 0.235760
H73   H     H_    0.655646 0.626384 0.045223 0.236722
H74   H     H_    0.614286 0.698569 0.078313 0.224348
H75   H     H_    0.637373 0.163743 0.429140 0.145422
H76   H     H_    0.087425 0.330353 0.596009 0.140540
N1    N     N_3   0.499534 0.812992 0.582036 -0.610900
N2    N     N_3   0.875079 0.152781 0.961590 -0.593601
N3    N     N_3   0.875374 0.846753 0.961359 -0.592472
N4    N     N_3   0.124907 0.152812 0.038421 -0.593596
N5    N     N_3   0.624599 0.346724 0.038664 -0.592495
N6    N     N_3   0.375083 0.652789 0.961586 -0.593598
N7    N     N_3   0.375357 0.346785 0.961378 -0.592483
N8    N     N_3   0.624899 0.652828 0.038428 -0.593590
N9    N     N_3   0.451882 0.180200 0.578721 -0.611305
N10   N     N_3   0.500461 0.812988 0.417983 -0.610902
N11   N     N_3   0.548141 0.180186 0.421212 -0.611302
N12   N     N_3   0.999535 0.312993 0.582017 -0.610908
N13   N     N_3   0.951859 0.680181 0.578780 -0.611288
N14   N     N_3   0.000467 0.312993 0.417961 -0.610893
N15   N     N_3   0.048134 0.680198 0.421254 -0.611305
N16   N     N_3   0.124621 0.846759 0.038643 -0.592487
O1    O     O_R   0.255040 0.869590 0.478480 -0.507545
O2    O     O_R   0.817950 0.203450 0.375560 -0.516355
O3    O     O_R   0.817950 0.796550 0.375560 -0.504484
O4    O     O_R   0.182050 0.203450 0.624440 -0.516355
O5    O     O_R   0.682050 0.296550 0.624440 -0.504483
O6    O     O_R   0.317950 0.703450 0.375560 -0.516355
O7    O     O_R   0.317950 0.296550 0.375560 -0.504485
O8    O     O_R   0.682050 0.703450 0.624440 -0.516357
O9    O     O_R   0.250530 0.763330 0.367210 -0.522142
O10   O     O_R   0.749470 0.236670 0.632790 -0.507320
O11   O     O_R   0.749470 0.763330 0.632790 -0.522141
O12   O     O_R   0.744960 0.130410 0.521520 -0.508025
O13   O     O_R   0.250530 0.236670 0.367210 -0.507321
O14   O     O_R   0.750530 0.263330 0.367210 -0.522143
O15   O     O_R   0.249470 0.736670 0.632790 -0.507321
O16   O     O_R   0.249470 0.263330 0.632790 -0.522140
O17   O     O_R   0.750530 0.736670 0.367210 -0.507321
O18   O     O_R   0.177260 0.690030 0.513710 -0.518021
O19   O     O_R   0.822740 0.309970 0.486290 -0.515858
O20   O     O_R   0.822740 0.690030 0.486290 -0.518021
O21   O     O_R   0.177260 0.309970 0.513710 -0.515859
O22   O     O_R   0.677260 0.190030 0.513710 -0.518019
O23   O     O_R   0.744960 0.869590 0.521520 -0.507544
O24   O     O_R   0.322740 0.809970 0.486290 -0.515862
O25   O     O_R   0.322740 0.190030 0.486290 -0.518033
O26   O     O_R   0.677260 0.809970 0.513710 -0.515862
O27   O     O_R   0.051640 0.926880 0.885090 -0.527406
O28   O     O_R   0.948360 0.073120 0.114910 -0.528884
O29   O     O_R   0.948360 0.926880 0.114910 -0.527408
O30   O     O_R   0.051640 0.073120 0.885090 -0.528889
O31   O     O_R   0.551640 0.426880 0.885090 -0.527408
O32   O     O_R   0.448360 0.573120 0.114910 -0.528883
O33   O     O_R   0.448360 0.426880 0.114910 -0.527409
O34   O     O_R   0.255040 0.130410 0.478480 -0.508025
O35   O     O_R   0.551640 0.573120 0.885090 -0.528887
O36   O     O_R   0.940620 0.926560 0.986760 -0.464740
O37   O     O_R   0.059380 0.073440 0.013240 -0.465485
O38   O     O_R   0.059380 0.926560 0.013240 -0.464741
O39   O     O_R   0.940620 0.073440 0.986760 -0.465486
O40   O     O_R   0.440620 0.426560 0.986760 -0.464737
O41   O     O_R   0.559380 0.573440 0.013240 -0.465489
O42   O     O_R   0.559380 0.426560 0.013240 -0.464746
O43   O     O_R   0.440620 0.573440 0.986760 -0.465483
O44   O     O_R   0.755040 0.369590 0.478480 -0.507547
O45   O     O_R   0.244960 0.630410 0.521520 -0.508025
O46   O     O_R   0.244960 0.369590 0.521520 -0.507543
O47   O     O_R   0.755040 0.630410 0.478480 -0.508027
O48   O     O_R   0.182050 0.796550 0.624440 -0.504483

loop_
_geom_bond_atom_site_label_1
_geom_bond_atom_site_label_2
_ccdc_geom_bond_type
C28   C47   A    
C36   C42   A    
C121  H32   S    
C7    C99   S    
C13   C18   A    
C63   C133  S    
C145  O23   A    
C94   O2    A    
C16   C35   A    
C116  O4    A    
C90   C134  A    
Cu10  O7    S    
C62   C70   A    
C51   H75   S    
C37   C42   A    
Cu5   O12   S    
H40   N1    S    
Cu6   O11   S    
C85   C129  A    
C113  C122  A    
C33   C137  S    
C61   C115  S    
Cu2   O33   S    
C91   C100  A    
Cu8   O22   S    
C88   C97   A    
C119  C128  A    
C24   C51   A    
C13   N10   S    
C70   C79   A    
C100  C109  A    
C8    C16   A    
Cu7   Cu10  S    
H55   N15   S    
H60   N2    S    
C102  C111  A    
Cu5   O19   S    
Cu6   O20   S    
C73   C81   A    
C109  C118  A    
Cu6   O3    S    
C5    C101  S    
Cu2   O42   S    
C62   C132  S    
C83   O13   A    
C89   C133  A    
C106  H26   S    
C32   C139  S    
Cu10  O25   S    
C101  C110  A    
C110  H30   S    
C29   C45   A    
C103  C112  A    
H51   N13   S    
Cu5   Cu8   S    
C76   H10   S    
Cu7   O13   S    
C146  O29   A    
C66   C136  S    
C124  C133  A    
C63   C71   A    
H59   N16   S    
C55   C57   A    
C143  O24   A    
C52   H76   S    
C1    O6    A    
C147  O37   A    
C68   C77   A    
H42   N9    S    
C72   O11   A    
C2    C19   A    
C108  H28   S    
Cu4   O38   S    
C25   C55   A    
H47   N11   S    
C59   C80   A    
Cu1   O48   S    
C4    O33   A    
C148  O27   A    
C48   C138  A    
C36   C144  S    
C128  H39   S    
H63   N3    S    
H69   N6    S    
C80   H6    S    
C46   C53   A    
C86   N2    S    
C9    C15   A    
C86   C95   A    
C58   C67   A    
Cu8   O14   S    
C3    C95   S    
Cu9   O45   S    
H74   N8    S    
Cu11  O17   S    
C11   C18   A    
C65   C79   A    
C123  C132  A    
H72   N7    S    
C79   H11   S    
C137  O45   A    
H50   N12   S    
C121  C130  A    
C25   C43   A    
Cu9   O24   S    
C99   C108  A    
C30   C141  S    
C93   C148  S    
C127  O3    A    
C2    C49   A    
C2    N9    S    
Cu1   O18   S    
C139  O44   A    
C75   C84   A    
C58   C129  S    
Cu1   O1    S    
H62   N3    S    
C87   C131  A    
C26   C45   A    
C85   C93   A    
C29   C38   A    
C64   C73   A    
C144  O25   A    
C54   H3    S    
C57   N15   S    
C126  H38   S    
C97   C147  S    
Cu11  O47   S    
Cu12  O40   S    
C95   C103  A    
C87   N3    S    
C144  O34   A    
C120  C129  A    
C38   C41   A    
C120  H31   S    
C10   C20   A    
C147  O30   A    
C86   C130  A    
C65   C74   A    
H70   N6    S    
Cu7   O4    S    
C8    C12   A    
C148  O38   A    
C124  H36   S    
C10   C45   A    
C1    C117  S    
H64   N4    S    
H49   N12   S    
C114  C123  A    
C90   N6    S    
C12   C57   A    
C90   C99   A    
Cu8   O5    S    
C29   C51   A    
C27   C47   A    
C108  C117  A    
C116  O16   A    
C110  C119  A    
C114  C116  S    
C70   H17   S    
C105  O15   A    
C96   C146  S    
C89   C98   A    
Cu12  O35   S    
Cu6   Cu11  S    
C60   C69   A    
C94   C112  S    
C30   C39   A    
C14   C16   A    
C105  C111  S    
C104  C113  A    
C127  O17   A    
C24   N11   S    
H57   N15   S    
C15   C46   A    
C31   C140  S    
C117  C125  A    
C27   C49   A    
C25   C33   A    
C125  C134  A    
C122  C131  A    
C11   C47   A    
C6    O31   A    
C8    C43   A    
C61   O5    A    
C82   H8    S    
C11   C19   A    
C35   N12   S    
Cu2   Cu12  S    
C6    C98   S    
C71   H18   S    
H46   N10   S    
C128  C136  A    
C53   H2    S    
C88   N4    S    
C31   C40   A    
C138  N1    S    
C20   C138  A    
Cu10  O46   S    
H68   N5    S    
Cu4   O37   S    
C56   N14   S    
C48   H45   S    
C78   H13   S    
Cu3   Cu4   S    
C83   O7    A    
C105  O48   A    
C141  O21   A    
C26   C48   A    
C62   C82   A    
C123  H35   S    
C50   H67   S    
C92   C136  A    
C34   C41   A    
C142  O12   A    
C74   C82   A    
C60   C131  S    
C68   H15   S    
C140  O47   A    
C64   C134  S    
C66   C78   A    
C103  H24   S    
Cu12  O43   S    
C23   C44   A    
C5    O35   A    
C102  H22   S    
C9    C14   A    
C4    O40   A    
C46   N13   S    
C5    O41   A    
H73   N8    S    
H43   N9    S    
C12   C15   A    
Cu2   O32   S    
Cu7   O34   S    
C92   C101  A    
C97   C106  A    
C126  C135  A    
Cu3   O30   S    
C122  H33   S    
C40   H12   S    
C115  C124  A    
C37   C143  S    
Cu2   O41   S    
Cu1   O9    S    
C93   C102  A    
C55   H4    S    
C137  O18   A    
C27   C36   A    
C21   C30   A    
H61   N2    S    
C23   C32   A    
C84   H7    S    
C3    O28   A    
C66   C75   A    
C13   C50   A    
Cu3   O39   S    
C146  O36   A    
C98   C107  A    
C112  C121  A    
C91   C135  A    
C35   C52   A    
H65   N4    S    
C41   H23   S    
C67   H14   S    
Cu1   Cu9   S    
H44   N10   S    
C7    O32   A    
C14   C56   A    
Cu5   O2    S    
C59   C130  S    
Cu11  O8    S    
Cu12  O31   S    
C92   N8    S    
C145  O26   A    
C3    O39   A    
Cu7   O21   S    
Cu3   O36   S    
C104  H25   S    
C49   H56   S    
C33   C39   A    
C106  C114  A    
C28   C37   A    
C83   C118  S    
C61   O10   A    
C34   C145  S    
C10   C17   A    
C107  H27   S    
C42   H34   S    
Cu3   O27   S    
Cu4   O28   S    
C21   C43   A    
C28   C50   A    
C26   C34   A    
C22   C44   A    
C109  H29   S    
H54   N14   S    
C69   H16   S    
C39   H1    S    
C142  O22   A    
C125  H37   S    
C38   C142  S    
C69   C78   A    
C71   C80   A    
C22   C53   A    
C94   O14   A    
C54   C56   A    
C17   C24   A    
Cu10  O16   S    
C22   C31   A    
Cu8   O44   S    
C7    O43   A    
H66   N5    S    
C139  O19   A    
C140  O20   A    
C111  C120  A    
H71   N7    S    
Cu9   O15   S    
C59   C68   A    
Cu9   O6    S    
C87   C96   A    
C64   C76   A    
H53   N14   S    
C65   C135  S    
Cu5   O10   S    
C107  C115  A    
C1    O9    A    
C141  O46   A    
C91   N7    S    
C72   O8    A    
C4    C100  S    
C143  O1    A    
C89   N5    S    
C88   C132  A    
C75   H21   S    
Cu4   O29   S    
C23   C54   A    
C63   C77   A    
C58   C81   A    
C9    C44   A    
H58   N16   S    
C6    O42   A    
H41   N1    S    
C113  C127  S    
C96   C104  A    
H48   N11   S    
C60   C84   A    
C72   C119  S    
C17   C19   A    
C18   C20   A    
C32   C40   A    
Cu6   O23   S    
C73   H19   S    
C74   H20   S    
C85   N16   S    
C77   H9    S    
Cu11  O26   S    
C81   H5    S    
C67   C76   A    
C118  C126  A    
H52   N13   S    
C21   C52   A    
