data_mof_unit_41926.cif
_audit_creation_date              2012-12-10T17:33:42-0500
_audit_creation_method            fapswitch 2.2
_symmetry_space_group_name_H-M    P1
_symmetry_Int_Tables_number       1
_space_group_crystal_system       triclinic
_cell_length_a                    11.687449
_cell_length_b                    12.328781
_cell_length_c                    13.157892
_cell_angle_alpha                 116.587081
_cell_angle_beta                  77.985778
_cell_angle_gamma                 101.0904
_cell_volume                      1647.62381591

loop_
_atom_site_label
_atom_site_type_symbol
_atom_type_description
_atom_site_fract_x
_atom_site_fract_y
_atom_site_fract_z
_atom_type_partial_charge
C1    C     C_R   0.508641 0.854834 0.286584 0.771881
C2    C     C_R   0.458774 0.227860 0.835095 -0.047148
C3    C     C_R   0.573470 0.815696 0.083290 -0.177839
C4    C     C_R   0.590501 0.737287 0.967632 -0.138256
C5    C     C_R   0.551000 0.613704 0.930980 -0.167127
C6    C     C_R   0.489182 0.566149 0.009896 0.077774
C7    C     C_R   0.458454 0.649243 0.125044 0.035732
C8    C     C_R   0.455942 0.439186 0.977892 0.035841
C9    C     C_R   0.382365 0.397705 0.057458 0.147365
C10   C     C_R   0.339786 0.483475 0.167174 0.134323
C11   C     C_R   0.375608 0.607435 0.197995 -0.191524
C12   C     C_R   0.715725 0.999551 0.499794 0.823747
C13   C     C_R   0.496240 0.351861 0.869060 -0.226753
C14   C     C_R   0.388155 0.187282 0.913654 -0.190967
C15   C     C_R   0.510175 0.772733 0.163542 -0.092625
C16   C     C_R   0.685620 0.342988 0.325105 0.048813
C17   C     C_R   0.343955 0.761030 0.646920 0.067917
C18   C     C_R   0.309919 0.665174 0.680037 0.125078
C19   C     C_R   0.369084 0.560886 0.623477 -0.205479
C20   C     C_R   0.462984 0.551565 0.534092 -0.034079
C21   C     C_R   0.494641 0.652636 0.504591 0.272932
C22   C     C_R   0.527187 0.446635 0.473774 -0.049811
C23   C     C_R   0.482994 0.145139 0.713555 0.797895
C24   C     C_R   0.621434 0.444951 0.385207 0.120397
C25   C     C_R   0.650504 0.545295 0.358853 -0.238316
C26   C     C_R   0.589394 0.646458 0.417508 -0.167740
C27   C     C_R   0.502316 0.342649 0.497648 0.007336
C28   C     C_R   0.656007 0.244611 0.353812 0.049975
C29   C     C_R   0.284278 0.000350 0.500080 0.814998
C30   C     C_1   0.837374 0.999047 0.499790 -0.173133
C31   C     C_1   0.940005 0.999345 0.499723 0.011259
C32   C     C_1   0.060015 0.000105 0.499692 0.008516
C33   C     C_1   0.162644 0.000577 0.499783 -0.177196
C34   C     C_R   0.351142 0.271193 0.024170 -0.167395
Cu1   Cu    Cu3+1 0.526510 0.098270 0.475420 0.944739
Cu2   Cu    Cu3+1 0.473490 0.901730 0.524580 0.927461
H1    H     H_    0.358231 0.091192 0.888630 0.151748
H2    H     H_    0.722023 0.547725 0.292691 0.190309
H3    H     H_    0.432464 0.335708 0.562890 0.132221
H4    H     H_    0.298814 0.842143 0.690036 0.132256
H5    H     H_    0.340032 0.489129 0.651703 0.146417
H6    H     H_    0.620894 0.718540 0.391807 0.205509
H7    H     H_    0.295518 0.235887 0.081854 0.153207
H8    H     H_    0.557262 0.377776 0.808069 0.150773
H9    H     H_    0.611825 0.909918 0.110087 0.161676
H10   H     H_    0.567778 0.558709 0.839894 0.129233
H11   H     H_    0.637889 0.771809 0.906185 0.149756
H12   H     H_    0.334853 0.671213 0.279116 0.179452
H13   H     H_    0.704237 0.165762 0.308544 0.149765
N1    N     N_R   0.566700 0.246290 0.438210 -0.197428
N2    N     N_R   0.434010 0.754320 0.561170 -0.227131
O1    O     O_R   0.533340 0.972510 0.318140 -0.579068
O2    O     O_R   0.488570 0.806530 0.359650 -0.605119
O3    O     O_R   0.685190 0.083000 0.479260 -0.568480
O4    O     O_R   0.640410 0.917020 0.520770 -0.588366
O5    O     O_R   0.511430 0.193470 0.640350 -0.586676
O6    O     O_R   0.466660 0.027490 0.681860 -0.585692
O7    O     O_R   0.359590 0.082980 0.479230 -0.572122
O8    O     O_R   0.314810 0.917000 0.520740 -0.585180
I1    I     I_    0.828089 0.328278 0.190836 -0.438834
C35   C     C_3   0.211188 0.673267 0.775717 -0.873745
H14   H     H_    0.173022 0.761148 0.812380 0.226151
H15   H     H_    0.140389 0.597548 0.742983 0.245444
H16   H     H_    0.244462 0.665842 0.845252 0.245450
C36   C     C_3   0.257098 0.445587 0.253408 -0.840414
H17   H     H_    0.232524 0.525325 0.334829 0.237608
H18   H     H_    0.174850 0.394674 0.217474 0.249957
H19   H     H_    0.300202 0.387102 0.274803 0.232731

loop_
_geom_bond_atom_site_label_1
_geom_bond_atom_site_label_2
_ccdc_geom_bond_type
C16   C28   A    
C35   H16   S    
C21   C26   A    
C18   C35   S    
C14   C34   A    
C6    C7    A    
C1    C15   S    
C29   C33   S    
C25   H2    S    
C5    H10   S    
C19   C20   A    
Cu1   Cu2   S    
C27   N1    A    
C30   C31   T    
C36   H19   S    
C32   C33   T    
C17   N2    A    
Cu1   N1    S    
C7    C15   A    
C17   C18   A    
Cu1   O5    S    
C24   C25   A    
C3    H9    S    
C23   O5    A    
C16   C24   A    
Cu2   O4    S    
C31   C32   S    
C29   O7    A    
Cu1   O3    S    
C7    C11   A    
Cu1   O1    S    
C4    H11   S    
C11   H12   S    
C5    C6    A    
Cu2   N2    S    
Cu1   O7    S    
C20   C22   A    
C9    C34   A    
Cu2   O6    S    
C22   C27   A    
C16   I1    S    
C35   H14   S    
C2    C14   A    
C1    O1    A    
C22   C24   A    
C12   O4    A    
C10   C11   A    
C3    C4    A    
C8    C13   A    
C29   O8    A    
C21   N2    A    
C3    C15   A    
C20   C21   A    
C26   H6    S    
C8    C9    A    
C23   O6    A    
C36   H17   S    
C9    C10   A    
C10   C36   S    
C2    C23   S    
C35   H15   S    
C2    C13   A    
C1    O2    A    
C18   C19   A    
C6    C8    A    
Cu2   O2    S    
C12   C30   S    
C25   C26   A    
Cu2   O8    S    
C28   N1    A    
C17   H4    S    
C13   H8    S    
C12   O3    A    
C34   H7    S    
C19   H5    S    
C14   H1    S    
C27   H3    S    
C4    C5    A    
C36   H18   S    
C28   H13   S    
