data_mof_unit_35748.cif
_audit_creation_date              2012-12-11T15:15:46-0500
_audit_creation_method            fapswitch 2.2
_symmetry_space_group_name_H-M    P1
_symmetry_Int_Tables_number       1
_space_group_crystal_system       monoclinic
_cell_length_a                    20.60736
_cell_length_b                    22.752596
_cell_length_c                    6.942882
_cell_angle_alpha                 90.0
_cell_angle_beta                  86.48331
_cell_angle_gamma                 90.0
_cell_volume                      3249.18573936

loop_
_atom_site_label
_atom_site_type_symbol
_atom_type_description
_atom_site_fract_x
_atom_site_fract_y
_atom_site_fract_z
_atom_type_partial_charge
O1    O     O_R   0.387100 0.552640 0.378490 -0.535258
O2    O     O_R   0.612900 0.052640 0.621510 -0.535258
O3    O     O_R   0.249610 0.559600 0.072250 -0.545739
O4    O     O_R   0.750390 0.059600 0.927750 -0.545739
O5    O     O_R   0.249120 0.447360 0.902040 -0.544084
O6    O     O_R   0.750880 0.947360 0.097960 -0.544084
C1    C     C_R   0.227247 0.573676 0.245157 0.691043
C2    C     C_R   0.772753 0.073676 0.754843 0.691043
O7    O     O_R   0.386610 0.559560 0.048860 -0.536675
O8    O     O_R   0.613390 0.059560 0.951140 -0.536675
O9    O     O_R   0.387100 0.447320 0.878470 -0.535666
O10   O     O_R   0.612900 0.947320 0.121530 -0.535666
C3    C     C_R   0.407886 0.574774 0.213741 0.690919
C4    C     C_R   0.592114 0.074774 0.786259 0.690920
O11   O     O_R   0.249120 0.552680 0.402050 -0.543413
O12   O     O_R   0.750880 0.052680 0.597950 -0.543413
O13   O     O_3   0.318110 0.463180 0.223790 -0.369215
O14   O     O_3   0.681890 0.963180 0.776210 -0.369215
V1    V     V_3+5 0.318110 0.506830 0.948930 1.416656
V2    V     V_3+5 0.681890 0.006830 0.051070 1.416656
O15   O     O_R   0.386610 0.440400 0.548840 -0.538141
O16   O     O_R   0.613390 0.940400 0.451160 -0.538141
C5    C     C_R   0.407942 0.425224 0.713714 0.697154
C6    C     C_R   0.592058 0.925224 0.286286 0.697154
O17   O     O_R   0.249610 0.440440 0.572240 -0.545363
O18   O     O_R   0.750390 0.940440 0.427760 -0.545363
C7    C     C_R   0.227128 0.426427 0.745160 0.703296
C8    C     C_R   0.772872 0.926427 0.254840 0.703296
V3    V     V_3+5 0.318110 0.493170 0.448930 1.416114
V4    V     V_3+5 0.681890 0.993170 0.551070 1.416114
O19   O     O_3   0.318110 0.536820 0.723940 -0.368581
O20   O     O_3   0.681890 0.036820 0.276060 -0.368581
C9    C     C_R   0.173936 0.382846 0.765520 -0.117480
C10   C     C_R   0.826064 0.882846 0.234480 -0.117480
C11   C     C_R   0.157517 0.348729 0.607537 -0.169281
C12   C     C_R   0.842483 0.848729 0.392463 -0.169281
C13   C     C_R   0.107929 0.307131 0.628153 -0.156945
C14   C     C_R   0.892071 0.807131 0.371847 -0.156945
C15   C     C_R   0.072519 0.299320 0.806165 0.087651
C16   C     C_R   0.927481 0.799320 0.193834 0.087651
C17   C     C_R   0.089458 0.333132 0.966876 0.313595
C18   C     C_R   0.910542 0.833132 0.033124 0.313595
C19   C     C_R   0.139697 0.374478 0.944667 -0.189833
C20   C     C_R   0.860303 0.874478 0.055333 -0.189834
C21   C     C_R   0.888982 0.195478 0.868633 -0.166629
C22   C     C_R   0.111018 0.695478 0.131367 -0.166629
C23   C     C_R   0.839156 0.154163 0.888724 -0.196657
C24   C     C_R   0.160844 0.654163 0.111276 -0.196657
C25   C     C_R   0.863839 0.121962 0.560159 -0.199207
C26   C     C_R   0.136160 0.621962 0.439840 -0.199207
C27   C     C_R   0.915128 0.162566 0.538905 0.107252
C28   C     C_R   0.084872 0.662566 0.461094 0.107252
C29   C     C_R   0.927787 0.200011 0.695439 0.144099
C30   C     C_R   0.072213 0.700011 0.304561 0.144099
C31   C     C_2   0.018589 0.255987 0.823386 -0.207522
C32   C     C_2   0.981411 0.755987 0.176614 -0.207522
C33   C     C_2   0.980278 0.244614 0.678099 -0.211797
C34   C     C_2   0.019722 0.744614 0.321901 -0.211797
C35   C     C_R   0.825928 0.117180 0.734615 -0.066590
C36   C     C_R   0.174072 0.617179 0.265384 -0.066590
H1    H     H_    0.183599 0.353517 0.468163 0.142296
H2    H     H_    0.816401 0.853517 0.531837 0.142296
H3    H     H_    0.810319 0.151843 0.024304 0.132039
H4    H     H_    0.189681 0.651843 0.975696 0.132039
H5    H     H_    0.854506 0.092897 0.441310 0.123354
H6    H     H_    0.145494 0.592897 0.558690 0.123354
H7    H     H_    0.988251 0.267763 0.542402 0.138083
H8    H     H_    0.011749 0.767763 0.457597 0.138083
H9    H     H_    0.896585 0.224560 0.988625 0.118115
H10   H     H_    0.103415 0.724560 0.011375 0.118115
H11   H     H_    0.151681 0.400252 0.068874 0.142231
H12   H     H_    0.848319 0.900252 0.931126 0.142231
H13   H     H_    0.009729 0.232595 0.957992 0.136077
H14   H     H_    0.990271 0.732595 0.042008 0.136077
H15   H     H_    0.098139 0.280291 0.504697 0.138613
H16   H     H_    0.901861 0.780291 0.495303 0.138613
C37   C     C_R   0.576241 0.360654 0.653581 -0.161762
C38   C     C_R   0.423759 0.860654 0.346421 -0.161761
H17   H     H_    0.534928 0.446730 0.633415 0.107057
H18   H     H_    0.465072 0.946730 0.366587 0.107057
H19   H     H_    0.666461 0.277580 0.641126 0.124787
H20   H     H_    0.333539 0.777580 0.358877 0.124786
H21   H     H_    0.624977 0.376657 0.616867 0.111422
H22   H     H_    0.375023 0.876657 0.383137 0.111422
C39   C     C_R   0.461599 0.381942 0.711036 -0.039908
C40   C     C_R   0.538401 0.881942 0.288964 -0.039909
C41   C     C_R   0.475091 0.095671 0.835641 -0.163802
C42   C     C_R   0.524909 0.595671 0.164357 -0.163801
C43   C     C_R   0.421732 0.133174 0.847396 -0.121593
C44   C     C_R   0.578268 0.633174 0.152601 -0.121593
C45   C     C_R   0.429456 0.193295 0.814905 -0.156932
C46   C     C_R   0.570544 0.693295 0.185093 -0.156932
C47   C     C_R   0.491527 0.217840 0.768844 0.078134
C48   C     C_R   0.508473 0.717840 0.231155 0.078134
C49   C     C_R   0.546323 0.178780 0.755206 0.068831
C50   C     C_R   0.453676 0.678780 0.244795 0.068831
C51   C     C_R   0.501001 0.279734 0.736197 0.074019
C52   C     C_R   0.498999 0.779734 0.263803 0.074018
C53   C     C_R   0.565011 0.300630 0.689043 0.139748
C54   C     C_R   0.434989 0.800630 0.310958 0.139748
C55   C     C_R   0.617619 0.261635 0.676703 -0.200636
C56   C     C_R   0.382381 0.761635 0.323300 -0.200636
C57   C     C_R   0.608575 0.201829 0.709537 -0.195173
C58   C     C_R   0.391425 0.701829 0.290465 -0.195173
C59   C     C_R   0.449550 0.321864 0.747737 -0.216228
C60   C     C_R   0.550450 0.821864 0.252263 -0.216228
C61   C     C_R   0.525033 0.400748 0.663362 -0.169139
C62   C     C_R   0.474966 0.900748 0.336639 -0.169139
C63   C     C_R   0.537546 0.117403 0.789359 -0.085019
C64   C     C_R   0.462454 0.617403 0.210640 -0.085020
H23   H     H_    0.399725 0.309516 0.782554 0.093180
H24   H     H_    0.600275 0.809516 0.217444 0.093179
H25   H     H_    0.467624 0.049200 0.863253 0.106084
H26   H     H_    0.532376 0.549200 0.136745 0.106084
H27   H     H_    0.385787 0.219369 0.827147 0.107406
H28   H     H_    0.614212 0.719369 0.172851 0.107406
H29   H     H_    0.373721 0.115468 0.882991 0.117346
H30   H     H_    0.626279 0.615469 0.117006 0.117346
H31   H     H_    0.650991 0.173651 0.698442 0.111282
H32   H     H_    0.349009 0.673651 0.301561 0.111282
C65   C     C_3   0.957137 0.162695 0.351930 -0.391166
C66   C     C_3   0.022602 0.132555 0.378675 -0.292746
C67   C     C_3   0.066239 0.133780 0.193078 -0.781686
H33   H     H_    0.040699 0.114598 0.071498 0.234105
H34   H     H_    0.080936 0.179600 0.157281 0.219945
H35   H     H_    0.110858 0.107703 0.213188 0.218602
H36   H     H_    0.048501 0.154603 0.494334 0.203567
H37   H     H_    0.013855 0.086032 0.421949 0.195339
H38   H     H_    0.964305 0.208269 0.298260 0.157654
H39   H     H_    0.932256 0.138773 0.237774 0.178137
C68   C     C_3   0.042863 0.662695 0.648070 -0.391166
C69   C     C_3   0.977398 0.632555 0.621325 -0.292747
C70   C     C_3   0.933760 0.633780 0.806921 -0.781685
H40   H     H_    0.959301 0.614598 0.928501 0.234105
H41   H     H_    0.919064 0.679600 0.842718 0.219945
H42   H     H_    0.889142 0.607703 0.786811 0.218602
H43   H     H_    0.951499 0.654603 0.505666 0.203567
H44   H     H_    0.986145 0.586032 0.578050 0.195339
H45   H     H_    0.067744 0.638773 0.762225 0.178137
H46   H     H_    0.035695 0.708269 0.701740 0.157654
N1    N     N_2   0.056456 0.327191 0.151898 -0.540054
H47   H     H_    0.044952 0.284888 0.193423 0.237060
C71   C     C_3   0.003630 0.368182 0.189295 -0.563076
H48   H     H_    0.983666 0.363075 0.340561 0.196936
H49   H     H_    0.964274 0.359493 0.090517 0.197332
H50   H     H_    0.021201 0.414098 0.169678 0.206441
N2    N     N_2   0.943544 0.827191 0.848102 -0.540054
H51   H     H_    0.955048 0.784888 0.806577 0.237060
C72   C     C_3   0.996370 0.868183 0.810704 -0.563077
H52   H     H_    0.016334 0.863075 0.659439 0.196936
H53   H     H_    0.035726 0.859494 0.909483 0.197333
H54   H     H_    0.978798 0.914098 0.830321 0.206441

loop_
_geom_bond_atom_site_label_1
_geom_bond_atom_site_label_2
_ccdc_geom_bond_type
C71   H50   S    
C40   C62   A    
O6    C8    A    
C4    C63   S    
O13   V3    S    
N2    H51   S    
C65   H39   S    
O4    C2    A    
V1    O19   S    
C72   H52   S    
C67   H33   S    
C15   C17   A    
C60   H24   S    
C7    C9    S    
O9    V1    S    
C25   H5    S    
C44   H30   S    
N2    C72   S    
O3    C1    A    
C72   H53   S    
C2    C35   S    
C23   H3    S    
C39   C59   A    
C67   H34   S    
C37   H21   S    
C69   H44   S    
C71   H48   S    
C45   H27   S    
C38   C62   A    
C66   H36   S    
O7    C3    A    
C68   H46   S    
C24   H4    S    
O13   V1    S    
O5    C7    A    
O7    V1    S    
C15   C31   S    
C28   C30   A    
C69   C70   S    
C25   C27   A    
C70   H42   S    
C26   C28   A    
O3    V1    S    
O14   V4    S    
C43   C45   A    
C10   C12   A    
C24   C36   A    
C51   C59   A    
C16   C18   A    
C59   H23   S    
C21   C29   A    
C2    O12   A    
C13   H15   S    
C66   H37   S    
C17   C19   A    
O10   V2    S    
C40   C60   A    
C18   C20   A    
C33   H7    S    
C12   H2    S    
C18   N2    S    
C54   C56   A    
C51   C53   A    
C49   C57   A    
O11   V3    S    
C21   C23   A    
O15   C5    A    
O17   V3    S    
C22   C24   A    
C23   C35   A    
C32   H14   S    
C21   H9    S    
C9    C19   A    
C37   C61   A    
C10   C20   A    
C49   C63   A    
C72   H54   S    
O8    V2    S    
C29   C33   S    
C67   H35   S    
C14   H16   S    
C1    O11   A    
C16   C32   S    
C69   H43   S    
C50   C64   A    
C6    C40   S    
C27   C29   A    
C31   H13   S    
C37   C53   A    
C56   C58   A    
C17   N1    S    
C3    C64   S    
V4    O20   S    
C45   C47   A    
C46   H28   S    
C44   C46   A    
V3    O19   S    
C22   C30   A    
O1    V3    S    
H20   C56   S    
H17   C61   S    
C11   H1    S    
C48   C50   A    
C26   H6    S    
C65   C66   S    
C41   C63   A    
C34   H8    S    
C53   C55   A    
C42   C44   A    
O18   V4    S    
C52   C54   A    
C31   C33   D    
C38   C54   A    
C70   H40   S    
C27   C65   S    
O16   C6    A    
O1    C3    A    
C68   C69   S    
C47   C51   A    
C1    C36   S    
V2    O20   S    
C71   H49   S    
C50   C58   A    
O10   C6    A    
C19   H11   S    
O16   V4    S    
C11   C13   A    
C28   C68   S    
C57   H31   S    
C65   H38   S    
C52   C60   A    
O5    V1    S    
O17   C7    A    
O6    V2    S    
H18   C62   S    
O18   C8    A    
C25   C35   A    
O2    V4    S    
C41   H25   S    
C26   C36   A    
N1    C71   S    
C42   C64   A    
C13   C15   A    
N1    H47   S    
C12   C14   A    
C14   C16   A    
C46   C48   A    
C47   C49   A    
O15   V3    S    
C43   H29   S    
O9    C5    A    
C9    C11   A    
C32   C34   D    
C20   H12   S    
O14   V2    S    
C42   H26   S    
O2    C4    A    
C22   H10   S    
C68   H45   S    
C8    C10   S    
O4    V2    S    
C38   H22   S    
C30   C34   S    
C55   C57   A    
C5    C39   S    
C70   H41   S    
C41   C43   A    
C48   C52   A    
H19   C55   S    
C66   C67   S    
C39   C61   A    
O12   V4    S    
O8    C4    A    
C58   H32   S    
