data_mof_unit_28647.cif
_audit_creation_date              2012-12-10T19:11:30-0500
_audit_creation_method            fapswitch 2.2
_symmetry_space_group_name_H-M    P1
_symmetry_Int_Tables_number       1
_space_group_crystal_system       triclinic
_cell_length_a                    10.829226
_cell_length_b                    9.910278
_cell_length_c                    10.574973
_cell_angle_alpha                 88.977411
_cell_angle_beta                  91.741286
_cell_angle_gamma                 90.736865
_cell_volume                      1134.12197048

loop_
_atom_site_label
_atom_site_type_symbol
_atom_type_description
_atom_site_fract_x
_atom_site_fract_y
_atom_site_fract_z
_atom_type_partial_charge
C1    C     C_R   0.258527 0.499583 0.496479 0.788462
C2    C     C_3   0.922114 0.405936 0.395932 -0.516563
C3    C     C_3   0.375914 0.076811 0.525162 0.427366
C4    C     C_3   0.382482 0.917744 0.544610 0.410013
C5    C     C_3   0.529347 0.085780 0.368583 0.314010
C6    C     C_3   0.510123 0.923377 0.364673 0.322776
C7    C     C_3   0.592722 0.079956 0.592768 0.316513
C8    C     C_3   0.605958 0.920341 0.576268 0.305445
C9    C     C_R   0.497824 0.500677 0.258101 0.878267
C10   C     C_R   0.742116 0.500938 0.500286 0.799074
C11   C     C_R   0.496759 0.498834 0.742061 0.843458
C12   C     C_3   0.493812 0.500530 0.123625 -0.117740
C13   C     C_3   0.559403 0.605602 0.041243 -0.250337
C14   C     C_3   0.375174 0.508227 0.041106 -0.256159
C15   C     C_3   0.442066 0.611231 0.955831 0.827657
C16   C     C_3   0.490917 0.496467 0.877347 -0.283661
C17   C     C_3   0.606643 0.488696 0.963489 -0.175350
C18   C     C_3   0.425156 0.392914 0.962186 -0.179351
C19   C     C_3   0.542504 0.382975 0.047810 -0.019369
C20   C     C_2   0.570088 0.121475 0.728230 0.578932
C21   C     C_2   0.634968 0.841690 0.698379 0.636571
C22   C     C_2   0.655316 0.140769 0.325159 0.665580
C23   C     C_3   0.073214 0.650264 0.491117 -0.358208
C24   C     C_2   0.606632 0.859722 0.286166 0.696734
C25   C     C_2   0.738567 0.486458 0.928821 0.440178
C26   C     C_2   0.346135 0.274994 0.924925 0.680940
C27   C     C_2   0.114575 0.739249 0.601306 0.769778
C28   C     C_2   0.148132 0.455172 0.742897 0.520691
C29   C     C_2   0.894365 0.702984 0.341175 0.490489
C30   C     C_2   0.869013 0.329835 0.688228 0.659821
C31   C     C_2   0.090943 0.494406 0.254799 0.310732
C32   C     C_2   0.120546 0.279575 0.362646 0.586692
C33   C     C_3   0.075985 0.425780 0.620785 -0.232623
C34   C     C_3   0.930623 0.649408 0.472469 0.606231
C35   C     C_3   0.935180 0.452130 0.632868 0.422028
C36   C     C_3   0.064816 0.419288 0.378314 -0.107732
C37   C     C_3   0.121966 0.499294 0.497609 -0.299673
C38   C     C_3   0.879421 0.502194 0.500241 -0.262033
F1    F     F_    0.386094 0.726944 0.908862 -0.514691
F2    F     F_    0.321252 0.138412 0.624848 -0.580810
F3    F     F_    0.365189 0.880235 0.669305 -0.517548
F4    F     F_    0.445371 0.138818 0.279716 -0.604977
F5    F     F_    0.400650 0.895808 0.296801 -0.588883
F6    F     F_    0.707288 0.136794 0.571008 -0.615385
F7    F     F_    0.713669 0.903284 0.512173 -0.581167
F8    F     F_    0.880719 0.737355 0.556941 -0.539407
F9    F     F_    0.920645 0.554564 0.718364 -0.654785
H1    H     H_    0.868963 0.422810 0.305649 0.209109
H2    H     H_    0.636993 0.185045 0.777626 0.079020
H3    H     H_    0.713146 0.774402 0.703227 0.154037
H4    H     H_    0.663008 0.240306 0.283429 0.057775
H5    H     H_    0.665126 0.781413 0.324272 0.083217
H6    H     H_    0.776224 0.571780 0.877305 0.153558
H7    H     H_    0.315287 0.263704 0.827535 0.132475
H8    H     H_    0.167720 0.700967 0.681521 0.090166
H9    H     H_    0.240989 0.496460 0.741442 -0.002587
H10   H     H_    0.839139 0.643008 0.275479 -0.012144
H11   H     H_    0.774527 0.340713 0.715717 0.038471
H12   H     H_    0.894827 0.301858 0.425041 0.291338
H13   H     H_    0.164704 0.569183 0.250873 0.086813
H14   H     H_    0.203473 0.269728 0.308278 0.111389
H15   H     H_    0.310469 0.096487 0.444377 0.174206
H16   H     H_    0.303330 0.872697 0.490894 0.154587
H17   H     H_    0.620529 0.689159 0.071984 0.213887
H18   H     H_    0.279565 0.516934 0.073723 0.200536
H19   H     H_    0.583657 0.287416 0.083721 0.198461
H20   H     H_    0.115079 0.701899 0.408336 0.155365
H21   H     H_    0.091916 0.316842 0.607298 0.228072
N1    N     N_3   0.499750 0.138610 0.497240 -0.271276
N2    N     N_3   0.499750 0.861390 0.497240 -0.317186
O1    O     O_R   0.314910 0.616040 0.499970 -0.630311
O2    O     O_2   0.573362 0.848213 0.792373 -0.471021
O3    O     O_2   0.750952 0.077356 0.337095 -0.444004
O4    O     O_2   0.619611 0.897891 0.176856 -0.524694
O5    O     O_2   0.804608 0.393153 0.963319 -0.474077
O6    O     O_2   0.312738 0.193284 0.004909 -0.402137
O7    O     O_2   0.091018 0.859557 0.598593 -0.395653
O8    O     O_2   0.105462 0.424797 0.845309 -0.457508
O9    O     O_2   0.924729 0.817199 0.308515 -0.417664
O10   O     O_2   0.919388 0.221391 0.707065 -0.446986
O11   O     O_2   0.035914 0.465185 0.156247 -0.458743
O12   O     O_R   0.314910 0.383960 0.499970 -0.589735
O13   O     O_2   0.076431 0.177612 0.410892 -0.464762
O14   O     O_R   0.500080 0.616020 0.313900 -0.638573
O15   O     O_R   0.500080 0.383980 0.313900 -0.600920
O16   O     O_R   0.685320 0.616040 0.499930 -0.601136
O17   O     O_R   0.685320 0.383960 0.499930 -0.621999
O18   O     O_R   0.500150 0.616060 0.686000 -0.563976
O19   O     O_R   0.500150 0.383940 0.686000 -0.641157
O20   O     O_2   0.481135 0.082065 0.786744 -0.436540
Zn1   Zn    Zn3+2 0.500150 0.654960 0.499940 1.018024
Zn2   Zn    Zn3+2 0.500150 0.345040 0.499940 1.012295

loop_
_geom_bond_atom_site_label_1
_geom_bond_atom_site_label_2
_ccdc_geom_bond_type
C24   H5    S    
C5    F4    S    
C14   C18   S    
N2    Zn1   S    
C18   C26   S    
C35   F9    S    
C4    N2    S    
C28   H9    S    
C7    C8    S    
C4    H16   S    
C1    O1    A    
C30   C35   S    
C32   C36   S    
C36   C37   S    
C3    N1    S    
C25   H6    S    
C32   H14   S    
O16   Zn1   S    
C31   C36   S    
C5    C6    S    
C33   C35   S    
C27   H8    S    
C4    F3    S    
C15   C16   S    
O12   Zn2   S    
C19   H19   S    
C18   C19   S    
C23   H20   S    
C2    C38   S    
C8    F7    S    
C5    N1    S    
C9    O15   A    
C5    C22   S    
C16   C17   S    
C26   O6    D    
C34   F8    S    
O14   Zn1   S    
C23   C27   S    
N1    Zn2   S    
C28   O8    D    
C1    C37   S    
C30   O10   D    
O17   Zn2   S    
C26   H7    S    
C21   H3    S    
O15   Zn2   S    
C10   O17   A    
C21   O2    D    
C35   C38   S    
C2    H12   S    
C2    H1    S    
C1    O12   A    
C23   C37   S    
C20   O20   D    
C29   C34   S    
C33   C37   S    
C25   O5    D    
C31   H13   S    
C20   H2    S    
C11   C16   S    
C11   O19   A    
C29   O9    D    
O18   Zn1   S    
C11   O18   A    
C23   C34   S    
C6    C24   S    
C8    C21   S    
C7    F6    S    
O19   Zn2   S    
C15   F1    S    
C29   H10   S    
C28   C33   S    
C6    F5    S    
C13   C15   S    
C3    C4    S    
C3    H15   S    
C2    C36   S    
C6    N2    S    
C32   O13   D    
C10   O16   A    
C3    F2    S    
C34   C38   S    
C12   C14   S    
C27   O7    D    
C7    N1    S    
C8    N2    S    
C31   O11   D    
C13   C17   S    
C10   C38   S    
C17   C25   S    
C24   O4    D    
C13   H17   S    
C30   H11   S    
C12   C19   S    
C17   C19   S    
C14   H18   S    
C9    C12   S    
C9    O14   A    
O1    Zn1   S    
C12   C13   S    
C16   C18   S    
C7    C20   S    
C14   C15   S    
C22   O3    D    
C33   H21   S    
C22   H4    S    
