data_mof_unit_60508.cif
_audit_creation_date              2012-12-10T17:00:47-0500
_audit_creation_method            fapswitch 2.2
_symmetry_space_group_name_H-M    P1
_symmetry_Int_Tables_number       1
_space_group_crystal_system       triclinic
_cell_length_a                    13.12017
_cell_length_b                    13.120054
_cell_length_c                    19.534357
_cell_angle_alpha                 100.319946
_cell_angle_beta                  80.64373
_cell_angle_gamma                 90.904155
_cell_volume                      3263.87578254

loop_
_atom_site_label
_atom_site_type_symbol
_atom_type_description
_atom_site_fract_x
_atom_site_fract_y
_atom_site_fract_z
_atom_type_partial_charge
C1    C     C_R   0.223119 0.536210 0.526672 0.514733
C2    C     C_2   0.511680 0.556644 0.984982 -0.098444
C3    C     C_2   0.501146 0.473189 0.016061 -0.089185
C4    C     C_R   0.775877 0.462743 0.472799 0.486655
C5    C     C_R   0.511126 0.482294 0.234111 0.036154
C6    C     C_2   0.887891 0.444843 0.459334 0.305368
C7    C     C_2   0.942077 0.498970 0.505702 -0.098532
C8    C     C_2   0.110614 0.548988 0.538204 -0.127486
C9    C     C_2   0.054871 0.489193 0.495671 -0.122435
C10   C     C_2   0.544568 0.887824 0.530007 -0.082649
C11   C     C_2   0.507546 0.940275 0.486746 -0.149759
C12   C     C_R   0.509039 0.546018 0.909252 0.049880
C13   C     C_2   0.458627 0.110102 0.466700 -0.106471
C14   C     C_2   0.512010 0.053489 0.499554 -0.154129
C15   C     C_R   0.467170 0.223163 0.478831 0.510536
C16   C     C_R   0.533501 0.776268 0.521149 0.508343
C17   C     C_R   0.509997 0.486560 0.309609 0.500911
C18   C     C_R   0.490545 0.514052 0.690491 0.509779
C19   C     C_R   0.494264 0.524189 0.766032 -0.008163
C20   C     C_R   0.560208 0.458636 0.788677 -0.113934
C21   C     C_R   0.567178 0.467640 0.860353 0.292054
C22   C     C_3   0.872453 0.317971 0.360932 -0.106705
C23   C     C_R   0.445444 0.613303 0.886439 -0.169778
C24   C     C_3   0.627408 0.302214 0.857654 -0.136271
C25   C     C_R   0.437224 0.601907 0.815299 -0.144002
C26   C     C_R   0.565802 0.551688 0.127445 -0.104805
C27   C     C_R   0.568854 0.553427 0.198549 -0.127343
C28   C     C_R   0.452118 0.408046 0.197345 -0.119442
C29   C     C_R   0.449996 0.405640 0.126173 -0.121514
C30   C     C_R   0.505201 0.478414 0.091151 0.034062
H1    H     H_    0.608249 0.402044 0.750407 0.135117
H2    H     H_    0.615330 0.611018 0.225805 0.134070
H3    H     H_    0.407575 0.351774 0.223552 0.136227
H4    H     H_    0.484843 0.398597 0.985685 0.138511
H5    H     H_    0.400692 0.673507 0.924006 0.117043
H6    H     H_    0.611830 0.606609 0.100883 0.114550
H7    H     H_    0.386955 0.654273 0.798836 0.145979
H8    H     H_    0.515690 0.633771 0.015801 0.105691
H9    H     H_    0.823472 0.365719 0.337108 0.130249
H10   H     H_    0.824183 0.269542 0.394584 0.120257
H11   H     H_    0.919412 0.264583 0.317109 0.140568
H12   H     H_    0.404044 0.347778 0.098614 0.103026
H13   H     H_    0.671224 0.280062 0.803460 0.123483
H14   H     H_    0.545064 0.278942 0.859380 0.097810
H15   H     H_    0.661430 0.257850 0.891903 0.146478
H16   H     H_    0.093362 0.431907 0.452357 0.212651
H17   H     H_    0.902571 0.551866 0.551384 0.079540
H18   H     H_    0.073320 0.606890 0.581603 0.110430
H19   H     H_    0.559314 0.091120 0.537374 0.160697
H20   H     H_    0.471191 0.899715 0.443568 0.133376
H21   H     H_    0.409729 0.072849 0.429895 0.109658
H22   H     H_    0.575084 0.928023 0.575856 0.090553
O1    O     O_3   0.500000 0.500000 0.500000 -0.438353
O2    O     O_R   0.441420 0.437150 0.344000 -0.546904
O3    O     O_R   0.438960 0.578560 0.667440 -0.543545
O4    O     O_R   0.575450 0.541060 0.341470 -0.547559
O5    O     O_R   0.544160 0.443230 0.647100 -0.548974
O6    O     O_3   0.939949 0.380707 0.399151 -0.586018
O7    O     O_3   0.637977 0.408974 0.883144 -0.560254
O8    O     O_R   0.530110 0.266880 0.518530 -0.543130
O9    O     O_R   0.465470 0.738830 0.563940 -0.536449
O10   O     O_R   0.266890 0.467300 0.476120 -0.538517
O11   O     O_R   0.737530 0.526990 0.441410 -0.545152
O12   O     O_R   0.276880 0.592620 0.567490 -0.534632
O13   O     O_R   0.718700 0.413090 0.514970 -0.557267
O14   O     O_R   0.414920 0.276880 0.447500 -0.537877
O15   O     O_R   0.589510 0.717410 0.470040 -0.531561
Zn1   Zn    Zn3+2 0.571990 0.407410 0.544380 0.924803
Zn2   Zn    Zn3+2 0.407420 0.421690 0.442900 0.940572
Zn3   Zn    Zn3+2 0.598910 0.570150 0.439280 0.934546
Zn4   Zn    Zn3+2 0.421690 0.600750 0.573440 0.942882

loop_
_geom_bond_atom_site_label_1
_geom_bond_atom_site_label_2
_ccdc_geom_bond_type
C22   O6    S    
C3    C30   S    
O15   Zn3   S    
C8    H18   S    
C21   O7    S    
C6    C7    D    
C29   H12   S    
C1    C8    S    
C15   O8    A    
C2    H8    S    
C18   O5    A    
C23   H5    S    
C19   C20   A    
C4    O11   A    
O11   Zn3   S    
O13   Zn1   S    
C2    C12   S    
C1    O10   A    
O9    Zn4   S    
C23   C25   A    
C2    C3    D    
C27   H2    S    
C10   H22   S    
C9    H16   S    
C16   O15   A    
C10   C16   S    
C13   C14   D    
C17   O4    A    
O8    Zn1   S    
C26   C27   A    
C29   C30   A    
O2    Zn2   S    
C18   O3    A    
C24   O7    S    
C24   H14   S    
C24   H15   S    
C17   O2    A    
C26   H6    S    
C28   C29   A    
O1    Zn1   S    
C28   H3    S    
C26   C30   A    
O4    Zn3   S    
C13   C15   S    
C13   H21   S    
C4    O13   A    
C19   C25   A    
C11   C14   S    
O14   Zn2   S    
C5    C17   S    
C10   C11   D    
O1    Zn3   S    
O5    Zn1   S    
C11   H20   S    
C5    C28   A    
C1    O12   A    
C20   C21   A    
C14   H19   S    
C4    C6    S    
C18   C19   S    
C16   O9    A    
O12   Zn4   S    
C7    C9    S    
C24   H13   S    
C6    O6    S    
C22   H10   S    
C12   C23   A    
C3    H4    S    
C25   H7    S    
O1    Zn2   S    
C5    C27   A    
C15   O14   A    
C22   H9    S    
C12   C21   A    
O3    Zn4   S    
C22   H11   S    
O10   Zn2   S    
C7    H17   S    
C8    C9    D    
C20   H1    S    
O1    Zn4   S    
