data_mof_unit_62968.cif
_audit_creation_date              2012-12-10T18:48:47-0500
_audit_creation_method            fapswitch 2.2
_symmetry_space_group_name_H-M    P1
_symmetry_Int_Tables_number       1
_space_group_crystal_system       triclinic
_cell_length_a                    25.538627
_cell_length_b                    25.536277
_cell_length_c                    25.53801
_cell_angle_alpha                 119.950307
_cell_angle_beta                  89.926681
_cell_angle_gamma                 60.022534
_cell_volume                      11782.1091129

loop_
_atom_site_label
_atom_site_type_symbol
_atom_type_description
_atom_site_fract_x
_atom_site_fract_y
_atom_site_fract_z
_atom_type_partial_charge
C1    C     C_R   0.849920 0.500013 0.849753 0.513661
C2    C     C_3   0.552024 0.430578 0.471568 0.045870
C3    C     C_3   0.619373 0.445461 0.378523 -0.077163
C4    C     C_2   0.390101 0.647545 0.561594 0.591723
C5    C     C_2   0.609899 0.352454 0.438406 0.591723
C6    C     C_2   0.611474 0.353111 0.916268 0.592233
C7    C     C_2   0.388526 0.646889 0.083732 0.592233
C8    C     C_3   0.617419 0.450175 0.069994 -0.076136
C9    C     C_3   0.382581 0.549825 0.930006 -0.076136
C10   C     C_3   0.468152 0.524273 0.556866 0.263183
C11   C     C_3   0.531848 0.475727 0.443134 0.263183
C12   C     C_1   0.610672 0.499880 0.610439 0.066039
C13   C     C_1   0.389328 0.500120 0.389560 0.066038
C14   C     C_3   0.517756 0.544867 0.507294 -0.172767
C15   C     C_3   0.482244 0.455133 0.492706 -0.172767
C16   C     C_3   0.537534 0.499279 0.535960 -0.007209
C17   C     C_3   0.462466 0.500721 0.464039 -0.007209
C18   C     C_1   0.577611 0.499672 0.576894 0.058459
C19   C     C_R   0.150080 0.499987 0.150247 0.513662
C20   C     C_1   0.422388 0.500328 0.423106 0.058459
C21   C     C_3   0.531224 0.477357 0.033707 0.262803
C22   C     C_3   0.468776 0.522643 0.966292 0.262804
C23   C     C_R   0.650140 0.500023 0.650219 0.515392
C24   C     C_R   0.349860 0.499977 0.349781 0.515391
C25   C     C_3   0.552763 0.430872 0.960059 0.045362
C26   C     C_3   0.447236 0.569128 0.039941 0.045362
C27   C     C_1   0.610805 0.499891 0.889540 0.067831
C28   C     C_1   0.389194 0.500109 0.110460 0.067831
C29   C     C_3   0.516441 0.546257 0.037692 -0.172327
C30   C     C_3   0.513488 0.974904 0.037803 -0.172364
C31   C     C_3   0.483558 0.453743 0.962308 -0.172327
C32   C     C_3   0.537596 0.499306 0.963373 -0.007360
C33   C     C_3   0.462404 0.500694 0.036627 -0.007360
C34   C     C_1   0.577713 0.499695 0.922878 0.059336
C35   C     C_1   0.422287 0.500305 0.077122 0.059336
C36   C     C_3   0.982639 0.569864 0.041255 -0.005055
C37   C     C_3   0.017361 0.430136 0.958745 -0.005055
C38   C     C_3   0.007217 0.524633 0.967254 0.220831
C39   C     C_3   0.992783 0.475367 0.032746 0.220831
C40   C     C_1   0.889476 0.499788 0.889293 0.095256
C41   C     C_3   0.486511 0.025096 0.962197 -0.172364
C42   C     C_1   0.110524 0.500212 0.110707 0.095256
C43   C     C_3   0.938350 0.544297 0.037473 0.002652
C44   C     C_3   0.061650 0.455703 0.962526 0.002652
C45   C     C_3   0.962924 0.499222 0.963282 -0.031858
C46   C     C_3   0.037076 0.500778 0.036718 -0.031857
C47   C     C_R   0.849882 0.500024 0.650080 0.512281
C48   C     C_R   0.150118 0.499976 0.349920 0.512281
C49   C     C_1   0.922657 0.499549 0.922629 0.112889
C50   C     C_1   0.077343 0.500451 0.077371 0.112889
C51   C     C_3   0.034885 0.975830 0.444126 0.036593
C52   C     C_3   0.537562 0.926507 0.963377 -0.006596
C53   C     C_3   0.965115 0.024170 0.555874 0.036593
C54   C     C_3   0.961069 0.024209 0.470728 0.036449
C55   C     C_3   0.038931 0.975790 0.529272 0.036449
C56   C     C_1   0.889464 0.221176 0.610604 0.088992
C57   C     C_1   0.110535 0.778824 0.389396 0.088992
C58   C     C_3   0.036859 0.025740 0.510458 -0.162447
C59   C     C_3   0.963140 0.974260 0.489542 -0.162447
C60   C     C_3   0.962696 0.073615 0.536837 -0.017274
C61   C     C_3   0.037304 0.926385 0.463163 -0.017274
C62   C     C_1   0.922578 0.154601 0.577320 0.079327
C63   C     C_3   0.462438 0.073493 0.036623 -0.006596
C64   C     C_1   0.077422 0.845399 0.422680 0.079327
C65   C     C_3   0.035017 0.521413 0.531748 -0.097245
C66   C     C_3   0.964983 0.478587 0.468252 -0.097245
C67   C     C_3   0.960774 0.568551 0.554027 -0.095584
C68   C     C_3   0.039226 0.431449 0.445973 -0.095584
C69   C     C_1   0.889586 0.500036 0.610360 0.018601
C70   C     C_1   0.110414 0.499964 0.389640 0.018601
C71   C     C_R   0.650272 0.500003 0.849880 0.516427
C72   C     C_R   0.349728 0.499997 0.150120 0.516427
C73   C     C_3   0.037160 0.452882 0.514776 -0.094822
C74   C     C_1   0.577662 0.845514 0.922813 0.060575
C75   C     C_3   0.962840 0.547118 0.485224 -0.094822
C76   C     C_3   0.963549 0.500020 0.536423 0.043376
C77   C     C_3   0.036451 0.499980 0.463577 0.043376
C78   C     C_1   0.922963 0.500035 0.576987 -0.039072
C79   C     C_1   0.077037 0.499965 0.423013 -0.039072
C80   C     C_R   0.849893 0.300354 0.650189 0.518424
C81   C     C_R   0.150107 0.699646 0.349811 0.518424
C82   C     C_R   0.650195 0.699684 0.849830 0.517406
C83   C     C_R   0.349805 0.300316 0.150170 0.517406
C84   C     C_3   0.445650 0.023530 0.037508 0.045487
C85   C     C_1   0.422337 0.154486 0.077187 0.060575
C86   C     C_3   0.554350 0.976470 0.962492 0.045487
C87   C     C_3   0.470058 0.974962 0.963774 0.261252
C88   C     C_3   0.529942 0.025038 0.036225 0.261252
C89   C     C_1   0.610734 0.778913 0.889464 0.067551
C90   C     C_1   0.389266 0.221087 0.110536 0.067551
C91   C     C_3   0.386740 0.997853 0.923250 -0.067060
C92   C     C_3   0.613260 0.002147 0.076750 -0.067060
C93   C     C_3   0.049661 0.576754 0.946569 -0.060600
C94   C     C_3   0.950339 0.423246 0.053431 -0.060600
C95   C     C_2   0.961809 0.648097 0.087541 0.596965
C96   C     C_3   0.447976 0.569422 0.528432 0.045870
C97   C     C_2   0.038191 0.351903 0.912459 0.596964
C98   C     C_2   0.129963 0.406231 0.919643 0.610051
C99   C     C_2   0.870037 0.593769 0.080357 0.610051
C100  C     C_2   0.917795 0.049427 0.436599 0.616895
C101  C     C_2   0.082205 0.950573 0.563401 0.616895
C102  C     C_2   0.073590 0.950652 0.382040 0.616757
C103  C     C_2   0.926410 0.049348 0.617959 0.616757
C104  C     C_2   0.385182 0.048179 0.078530 0.591856
C105  C     C_2   0.614818 0.951821 0.921469 0.591856
C106  C     C_3   0.380626 0.554539 0.621477 -0.077163
H1    H     H_    0.932936 0.953119 0.480949 0.157872
H2    H     H_    0.524615 0.953863 0.068117 0.135240
H3    H     H_    0.467672 0.418564 0.486296 0.132378
H4    H     H_    0.532328 0.581435 0.513704 0.132378
H5    H     H_    0.470016 0.416076 0.932104 0.133618
H6    H     H_    0.529984 0.583924 0.067896 0.133618
H7    H     H_    0.401314 0.013190 0.895100 0.123068
H8    H     H_    0.353201 0.047895 0.972212 0.133487
H9    H     H_    0.360336 0.974524 0.898827 0.172399
H10   H     H_    0.646799 0.952105 0.027788 0.133487
H11   H     H_    0.598686 0.986810 0.104900 0.123068
H12   H     H_    0.067063 0.046881 0.519051 0.157872
H13   H     H_    0.639664 0.025476 0.101173 0.172399
H14   H     H_    0.091355 0.545247 0.957787 0.121014
H15   H     H_    0.018767 0.635815 0.987859 0.158151
H16   H     H_    0.068903 0.574310 0.905848 0.156171
H17   H     H_    0.981232 0.364186 0.012140 0.158150
H18   H     H_    0.908643 0.454755 0.042216 0.121016
H19   H     H_    0.931098 0.425688 0.094151 0.156171
H20   H     H_    0.975642 0.718556 0.159228 0.357337
H21   H     H_    0.024358 0.281444 0.840771 0.357337
H22   H     H_    0.223037 0.361984 0.912121 0.350593
H23   H     H_    0.928056 0.624923 0.598913 0.128572
H24   H     H_    0.776963 0.638016 0.087879 0.350593
H25   H     H_    0.847094 0.134795 0.436884 0.352472
H26   H     H_    0.152905 0.865205 0.563116 0.352472
H27   H     H_    0.140154 0.865321 0.294453 0.352568
H28   H     H_    0.859846 0.134679 0.705546 0.352568
H29   H     H_    0.298363 0.133065 0.146619 0.349472
H30   H     H_    0.701637 0.866935 0.853381 0.349472
H31   H     H_    0.392094 0.497883 0.594718 0.116917
H32   H     H_    0.349180 0.585526 0.602873 0.131099
H33   H     H_    0.353236 0.584035 0.672170 0.163399
H34   H     H_    0.071944 0.375077 0.401087 0.128572
H35   H     H_    0.650820 0.414474 0.397127 0.131098
H36   H     H_    0.607906 0.502117 0.405282 0.116917
H37   H     H_    0.646764 0.415965 0.327830 0.163399
H38   H     H_    0.305659 0.718793 0.561108 0.351922
H39   H     H_    0.694341 0.281207 0.438892 0.351922
H40   H     H_    0.696738 0.282251 0.845641 0.352648
H41   H     H_    0.303261 0.717749 0.154359 0.352648
H42   H     H_    0.605016 0.507274 0.099366 0.118025
H43   H     H_    0.649588 0.418718 0.020585 0.131735
H44   H     H_    0.644442 0.421931 0.092203 0.163436
H45   H     H_    0.064274 0.539020 0.557393 0.124685
H46   H     H_    0.350412 0.581282 0.979415 0.131735
H47   H     H_    0.394984 0.492726 0.900634 0.118025
H48   H     H_    0.355558 0.578069 0.907797 0.163436
H49   H     H_    0.935726 0.460980 0.442607 0.124685
H50   H     H_    0.932744 0.585863 0.472612 0.130215
H51   H     H_    0.067256 0.414137 0.527388 0.130215
H52   H     H_    0.475385 0.046137 0.931883 0.135240
O1    O     O_3   0.750050 0.500010 0.750000 -0.459511
O2    O     O_R   0.332180 0.543100 0.332140 -0.518609
O3    O     O_R   0.789210 0.543100 0.875260 -0.527085
O4    O     O_R   0.210790 0.456900 0.124740 -0.527085
O5    O     O_R   0.667790 0.543110 0.667830 -0.538138
O6    O     O_R   0.332210 0.456890 0.332170 -0.538139
O7    O     O_R   0.875320 0.456920 0.667760 -0.529563
O8    O     O_R   0.124680 0.543080 0.332240 -0.529563
O9    O     O_R   0.667890 0.456890 0.789150 -0.518773
O10   O     O_R   0.332110 0.543110 0.210850 -0.518773
O11   O     O_R   0.875360 0.335610 0.667790 -0.535365
O12   O     O_3   0.249950 0.499990 0.250000 -0.459511
O13   O     O_R   0.124640 0.664390 0.332210 -0.535364
O14   O     O_R   0.667870 0.664400 0.875290 -0.533628
O15   O     O_R   0.332130 0.335600 0.124710 -0.533628
O16   O     O_R   0.789160 0.335600 0.667830 -0.517855
O17   O     O_R   0.210840 0.664400 0.332170 -0.517855
O18   O     O_R   0.667820 0.664410 0.789090 -0.522411
O19   O     O_R   0.332180 0.335590 0.210910 -0.522411
O20   O     O_3   0.440954 0.943398 0.924803 -0.525816
O21   O     O_3   0.559046 0.056602 0.075197 -0.525816
O22   O     O_3   0.013069 0.547693 0.928844 -0.527006
O23   O     O_R   0.789090 0.543120 0.667780 -0.533247
O24   O     O_3   0.986931 0.452307 0.071156 -0.527006
O25   O     O_2   0.916340 0.697795 0.087322 -0.469152
O26   O     O_R   0.994227 0.663860 0.130611 -0.692268
O27   O     O_2   0.083660 0.302205 0.912678 -0.469151
O28   O     O_R   0.005773 0.336140 0.869389 -0.692268
O29   O     O_2   0.142137 0.374722 0.861710 -0.455002
O30   O     O_R   0.179199 0.396503 0.945946 -0.696140
O31   O     O_2   0.857863 0.625278 0.138290 -0.455002
O32   O     O_R   0.820801 0.603497 0.054054 -0.696140
O33   O     O_2   0.921613 0.003505 0.384217 -0.474054
O34   O     O_R   0.210910 0.456880 0.332220 -0.533247
O35   O     O_R   0.873435 0.124943 0.464625 -0.681325
O36   O     O_2   0.078387 0.996495 0.615783 -0.474054
O37   O     O_R   0.126565 0.875057 0.535375 -0.681325
O38   O     O_2   0.066895 0.996598 0.373875 -0.477311
O39   O     O_R   0.117003 0.875145 0.333956 -0.680454
O40   O     O_2   0.933105 0.003402 0.626124 -0.477311
O41   O     O_R   0.882997 0.124855 0.666044 -0.680454
O42   O     O_2   0.378579 0.001926 0.073732 -0.462852
O43   O     O_R   0.336740 0.123578 0.121845 -0.703929
O44   O     O_2   0.621421 0.998074 0.926268 -0.462852
O45   O     O_R   0.667910 0.543090 0.875320 -0.536139
O46   O     O_R   0.663259 0.876422 0.878155 -0.703929
O47   O     O_3   0.437179 0.551644 0.619367 -0.524833
O48   O     O_3   0.562821 0.448356 0.380633 -0.524833
O49   O     O_2   0.385103 0.696367 0.612793 -0.466100
O50   O     O_R   0.342229 0.664228 0.534072 -0.700497
O51   O     O_2   0.614897 0.303633 0.387207 -0.466100
O52   O     O_R   0.657771 0.335772 0.465928 -0.700497
O53   O     O_2   0.616931 0.304465 0.919339 -0.462245
O54   O     O_R   0.659595 0.336566 0.872355 -0.699983
O55   O     O_2   0.383069 0.695535 0.080661 -0.462245
O56   O     O_R   0.332090 0.456910 0.124680 -0.536139
O57   O     O_R   0.340405 0.663434 0.127645 -0.699983
O58   O     O_3   0.561539 0.451673 0.070035 -0.524748
O59   O     O_3   0.438460 0.548327 0.929965 -0.524748
O60   O     O_R   0.875390 0.456910 0.789050 -0.524720
O61   O     O_R   0.124610 0.543090 0.210950 -0.524720
O62   O     O_R   0.667820 0.456900 0.667860 -0.518609
Zn1   Zn    Zn3+2 0.719220 0.561590 0.719210 0.974789
Zn2   Zn    Zn3+2 0.280780 0.438410 0.280790 0.974789
Zn3   Zn    Zn3+2 0.842430 0.438430 0.719180 0.980539
Zn4   Zn    Zn3+2 0.157570 0.561570 0.280820 0.980540
Zn5   Zn    Zn3+2 0.719260 0.438420 0.719240 0.999277
Zn6   Zn    Zn3+2 0.280740 0.561580 0.280760 0.999277
Zn7   Zn    Zn3+2 0.719300 0.561580 0.842360 0.979814
Zn8   Zn    Zn3+2 0.280700 0.438420 0.157640 0.979815

loop_
_geom_bond_atom_site_label_1
_geom_bond_atom_site_label_2
_ccdc_geom_bond_type
C25   C31   S    
C66   C68   S    
C105  O46   S    
C9    H46   S    
C8    H44   S    
O12   Zn8   S    
C63   C88   S    
C72   O10   A    
C15   H3    S    
C29   H6    S    
H20   O26   S    
O34   Zn2   S    
C3    H35   S    
C84   C87   S    
C47   O23   A    
H21   O28   S    
C106  O47   S    
C37   C97   S    
O13   Zn4   S    
C53   C59   S    
C27   C71   S    
O60   Zn3   S    
H29   O43   S    
C54   C60   S    
C100  O35   S    
C51   C102  S    
C71   O45   A    
C5    O52   S    
C12   C23   S    
C7    C26   S    
C22   C32   S    
C4    O49   D    
C81   O17   A    
C74   C89   T    
C48   C70   S    
O16   Zn5   S    
C43   C99   S    
C29   C32   S    
C52   C74   S    
C10   C15   S    
O10   Zn6   S    
C66   H49   S    
C47   O7    A    
O14   Zn7   S    
C86   C88   S    
C95   O26   S    
O9    Zn5   S    
C6    C25   S    
C6    O54   S    
C58   C60   S    
C40   C49   T    
C91   O20   S    
C73   H51   S    
C58   H12   S    
C17   C20   S    
C65   C73   S    
C60   C62   S    
C51   C58   S    
O45   Zn7   S    
C47   C69   S    
C38   C45   S    
C98   O30   S    
C1    C40   S    
O61   Zn4   S    
O12   Zn2   S    
C44   C98   S    
C75   H50   S    
C53   C60   S    
C11   C17   S    
C28   C35   T    
O2    Zn6   S    
C65   C67   S    
C51   C61   S    
H26   O37   S    
C31   C33   S    
C36   C46   S    
C1    O60   A    
C93   H14   S    
O1    Zn7   S    
O19   Zn2   S    
O56   Zn8   S    
C19   C42   S    
C94   H17   S    
C25   C32   S    
O5    Zn1   S    
C1    O3    A    
C71   O9    A    
C63   C85   S    
C104  O42   D    
C54   C100  S    
C69   C78   T    
C67   H23   S    
C3    H36   S    
C80   O11   A    
C2    C11   S    
C105  O44   D    
C14   C96   S    
C93   O22   S    
C44   C46   S    
C46   C50   S    
C4    O50   S    
C23   O5    A    
C54   C59   S    
C77   C79   S    
C27   C34   T    
C4    C96   S    
H28   O41   S    
C41   C87   S    
C82   O14   A    
C59   C61   S    
C65   C77   S    
O18   Zn1   S    
C83   O19   A    
O23   Zn1   S    
C3    H37   S    
C93   H16   S    
C82   C89   S    
C22   C31   S    
C102  O39   S    
O8    Zn4   S    
C11   C14   S    
C99   O31   D    
C106  H31   S    
C39   C43   S    
C6    O53   D    
C68   C73   S    
O1    Zn1   S    
C21   C29   S    
C100  O33   D    
C59   H1    S    
C91   H7    S    
C13   C24   S    
C19   O4    A    
C32   C34   S    
C72   O56   A    
C65   H45   S    
C61   C64   S    
C97   O27   D    
C92   H11   S    
C38   C44   S    
C98   O29   D    
C24   O6    A    
C92   O21   S    
O6    Zn2   S    
C75   C77   S    
C26   C33   S    
O4    Zn8   S    
C10   C96   S    
C97   O28   S    
C66   C76   S    
C12   C18   T    
C45   C49   S    
C21   O58   S    
C48   O8    A    
C17   C96   S    
C103  O41   S    
C2    C15   S    
C92   H10   S    
C38   O22   S    
C7    O55   D    
C42   C50   T    
C39   C46   S    
O12   Zn4   S    
C11   O48   S    
C22   O59   S    
C82   O18   A    
C9    H48   S    
C83   O15   A    
O17   Zn6   S    
C84   C104  S    
C73   C76   S    
C56   C62   T    
C68   H34   S    
C2    C5    S    
C19   O61   A    
C41   C63   S    
C53   C55   S    
C37   C45   S    
C36   C38   S    
H30   O46   S    
C2    C16   S    
C101  O36   D    
O7    Zn3   S    
C57   C64   T    
H39   O52   S    
C94   H19   S    
C9    O59   S    
C68   C77   S    
C15   C17   S    
C83   C90   S    
C21   C25   S    
C23   O62   A    
C93   H15   S    
H27   O39   S    
C13   C20   T    
C30   H2    S    
C70   C79   T    
H22   O30   S    
C3    O48   S    
C92   H13   S    
C52   C87   S    
C76   C78   S    
C8    O58   S    
O15   Zn8   S    
C102  O38   D    
C99   O32   S    
H40   O54   S    
C85   C90   T    
C24   O2    A    
C5    O51   D    
C55   C101  S    
H41   O57   S    
C88   O21   S    
C56   C80   S    
C91   H8    S    
C63   C84   S    
H25   O35   S    
C51   C54   S    
C104  O43   S    
C21   C33   S    
C37   C44   S    
O12   Zn6   S    
C8    H43   S    
C80   O16   A    
C37   C39   S    
C10   C16   S    
C8    H42   S    
C87   O20   S    
C36   C95   S    
C95   O25   D    
C106  H33   S    
O11   Zn3   S    
C30   C52   S    
C53   C103  S    
C14   H4    S    
C66   C75   S    
C55   C61   S    
C52   C86   S    
C33   C35   S    
C91   H9    S    
O62   Zn5   S    
O1    Zn3   S    
C14   C16   S    
C81   O13   A    
C30   C84   S    
C106  H32   S    
C57   C81   S    
C10   O47   S    
C48   O34   A    
C39   O24   S    
C41   C86   S    
C9    H47   S    
C41   H52   S    
C86   C105  S    
C101  O37   S    
C67   C75   S    
O1    Zn5   S    
C26   C29   S    
C16   C18   S    
C22   C26   S    
C55   C58   S    
C28   C72   S    
C31   H5    S    
C36   C43   S    
C67   C76   S    
C94   O24   S    
H38   O50   S    
C30   C88   S    
C43   C45   S    
C103  O40   D    
C7    O57   S    
H24   O32   S    
O3    Zn7   S    
C94   H18   S    
