data_mof_unit_27280.cif
_audit_creation_date              2012-12-11T15:20:20-0500
_audit_creation_method            fapswitch 2.2
_symmetry_space_group_name_H-M    P1
_symmetry_Int_Tables_number       1
_space_group_crystal_system       triclinic
_cell_length_a                    12.959127
_cell_length_b                    13.03752
_cell_length_c                    15.295488
_cell_angle_alpha                 116.863249
_cell_angle_beta                  63.757615
_cell_angle_gamma                 97.124487
_cell_volume                      2058.47030918

loop_
_atom_site_label
_atom_site_type_symbol
_atom_type_description
_atom_site_fract_x
_atom_site_fract_y
_atom_site_fract_z
_atom_type_partial_charge
C1    C     C_R   0.999024 0.833055 0.055610 -0.125783
C2    C     C_R   0.708855 0.426673 0.302367 0.032741
C3    C     C_R   0.662856 0.457747 0.924971 0.153365
C4    C     C_R   0.071625 0.795436 0.305348 0.045485
C5    C     C_R   0.339445 0.523898 0.959789 -0.105228
C6    C     C_R   0.974451 0.178355 0.781139 -0.123801
C7    C     C_R   0.217641 0.462320 0.683218 -0.131389
C8    C     C_R   0.039514 0.261459 0.100189 0.540236
C9    C     C_R   0.941416 0.176016 0.003210 -0.211130
C10   C     C_R   0.319228 0.546586 0.778680 -0.131618
C11   C     C_R   0.259339 0.416236 0.047702 -0.153317
C12   C     C_R   0.701812 0.403693 0.207809 -0.119336
C13   C     C_R   0.049206 0.277159 0.683662 -0.120943
C14   C     C_R   0.362587 0.438309 0.979380 0.130249
C15   C     C_R   0.043546 0.167493 0.677178 0.038737
C16   C     C_R   0.328166 0.480033 0.674904 0.045324
C17   C     C_R   0.988450 0.160120 0.062466 -0.097911
C18   C     C_R   0.162190 0.970180 0.382946 -0.167829
C19   C     C_R   0.155484 0.064127 0.477309 -0.166977
C20   C     C_R   0.092088 0.060522 0.577469 0.150417
C21   C     C_R   0.060818 0.954770 0.579544 -0.170894
C22   C     C_R   0.068799 0.860443 0.485119 -0.170946
C23   C     C_R   0.755604 0.518411 0.892336 -0.167779
C24   C     C_R   0.107326 0.872592 0.389240 0.148261
C25   C     C_R   0.639377 0.437393 0.484287 -0.176827
C26   C     C_R   0.541353 0.457491 0.579306 -0.166164
C27   C     C_R   0.434551 0.433229 0.575632 0.149123
C28   C     C_R   0.430750 0.366202 0.475420 -0.172565
C29   C     C_R   0.528774 0.346181 0.380481 -0.159630
C30   C     C_R   0.629430 0.394687 0.386615 0.143573
C31   C     C_2   0.475725 0.393436 0.948724 -0.192536
C32   C     C_2   0.569006 0.434057 0.894214 -0.198925
C33   C     C_2   0.830078 0.956207 0.092240 -0.200361
C34   C     C_R   0.011547 0.700465 0.304837 -0.112274
C35   C     C_2   0.805068 0.032215 0.194973 -0.151516
C36   C     C_R   0.676242 0.422039 0.991272 -0.106347
C37   C     C_R   0.095488 0.799747 0.209458 -0.153838
C38   C     C_R   0.803428 0.488310 0.303395 -0.112439
C39   C     C_R   0.900338 0.747655 0.956747 -0.145431
C40   C     C_R   0.911264 0.852240 0.033813 0.139583
H1    H     H_    0.026966 0.895423 0.114899 0.092712
H2    H     H_    0.947441 0.110463 0.805906 0.091961
H3    H     H_    0.192140 0.430287 0.618209 0.083884
H4    H     H_    0.882459 0.120975 0.974523 0.123769
H5    H     H_    0.386281 0.590613 0.800296 0.082305
H6    H     H_    0.249180 0.358151 0.082681 0.151647
H7    H     H_    0.083056 0.298896 0.616903 0.085571
H8    H     H_    0.199739 0.979431 0.308482 0.107893
H9    H     H_    0.189770 0.142186 0.472149 0.102194
H10   H     H_    0.019351 0.946813 0.654664 0.107856
H11   H     H_    0.646963 0.346745 0.174335 0.083993
H12   H     H_    0.033123 0.783312 0.491322 0.106832
H13   H     H_    0.718635 0.467428 0.490283 0.104463
H14   H     H_    0.548927 0.499830 0.655123 0.103246
H15   H     H_    0.351330 0.336759 0.469485 0.103406
H16   H     H_    0.520868 0.304503 0.304837 0.104320
H17   H     H_    0.478816 0.347509 0.991555 0.121204
H18   H     H_    0.566771 0.474048 0.846335 0.122907
H19   H     H_    0.783074 0.967749 0.053154 0.130562
H20   H     H_    0.845310 0.022353 0.239912 0.145471
H21   H     H_    0.778292 0.546075 0.829730 0.092825
H22   H     H_    0.991229 0.661559 0.358966 0.088923
H23   H     H_    0.629556 0.360645 0.020209 0.080231
H24   H     H_    0.153247 0.853795 0.176520 0.088237
H25   H     H_    0.842468 0.509447 0.358209 0.094300
H26   H     H_    0.836567 0.730760 0.925618 0.100636
H27   H     H_    0.400090 0.573431 0.923729 0.081431
N1    N     N_R   0.037310 0.720000 0.995790 -0.045955
N2    N     N_R   0.946240 0.290860 0.848040 -0.038003
N3    N     N_R   0.146140 0.501160 0.788590 -0.037874
N4    N     N_R   0.025760 0.332690 0.063610 -0.081867
N5    N     N_R   0.962690 0.280000 0.004210 -0.066255
N6    N     N_R   0.209210 0.553840 0.847990 -0.039063
N7    N     N_R   0.175110 0.482040 0.063580 -0.037876
N8    N     N_R   0.996790 0.351810 0.788620 -0.038437
N9    N     N_R   0.790790 0.446160 0.152010 -0.041809
N10   N     N_R   0.824890 0.517960 0.936420 -0.040143
N11   N     N_R   0.003210 0.648190 0.211380 -0.038081
N12   N     N_R   0.774330 0.457010 0.995840 -0.044797
N13   N     N_R   0.053760 0.709140 0.151960 -0.040031
N14   N     N_R   0.853860 0.498840 0.211410 -0.041931
N15   N     N_R   0.974240 0.667310 0.936390 -0.042715
N16   N     N_R   0.225670 0.542990 0.004160 -0.047590
Ni1   Ni    Ni4+2 0.130310 0.630310 0.999970 0.207273
Ni2   Ni    Ni4+2 0.869690 0.369690 0.000030 0.202002
Ni3   Ni    Ni4+2 0.985640 0.509470 0.863740 0.211432
Ni4   Ni    Ni4+2 0.014360 0.490530 0.136260 0.246235
O1    O     O_3   0.074221 0.300833 0.183171 -0.699599
C41   C     C_3   0.079377 0.216827 0.216029 0.161514
H28   H     H_    0.157481 0.228333 0.230944 0.123287
H29   H     H_    0.090452 0.125771 0.153422 0.082538
C42   C     C_3   0.973306 0.238345 0.323136 -0.277279
H30   H     H_    0.965923 0.329395 0.384051 0.201162
H31   H     H_    0.894115 0.225332 0.309980 0.200428
C43   C     C_3   0.981912 0.158376 0.368485 -1.027960
H32   H     H_    0.993313 0.066525 0.308074 0.262011
H33   H     H_    0.901703 0.172664 0.443543 0.278802
H34   H     H_    0.056334 0.176970 0.389248 0.264445

loop_
_geom_bond_atom_site_label_1
_geom_bond_atom_site_label_2
_ccdc_geom_bond_type
N11   Ni4   S    
C6    N2    A    
C43   H32   S    
C3    C23   A    
C19   C20   A    
C9    N5    A    
C32   H18   S    
C14   C31   S    
C5    H27   S    
C2    C12   A    
C12   H11   S    
C7    N3    A    
N5    Ni2   S    
C43   H34   S    
C26   C27   A    
C18   C24   A    
C28   C29   A    
C25   H13   S    
C4    C24   S    
C10   N6    A    
N11   N13   A    
C34   H22   S    
C1    N1    A    
C18   C19   A    
C2    C38   A    
C1    C40   A    
C33   C35   D    
C6    C15   A    
C13   N8    A    
C4    C37   A    
C9    H4    S    
C7    H3    S    
N7    Ni4   S    
C41   H29   S    
C36   H23   S    
N7    N16   A    
N6    Ni1   S    
N13   Ni1   S    
C16   C27   S    
C33   H19   S    
C21   C22   A    
N3    N6    A    
C26   H14   S    
C21   H10   S    
C28   H15   S    
N10   N12   A    
C15   C20   S    
C37   N13   A    
C4    C34   A    
C33   C40   S    
N1    Ni1   S    
C39   C40   A    
C13   H7    S    
C25   C26   A    
N15   Ni3   S    
C11   N7    A    
C42   C43   S    
C35   H20   S    
C8    O1    S    
C29   C30   A    
C19   H9    S    
N8    Ni3   S    
N16   Ni1   S    
C38   H25   S    
C20   C21   A    
C10   H5    S    
C42   H31   S    
C23   N10   A    
C41   C42   S    
C5    C14   A    
N14   Ni4   S    
N4    Ni4   S    
C9    C17   A    
C7    C16   A    
N10   Ni3   S    
C13   C15   A    
C38   N14   A    
C39   H26   S    
C22   C24   A    
N3    Ni3   S    
N12   Ni2   S    
C37   H24   S    
N2    Ni2   S    
C22   H12   S    
C1    H1    S    
C25   C30   A    
C8    N4    A    
C31   C32   D    
C39   N15   A    
C36   N12   A    
C18   H8    S    
N9    N14   A    
C43   H33   S    
C29   H16   S    
C8    C17   A    
C2    C30   S    
N1    N15   A    
C31   H17   S    
C12   N9    A    
N4    N5    A    
C10   C16   A    
C34   N11   A    
C3    C36   A    
C5    N16   A    
C42   H30   S    
C11   C14   A    
N2    N8    A    
C3    C32   S    
C23   H21   S    
O1    C41   S    
C6    H2    S    
C27   C28   A    
C11   H6    S    
C41   H28   S    
N9    Ni2   S    
