data_mof_unit_57672.cif
_audit_creation_date              2012-12-11T14:47:59-0500
_audit_creation_method            fapswitch 2.2
_symmetry_space_group_name_H-M    P1
_symmetry_Int_Tables_number       1
_space_group_crystal_system       triclinic
_cell_length_a                    11.533703
_cell_length_b                    11.494078
_cell_length_c                    19.531648
_cell_angle_alpha                 90.430732
_cell_angle_beta                  89.867661
_cell_angle_gamma                 60.115505
_cell_volume                      2244.8837747

loop_
_atom_site_label
_atom_site_type_symbol
_atom_type_description
_atom_site_fract_x
_atom_site_fract_y
_atom_site_fract_z
_atom_type_partial_charge
C1    C     C_R   0.640363 0.117640 0.599204 0.547250
C2    C     C_1   0.640903 0.703684 0.667921 0.009168
C3    C     C_1   0.127205 0.198647 0.859346 0.004987
C4    C     C_1   0.171184 0.170203 0.727683 -0.029195
C5    C     C_1   0.150357 0.182114 0.798941 -0.029704
C6    C     C_1   0.194674 0.160960 0.667292 0.005690
C7    C     C_1   0.678842 0.191000 0.860807 0.004912
C8    C     C_1   0.658338 0.167581 0.729016 -0.028751
C9    C     C_1   0.665756 0.180845 0.800351 -0.029690
C10   C     C_1   0.652653 0.150212 0.668587 0.007105
C11   C     C_R   0.571915 0.637104 0.304799 0.167529
C12   C     C_R   0.612355 0.745813 0.598575 0.544346
C13   C     C_R   0.567045 0.645034 0.234551 -0.150999
C14   C     C_R   0.668499 0.650240 0.197616 -0.038815
C15   C     C_R   0.772459 0.654617 0.231932 -0.158816
C16   C     C_R   0.770919 0.661475 0.303345 0.179889
C17   C     C_R   0.663579 0.663041 0.339185 0.106742
C18   C     C_R   0.262306 0.238903 0.282377 -0.053014
C19   C     C_R   0.214606 0.263296 0.216088 -0.152511
C20   C     C_R   0.166085 0.185961 0.186043 -0.036954
C21   C     C_R   0.180015 0.072840 0.219529 -0.071119
C22   C     C_R   0.234498 0.041168 0.284774 0.205641
C23   C     C_R   0.240329 0.145516 0.598074 0.556634
C24   C     C_R   0.268181 0.129587 0.319535 -0.005630
C25   C     C_R   0.713455 0.033139 0.284423 -0.127795
C26   C     C_R   0.717731 0.057880 0.215642 -0.134695
C27   C     C_R   0.669715 0.189413 0.193772 0.026157
C28   C     C_R   0.613295 0.296414 0.240919 -0.123428
C29   C     C_R   0.610759 0.271199 0.310163 -0.115727
C30   C     C_R   0.661562 0.139530 0.331954 0.029686
C31   C     C_R   0.082318 0.231028 0.928662 0.545184
C32   C     C_R   0.683948 0.604924 0.929532 0.545064
C33   C     C_R   0.708452 0.206652 0.930141 0.544140
C34   C     C_R   0.644627 0.111046 0.401966 0.534196
C35   C     C_R   0.086407 0.234379 0.124126 0.550078
C36   C     C_R   0.683388 0.610270 0.126467 0.552745
C37   C     C_R   0.706945 0.211314 0.126395 0.544280
C38   C     C_R   0.620696 0.732235 0.404676 0.574093
C39   C     C_R   0.302470 0.114750 0.393434 0.536407
C40   C     C_1   0.670791 0.646875 0.860138 0.004873
C41   C     C_1   0.654663 0.683602 0.728372 -0.029036
C42   C     C_1   0.663716 0.666885 0.799654 -0.030250
Cr1   Cr    Cr6+3 0.404720 0.198220 0.499960 1.068587
Cr2   Cr    Cr6+3 0.698290 0.897110 0.500380 1.079966
Cr3   Cr    Cr6+3 0.396970 0.904720 0.499610 1.080080
Cr4   Cr    Cr6+3 0.926180 0.152240 0.028110 1.034159
Cr5   Cr    Cr6+3 0.921340 0.452070 0.027460 1.031640
Cr6   Cr    Cr6+3 0.626260 0.447120 0.028700 1.030151
H1    H     H_    0.762626 0.974155 0.179842 0.125580
H2    H     H_    0.578256 0.398089 0.224659 0.134145
H3    H     H_    0.569964 0.353349 0.346767 0.182352
H4    H     H_    0.487840 0.637496 0.208901 0.143788
H5    H     H_    0.855045 0.650848 0.203467 0.127524
H6    H     H_    0.206341 0.349811 0.189627 0.145539
H7    H     H_    0.145670 0.010003 0.195788 0.162510
H8    H     H_    0.749296 0.930925 0.300395 0.161660
O1    O     O_R   0.267740 0.231990 0.575440 -0.494963
O2    O     O_R   0.685970 0.784630 0.430010 -0.458871
O3    O     O_R   0.502530 0.766960 0.423990 -0.482969
O4    O     O_R   0.288330 0.026310 0.429250 -0.467749
O5    O     O_3   0.499990 0.000020 0.499980 -0.305360
O6    O     O_R   0.821500 0.119550 0.952820 -0.506279
O7    O     O_R   0.037130 0.162750 0.957360 -0.494864
O8    O     O_R   0.056440 0.344950 0.951330 -0.505498
O9    O     O_R   0.797900 0.560570 0.957460 -0.494631
O10   O     O_R   0.596140 0.579600 0.952720 -0.503320
O11   O     O_R   0.639070 0.321380 0.958660 -0.493591
O12   O     O_R   0.527280 0.186680 0.570530 -0.492693
O13   O     O_R   0.821240 0.124490 0.104360 -0.512919
O14   O     O_R   0.036900 0.167320 0.097830 -0.503657
O15   O     O_R   0.056190 0.349890 0.102870 -0.517726
O16   O     O_R   0.797670 0.565150 0.097930 -0.499974
O17   O     O_R   0.595880 0.584540 0.104260 -0.524798
O18   O     O_R   0.638830 0.325960 0.099140 -0.506497
O19   O     O_3   0.824590 0.350480 0.028090 -0.252636
O20   O     O_R   0.728090 0.003480 0.576380 -0.498131
O21   O     O_R   0.682970 0.789220 0.570490 -0.492842
O22   O     O_R   0.499290 0.771920 0.575530 -0.500294
O23   O     O_R   0.285330 0.030900 0.569730 -0.487978
O24   O     O_R   0.270980 0.227040 0.423900 -0.479653
O25   O     O_R   0.530280 0.182090 0.430050 -0.508394
O26   O     O_R   0.731330 0.998530 0.424830 -0.487778
O27   O     O_3   0.482662 0.612988 0.340948 -0.673782
H9    H     H_    0.423220 0.600788 0.308671 0.337403
O28   O     O_3   0.871029 0.668435 0.338705 -0.666002
H10   H     H_    0.937553 0.666112 0.305625 0.326693
C43   C     C_1   0.290694 0.338018 0.311574 0.242046
N1    N     N_1   0.310218 0.419495 0.334859 -0.279985
O29   O     O_3   0.246651 0.927087 0.313611 -0.665394
H11   H     H_    0.335638 0.880431 0.334937 0.364736

loop_
_geom_bond_atom_site_label_1
_geom_bond_atom_site_label_2
_ccdc_geom_bond_type
C37   O18   A    
Cr3   O4    S    
C37   O13   A    
C41   C42   S    
C19   C20   A    
C25   H8    S    
C43   N1    T    
C2    C12   S    
C24   C39   S    
O28   H10   S    
Cr1   O5    S    
C26   C27   A    
Cr4   O6    S    
C18   C24   A    
C15   H5    S    
Cr2   O21   S    
C33   O6    A    
Cr2   O26   S    
C14   C36   S    
C6    C23   S    
C2    C41   T    
C15   C16   A    
C1    O12   A    
C7    C9    T    
C18   C19   A    
Cr2   O20   S    
Cr4   O13   S    
C38   O2    A    
C20   C35   S    
C28   H2    S    
C11   C17   A    
C35   O14   A    
Cr2   O2    S    
C8    C9    S    
C12   O22   A    
Cr3   O22   S    
C34   O25   A    
C40   C42   T    
C35   O15   A    
C21   C22   A    
C7    C33   S    
Cr6   O19   S    
C31   O8    A    
Cr4   O19   S    
C30   C34   S    
C31   O7    A    
C4    C6    T    
C26   H1    S    
Cr5   O8    S    
C21   H7    S    
Cr1   O12   S    
C11   O27   S    
C25   C26   A    
C29   C30   A    
Cr6   O18   S    
C13   H4    S    
O27   H9    S    
C12   O21   A    
Cr3   O23   S    
C3    C31   S    
Cr5   O15   S    
C19   H6    S    
C16   O28   S    
Cr1   O25   S    
C22   C24   A    
C28   C29   A    
C33   O11   A    
C32   O10   A    
C29   H3    S    
C25   C30   A    
C23   O1    A    
Cr3   O3    S    
C1    O20   A    
Cr6   O17   S    
C1    C10   S    
C4    C5    S    
C3    C5    T    
Cr2   O5    S    
C18   C43   S    
Cr4   O7    S    
C23   O23   A    
C39   O24   A    
Cr1   O24   S    
Cr5   O19   S    
C11   C13   A    
C16   C17   A    
C27   C37   S    
C39   O4    A    
Cr3   O5    S    
C22   O29   S    
C17   C38   S    
C32   C40   S    
Cr6   O11   S    
Cr5   O16   S    
Cr4   O14   S    
C36   O17   A    
Cr1   O1    S    
C38   O3    A    
C20   C21   A    
C8    C10   T    
C27   C28   A    
C14   C15   A    
C34   O26   A    
Cr6   O10   S    
O29   H11   S    
C13   C14   A    
Cr5   O9    S    
C36   O16   A    
C32   O9    A    
