data_mof_unit_65124.cif
_audit_creation_date              2012-12-10T18:16:17-0500
_audit_creation_method            fapswitch 2.2
_symmetry_space_group_name_H-M    P1
_symmetry_Int_Tables_number       1
_space_group_crystal_system       triclinic
_cell_length_a                    15.932003
_cell_length_b                    14.692715
_cell_length_c                    10.663419
_cell_angle_alpha                 89.734953
_cell_angle_beta                  90.104208
_cell_angle_gamma                 90.058057
_cell_volume                      2496.10772292

loop_
_atom_site_label
_atom_site_type_symbol
_atom_type_description
_atom_site_fract_x
_atom_site_fract_y
_atom_site_fract_z
_atom_type_partial_charge
C1    C     C_R   0.339940 0.499949 0.499603 0.829514
C2    C     C_3   0.500784 0.500850 0.122712 -0.077642
C3    C     C_3   0.048790 0.600590 0.495557 0.160063
C4    C     C_3   0.048515 0.446777 0.620927 0.154644
C5    C     C_3   0.950495 0.437338 0.607784 0.196071
C6    C     C_3   0.950260 0.597723 0.509924 0.130788
C7    C     C_1   0.749137 0.499915 0.498727 -0.139394
C8    C     C_3   0.083059 0.498633 0.499466 -0.053469
C9    C     C_3   0.916771 0.497634 0.496492 -0.090939
C10   C     C_3   0.950454 0.456459 0.368687 -0.314472
C11   C     C_3   0.050756 0.447229 0.377084 0.730378
C12   C     C_1   0.824347 0.499170 0.497792 0.081757
C13   C     C_1   0.175514 0.499290 0.499218 0.116585
C14   C     C_R   0.499937 0.500280 0.258897 0.858631
C15   C     C_1   0.250730 0.499740 0.499300 -0.118784
C16   C     C_3   0.560462 0.053697 0.609994 -0.197251
C17   C     C_3   0.560526 0.945770 0.609940 -0.199133
C18   C     C_3   0.529325 0.053501 0.379253 -0.379428
C19   C     C_3   0.529214 0.947368 0.379232 -0.368452
C20   C     C_3   0.499371 0.092095 0.507273 0.080239
C21   C     C_3   0.499368 0.907878 0.507327 0.072692
C22   C     C_3   0.409115 0.945826 0.533902 -0.191590
C23   C     C_3   0.409091 0.053779 0.533686 -0.190766
C24   C     C_1   0.500879 0.804642 0.504416 0.141431
C25   C     C_1   0.500877 0.195347 0.504371 0.128961
C26   C     C_R   0.659929 0.500024 0.499612 0.809658
C27   C     C_R   0.500111 0.499747 0.740802 0.829754
C28   C     C_3   0.498225 0.584879 0.037720 0.421489
C29   C     C_3   0.434319 0.455810 0.040398 0.388238
C30   C     C_3   0.429415 0.541133 0.956281 -0.276616
C31   C     C_3   0.500332 0.499229 0.876765 -0.125545
C32   C     C_3   0.569061 0.545640 0.956223 -0.235061
C33   C     C_3   0.503085 0.412359 0.958999 -0.208131
C34   C     C_3   0.570045 0.459905 0.040877 -0.110028
Cu1   Cu    Cu3+1 0.499910 0.589920 0.499840 1.033306
Cu2   Cu    Cu3+1 0.499910 0.410080 0.499840 1.019234
H1    H     H_    0.371681 0.574341 0.919897 0.167506
H2    H     H_    0.625135 0.923351 0.585270 0.139408
H3    H     H_    0.625073 0.076518 0.585497 0.136823
H4    H     H_    0.488320 0.078895 0.302173 0.196065
H5    H     H_    0.488037 0.922515 0.302283 0.201162
H6    H     H_    0.593813 0.078518 0.358600 0.180523
H7    H     H_    0.593621 0.922487 0.358347 0.180692
H8    H     H_    0.389915 0.076267 0.628869 0.136926
H9    H     H_    0.390119 0.922859 0.629258 0.138227
H10   H     H_    0.624241 0.583299 0.919233 0.170871
H11   H     H_    0.504320 0.341086 0.924872 0.180995
H12   H     H_    0.936564 0.364801 0.584658 0.149385
H13   H     H_    0.922518 0.638498 0.432179 0.180872
N1    N     N_1   0.501390 0.724970 0.502570 -0.137252
N2    N     N_1   0.501390 0.275030 0.502570 -0.142635
O1    O     O_R   0.379360 0.575970 0.499860 -0.565653
O2    O     O_R   0.379360 0.424030 0.499860 -0.561015
O3    O     O_R   0.499910 0.575920 0.316720 -0.538268
O4    O     O_R   0.499910 0.424080 0.316720 -0.562991
O5    O     O_R   0.620490 0.575900 0.499870 -0.567591
O6    O     O_R   0.620490 0.424100 0.499870 -0.576576
O7    O     O_R   0.499950 0.575950 0.683010 -0.580609
O8    O     O_R   0.499950 0.424050 0.683010 -0.584336
C35   C     C_1   0.924993 0.515846 0.262079 0.344270
N3    N     N_1   0.905088 0.562046 0.178987 -0.221289
C36   C     C_1   0.909215 0.368160 0.340928 0.224762
N4    N     N_1   0.876890 0.299384 0.319307 -0.224027
C37   C     C_1   0.346431 0.094607 0.447168 0.269014
N5    N     N_1   0.297597 0.126635 0.379726 -0.204600
C38   C     C_1   0.346296 0.905210 0.447847 0.272805
N6    N     N_1   0.297331 0.873341 0.380784 -0.214443
C39   C     C_1   0.543005 0.094104 0.734468 0.252323
N7    N     N_1   0.529381 0.125812 0.831472 -0.265734
C40   C     C_1   0.543260 0.904458 0.734436 0.258400
N8    N     N_1   0.529784 0.872077 0.831485 -0.267843
O9    O     O_3   0.495997 0.674303 0.081793 -0.687801
H14   H     H_    0.494243 0.713199 0.005653 0.342769
O10   O     O_3   0.364752 0.409277 0.088281 -0.684091
H15   H     H_    0.333206 0.387894 0.013813 0.335809
C41   C     C_1   0.646522 0.416415 0.089043 0.282549
N9    N     N_1   0.706828 0.382227 0.127219 -0.247695
O11   O     O_3   0.920084 0.640167 0.619472 -0.680176
H16   H     H_    0.949305 0.614340 0.693232 0.376977
O12   O     O_3   0.909118 0.457290 0.721385 -0.692650
H17   H     H_    0.856930 0.420333 0.724422 0.337770
C42   C     C_1   0.089096 0.659129 0.592125 0.271911
N10   N     N_1   0.120614 0.705200 0.666379 -0.232186
C43   C     C_1   0.071324 0.494110 0.739266 0.323931
N11   N     N_1   0.089122 0.529889 0.832112 -0.229781
O13   O     O_3   0.082349 0.358235 0.631314 -0.716936
H18   H     H_    0.144013 0.362496 0.643940 0.340464
O14   O     O_3   0.069328 0.640092 0.378606 -0.652083
H19   H     H_    0.046682 0.703126 0.375688 0.338176
O15   O     O_3   0.088657 0.487617 0.270858 -0.614034
H20   H     H_    0.076591 0.448014 0.197712 0.354171
O16   O     O_3   0.078780 0.355551 0.379315 -0.691305
H21   H     H_    0.041282 0.317321 0.431150 0.351309

loop_
_geom_bond_atom_site_label_1
_geom_bond_atom_site_label_2
_ccdc_geom_bond_type
C8    C13   S    
Cu1   Cu2   S    
C4    C8    S    
Cu2   O8    S    
C6    C9    S    
C1    O1    A    
C28   O9    S    
C36   N4    T    
C7    C26   S    
C2    C29   S    
C19   C21   S    
C18   H6    S    
C30   C31   S    
C6    O11   S    
C4    O13   S    
C20   C25   S    
C29   C33   S    
C18   C19   S    
C1    O2    A    
C22   C38   S    
Cu1   O7    S    
Cu2   O2    S    
C39   N7    T    
C11   O16   S    
C16   C17   S    
C31   C33   S    
C40   N8    T    
C1    C15   S    
C9    C10   S    
O9    H14   S    
C3    C6    S    
C14   O4    A    
C3    O14   S    
C17   C40   S    
C21   C22   S    
Cu1   O3    S    
C10   C36   S    
Cu1   N1    S    
C9    C12   S    
C19   H7    S    
C24   N1    T    
C7    C12   T    
C5    H12   S    
O10   H15   S    
C27   C31   S    
C28   C32   S    
C41   N9    T    
Cu2   O6    S    
O13   H18   S    
C4    C5    S    
C29   O10   S    
C17   C21   S    
C23   H8    S    
C30   H1    S    
C35   N3    T    
C32   C34   S    
C10   C35   S    
C25   N2    T    
C5    C9    S    
C29   C30   S    
C31   C32   S    
C4    C43   S    
C20   C23   S    
C16   C20   S    
C3    C42   S    
C33   C34   S    
C43   N11   T    
C5    O12   S    
Cu2   N2    S    
C16   C39   S    
C23   C37   S    
C14   O3    A    
C3    C8    S    
C13   C15   T    
C33   H11   S    
Cu1   O5    S    
O11   H16   S    
C32   H10   S    
O12   H17   S    
C27   O7    A    
C26   O5    A    
C37   N5    T    
C28   C30   S    
Cu2   O4    S    
C27   O8    A    
C11   O15   S    
C2    C34   S    
O15   H20   S    
C8    C11   S    
O16   H21   S    
C38   N6    T    
C18   C20   S    
C17   H2    S    
C6    H13   S    
C2    C14   S    
C26   O6    A    
C10   C11   S    
C16   H3    S    
C22   H9    S    
C18   H4    S    
O14   H19   S    
C42   N10   T    
C21   C24   S    
Cu1   O1    S    
C22   C23   S    
C2    C28   S    
C19   H5    S    
C34   C41   S    
