data_mof_unit_48302.cif
_audit_creation_date              2012-12-11T16:12:48-0500
_audit_creation_method            fapswitch 2.2
_symmetry_space_group_name_H-M    P1
_symmetry_Int_Tables_number       1
_space_group_crystal_system       triclinic
_cell_length_a                    6.946231
_cell_length_b                    21.288484
_cell_length_c                    23.593267
_cell_angle_alpha                 90.015332
_cell_angle_beta                  90.029545
_cell_angle_gamma                 89.882666
_cell_volume                      3488.8400251

loop_
_atom_site_label
_atom_site_type_symbol
_atom_type_description
_atom_site_fract_x
_atom_site_fract_y
_atom_site_fract_z
_atom_type_partial_charge
O1    O     O_R   0.615270 0.806540 0.192260 -0.534787
O2    O     O_R   0.384730 0.193460 0.807740 -0.534787
O3    O     O_R   0.384730 0.193460 0.692260 -0.535295
O4    O     O_R   0.615270 0.806540 0.307740 -0.535294
O5    O     O_R   0.115270 0.693460 0.307740 -0.534552
O6    O     O_R   0.884730 0.306540 0.692260 -0.534552
O7    O     O_R   0.884730 0.306540 0.807740 -0.534944
O8    O     O_R   0.115270 0.693460 0.192260 -0.534944
O9    O     O_R   0.285500 0.813970 0.307340 -0.537463
O10   O     O_R   0.714500 0.186030 0.692660 -0.537464
O11   O     O_R   0.714500 0.186030 0.807340 -0.537602
O12   O     O_R   0.285500 0.813970 0.192660 -0.537602
O13   O     O_R   0.785500 0.686030 0.192660 -0.534422
O14   O     O_R   0.214500 0.313970 0.807340 -0.534421
O15   O     O_R   0.214500 0.313970 0.692660 -0.537094
O16   O     O_R   0.785500 0.686030 0.307340 -0.537094
C1    C     C_R   0.454344 0.829301 0.326617 0.724811
C2    C     C_R   0.545656 0.170699 0.673383 0.724811
C3    C     C_R   0.545848 0.170875 0.826738 0.727162
C4    C     C_R   0.454152 0.829125 0.173262 0.727162
C5    C     C_R   0.954625 0.670848 0.173280 0.723893
C6    C     C_R   0.045375 0.329152 0.826720 0.723893
C7    C     C_R   0.045556 0.329103 0.673266 0.727443
C8    C     C_R   0.954444 0.670897 0.326734 0.727443
O17   O     O_3   0.448760 0.710460 0.250000 -0.368395
O18   O     O_3   0.551240 0.289540 0.750000 -0.368395
O19   O     O_3   0.948760 0.789540 0.250000 -0.370698
O20   O     O_3   0.051240 0.210460 0.750000 -0.370698
V1    V     V_3+5 0.173900 0.757330 0.250000 1.455205
V2    V     V_3+5 0.826100 0.242670 0.750000 1.455206
V3    V     V_3+5 0.673900 0.742670 0.250000 1.459764
V4    V     V_3+5 0.326100 0.257330 0.750000 1.459766
C9    C     C_3   0.097498 0.528051 0.542014 -0.066608
C10   C     C_3   0.902502 0.471949 0.457986 -0.066608
C11   C     C_3   0.966471 0.469543 0.048459 -0.061689
C12   C     C_3   0.033529 0.530456 0.951541 -0.061689
C13   C     C_3   0.596698 0.971604 0.958000 -0.066359
C14   C     C_3   0.403302 0.028396 0.042000 -0.066359
C15   C     C_3   0.404589 0.027087 0.457007 -0.066258
C16   C     C_3   0.595411 0.972913 0.542993 -0.066259
C17   C     C_3   0.905549 0.551274 0.516384 0.416598
C18   C     C_3   0.094450 0.448726 0.483616 0.416597
C19   C     C_3   0.141426 0.459156 0.009386 0.432248
C20   C     C_3   0.858574 0.540843 0.990614 0.432249
C21   C     C_3   0.404163 0.949121 0.983540 0.415149
C22   C     C_3   0.595837 0.050878 0.016459 0.415149
C23   C     C_3   0.595267 0.051198 0.483009 0.399149
C24   C     C_3   0.404733 0.948802 0.516991 0.399150
H1    H     H_    0.677417 0.470970 0.533955 0.173285
H2    H     H_    0.322582 0.529030 0.466045 0.173284
H3    H     H_    0.308738 0.555946 0.008455 0.210883
H4    H     H_    0.691263 0.444053 0.991546 0.210884
H5    H     H_    0.178259 0.030423 0.966008 0.174194
H6    H     H_    0.821741 0.969577 0.033992 0.174193
H7    H     H_    0.823574 0.969372 0.468452 0.168130
H8    H     H_    0.176426 0.030628 0.531548 0.168130
C25   C     C_1   0.964267 0.624865 0.371875 -0.169813
C26   C     C_1   0.035732 0.375135 0.628125 -0.169813
C27   C     C_1   0.033957 0.374899 0.872127 -0.157733
C28   C     C_1   0.966043 0.625101 0.127873 -0.157733
C29   C     C_1   0.463288 0.875176 0.128117 -0.171323
C30   C     C_1   0.536712 0.124824 0.871883 -0.171322
C31   C     C_1   0.535656 0.124634 0.628209 -0.166940
C32   C     C_1   0.464344 0.875366 0.371791 -0.166940
C33   C     C_3   0.176530 0.516421 0.481390 -0.256555
C34   C     C_3   0.823469 0.483578 0.518610 -0.256555
C35   C     C_3   0.830160 0.468829 0.996219 -0.273678
C36   C     C_3   0.169840 0.531171 0.003781 -0.273683
C37   C     C_3   0.676019 0.982835 0.018641 -0.254503
C38   C     C_3   0.323981 0.017165 0.981359 -0.254503
C39   C     C_3   0.322503 0.016612 0.517390 -0.233411
C40   C     C_3   0.677496 0.983388 0.482610 -0.233409
C41   C     C_3   0.982997 0.539596 0.456138 -0.001015
C42   C     C_3   0.017002 0.460404 0.543862 -0.001015
C43   C     C_3   0.007481 0.458877 0.957380 -0.004540
C44   C     C_3   0.992519 0.541123 0.042620 -0.004547
C45   C     C_3   0.481926 0.960408 0.043816 -0.001726
C46   C     C_3   0.518074 0.039591 0.956184 -0.001727
C47   C     C_3   0.514530 0.040466 0.542993 -0.001629
C48   C     C_3   0.485470 0.959534 0.457007 -0.001629
C49   C     C_1   0.972548 0.586397 0.409772 0.033527
C50   C     C_1   0.027452 0.413603 0.590228 0.033529
C51   C     C_1   0.021821 0.412788 0.910432 0.062782
C52   C     C_1   0.978179 0.587212 0.089568 0.062782
C53   C     C_1   0.471284 0.913636 0.090209 0.032967
C54   C     C_1   0.528716 0.086364 0.909791 0.032967
C55   C     C_1   0.526032 0.086503 0.590043 0.040613
C56   C     C_1   0.473968 0.913498 0.409957 0.040613
Cl1   Cl    Cl    0.773372 0.618850 0.538239 -0.679029
Cl2   Cl    Cl    0.226628 0.381150 0.461761 -0.679028
Cl3   Cl    Cl    0.324392 0.402145 0.021428 -0.709366
Cl4   Cl    Cl    0.675607 0.597854 0.978571 -0.709364
Cl5   Cl    Cl    0.269388 0.882288 0.961581 -0.677865
Cl6   Cl    Cl    0.730612 0.117712 0.038419 -0.677862
Cl7   Cl    Cl    0.740485 0.116750 0.463682 -0.685908
Cl8   Cl    Cl    0.259515 0.883250 0.536317 -0.685908
C57   C     C_R   0.210610 0.565120 0.585233 0.125870
C58   C     C_R   0.256756 0.628080 0.573605 -0.018770
C59   C     C_R   0.360990 0.663737 0.612768 -0.032312
C60   C     C_R   0.422570 0.636638 0.663551 -0.094356
C61   C     C_R   0.379308 0.573941 0.675295 -0.122443
C62   C     C_R   0.273641 0.538277 0.636438 -0.115811
H9    H     H_    0.211660 0.649615 0.534173 0.148112
H10   H     H_    0.395133 0.712264 0.603550 0.142876
H11   H     H_    0.503918 0.664162 0.693772 0.106639
H12   H     H_    0.427418 0.552964 0.714639 0.116160
H13   H     H_    0.243583 0.489978 0.646683 0.113388
C63   C     C_R   0.789387 0.434880 0.414767 0.125869
C64   C     C_R   0.743248 0.371919 0.426394 -0.018773
C65   C     C_R   0.639011 0.336264 0.387231 -0.032317
C66   C     C_R   0.577420 0.363364 0.336449 -0.094353
C67   C     C_R   0.620675 0.426062 0.324707 -0.122438
C68   C     C_R   0.726345 0.461725 0.363564 -0.115811
H14   H     H_    0.788352 0.350383 0.465825 0.148115
H15   H     H_    0.604874 0.287736 0.396448 0.142875
H16   H     H_    0.496070 0.335841 0.306229 0.106637
H17   H     H_    0.572556 0.447040 0.285365 0.116155
H18   H     H_    0.756396 0.510025 0.353321 0.113390
C69   C     C_R   0.942596 0.436010 0.104211 0.138878
C70   C     C_R   0.785299 0.396189 0.113942 -0.084396
C71   C     C_R   0.766877 0.364805 0.165742 -0.124972
C72   C     C_R   0.905792 0.372726 0.208007 -0.113360
C73   C     C_R   0.062823 0.412290 0.198666 -0.124734
C74   C     C_R   0.081372 0.443821 0.146981 -0.090006
H19   H     H_    0.677958 0.388899 0.081527 0.179562
H20   H     H_    0.645324 0.334114 0.173024 0.130662
H21   H     H_    0.892051 0.348114 0.247923 0.125333
H22   H     H_    0.170470 0.418382 0.231399 0.116791
H23   H     H_    0.204269 0.474128 0.140166 0.127220
C75   C     C_R   0.057405 0.563991 0.895790 0.138879
C76   C     C_R   0.214689 0.603819 0.886063 -0.084382
C77   C     C_R   0.233111 0.635205 0.834264 -0.124970
C78   C     C_R   0.094209 0.627279 0.791996 -0.113367
C79   C     C_R   0.937191 0.587708 0.801333 -0.124732
C80   C     C_R   0.918642 0.556176 0.853017 -0.090009
H24   H     H_    0.322018 0.611113 0.918480 0.179559
H25   H     H_    0.354653 0.665902 0.826985 0.130666
H26   H     H_    0.107950 0.651892 0.752080 0.125333
H27   H     H_    0.829555 0.581612 0.768597 0.116795
H28   H     H_    0.795754 0.525863 0.859830 0.127215
C81   C     C_R   0.709515 0.934304 0.914877 0.130217
C82   C     C_R   0.750683 0.870760 0.925779 -0.025394
C83   C     C_R   0.854618 0.834946 0.886598 -0.035188
C84   C     C_R   0.920885 0.862460 0.836569 -0.070314
C85   C     C_R   0.883246 0.925806 0.825715 -0.116701
C86   C     C_R   0.778021 0.961638 0.864587 -0.116218
H29   H     H_    0.701941 0.848895 0.964639 0.147249
H30   H     H_    0.884869 0.785966 0.895213 0.142344
H31   H     H_    0.002198 0.834793 0.806400 0.104013
H32   H     H_    0.936047 0.947324 0.787219 0.110032
H33   H     H_    0.752980 0.010491 0.855158 0.112691
C87   C     C_R   0.290485 0.065696 0.085123 0.130217
C88   C     C_R   0.249317 0.129240 0.074220 -0.025395
C89   C     C_R   0.145382 0.165054 0.113401 -0.035186
C90   C     C_R   0.079113 0.137540 0.163430 -0.070311
C91   C     C_R   0.116751 0.074194 0.174284 -0.116701
C92   C     C_R   0.221978 0.038362 0.135412 -0.116219
H34   H     H_    0.298061 0.151104 0.035361 0.147250
H35   H     H_    0.115131 0.214034 0.104786 0.142346
H36   H     H_    0.997798 0.165207 0.193599 0.104014
H37   H     H_    0.063948 0.052676 0.212780 0.110032
H38   H     H_    0.247018 0.989509 0.144842 0.112692
C93   C     C_R   0.278661 0.054181 0.410915 0.125481
C94   C     C_R   0.305478 0.115511 0.390418 -0.074610
C95   C     C_R   0.180800 0.140316 0.349528 -0.096335
C96   C     C_R   0.027783 0.104374 0.329060 -0.057647
C97   C     C_R   0.999614 0.043425 0.349234 -0.084440
C98   C     C_R   0.124004 0.018493 0.390058 -0.111296
H39   H     H_    0.419256 0.144934 0.406446 0.171878
H40   H     H_    0.201794 0.187691 0.334093 0.115367
H41   H     H_    0.930518 0.123852 0.297794 0.099074
H42   H     H_    0.880471 0.015661 0.333605 0.108671
H43   H     H_    0.099060 0.971395 0.405636 0.124186
C99   C     C_R   0.721339 0.945820 0.589085 0.125482
C100  C     C_R   0.694521 0.884490 0.609582 -0.074612
C101  C     C_R   0.819200 0.859685 0.650473 -0.096336
C102  C     C_R   0.972219 0.895627 0.670940 -0.057647
C103  C     C_R   0.000389 0.956575 0.650765 -0.084439
C104  C     C_R   0.875998 0.981507 0.609941 -0.111296
H44   H     H_    0.580741 0.855067 0.593556 0.171878
H45   H     H_    0.798204 0.812311 0.665908 0.115366
H46   H     H_    0.069485 0.876149 0.702206 0.099074
H47   H     H_    0.119533 0.984340 0.666393 0.108671
H48   H     H_    0.900942 0.028605 0.594362 0.124186

loop_
_geom_bond_atom_site_label_1
_geom_bond_atom_site_label_2
_ccdc_geom_bond_type
O17   V3    S    
C7    C26   S    
C17   Cl1   S    
C14   C38   S    
O18   V4    S    
C95   C96   A    
C13   C37   S    
O12   V1    S    
O19   V1    S    
C37   C45   S    
C93   C94   A    
C10   C18   S    
C23   C47   S    
C21   Cl5   S    
C10   C34   S    
C47   C55   S    
C103  C104  A    
C97   H42   S    
C9    C33   S    
C73   C74   A    
C69   C74   A    
O16   V3    S    
C30   C54   T    
O11   C3    A    
C60   H11   S    
C61   C62   A    
C13   C81   S    
O8    V1    S    
C94   C95   A    
C27   C51   T    
C99   C104  A    
C26   C50   T    
C1    C32   S    
C85   C86   A    
C67   H17   S    
C2    C31   S    
C38   C46   S    
C3    C30   S    
C58   H9    S    
C34   C42   S    
O1    V3    S    
C33   C41   S    
C63   C64   A    
O3    C2    A    
O2    V4    S    
C41   C49   S    
C72   H21   S    
C20   C44   S    
C99   C100  A    
C22   C37   S    
C65   C66   A    
C11   C69   S    
C43   C51   S    
C66   C67   A    
O11   V2    S    
C77   C78   A    
C18   C33   S    
C90   H36   S    
C66   H16   S    
C6    C27   S    
C11   C19   S    
C103  H47   S    
C20   Cl4   S    
O9    V1    S    
C46   C54   S    
O15   C7    A    
C59   H10   S    
C21   C38   S    
C45   C53   S    
C78   H26   S    
O16   C8    A    
O7    V2    S    
C16   C40   S    
C95   H40   S    
C19   C43   S    
C98   H43   S    
C44   C52   S    
C94   H39   S    
C80   H28   S    
C42   C50   S    
H5    C38   S    
C14   C87   S    
C67   C68   A    
C57   C58   A    
O5    V1    S    
O17   V1    S    
C101  H45   S    
C23   C40   S    
C11   C44   S    
C18   C42   S    
H1    C34   S    
C88   H34   S    
O19   V3    S    
O20   V4    S    
C5    C28   S    
C76   H24   S    
C97   C98   A    
C22   C46   S    
C70   H19   S    
C19   C36   S    
C92   H38   S    
C77   H25   S    
C19   Cl3   S    
C39   C47   S    
C86   H33   S    
C18   Cl2   S    
C63   C68   A    
C84   H31   S    
C12   C43   S    
C12   C75   S    
O10   V2    S    
H7    C40   S    
C59   C60   A    
C22   Cl6   S    
C11   C35   S    
H8    C39   S    
O12   C4    A    
O8    C5    A    
C89   C90   A    
C16   C47   S    
O13   C5    A    
C62   H13   S    
C102  H46   S    
C71   C72   A    
C17   C34   S    
H4    C35   S    
C29   C53   T    
C64   H14   S    
C102  C103  A    
O4    C1    A    
C81   C86   A    
O9    C1    A    
C101  C102  A    
O6    V2    S    
C75   C80   A    
C91   H37   S    
O18   V2    S    
C78   C79   A    
C25   C49   T    
C12   C20   S    
C35   C43   S    
C24   C39   S    
C13   C21   S    
C76   C77   A    
C79   H27   S    
C70   C71   A    
C15   C23   S    
C104  H48   S    
C8    C25   S    
H6    C37   S    
C61   H12   S    
C16   C24   S    
C87   C92   A    
C91   C92   A    
O1    C4    A    
C23   Cl7   S    
C24   Cl8   S    
C31   C55   T    
O2    C3    A    
C82   H29   S    
O13   V3    S    
C85   H32   S    
O14   V4    S    
C84   C85   A    
O15   V4    S    
C69   C70   A    
C12   C36   S    
C100  H44   S    
C14   C45   S    
C36   C44   S    
O7    C6    A    
C13   C46   S    
C4    C29   S    
C79   C80   A    
C10   C63   S    
C15   C48   S    
C24   C48   S    
O20   V2    S    
C93   C98   A    
C72   C73   A    
C9    C17   S    
C89   H35   S    
C40   C48   S    
C100  C101  A    
C64   C65   A    
C16   C99   S    
C28   C52   T    
O14   C6    A    
C73   H22   S    
C96   C97   A    
O5    C8    A    
O10   C2    A    
O6    C7    A    
C65   H15   S    
C60   C61   A    
C74   H23   S    
C75   C76   A    
C9    C57   S    
H3    C36   S    
O3    V4    S    
H2    C33   S    
C83   H30   S    
C14   C22   S    
O4    V3    S    
C96   H41   S    
C10   C41   S    
C17   C41   S    
C68   H18   S    
C9    C42   S    
C71   H20   S    
C87   C88   A    
C48   C56   S    
C58   C59   A    
C90   C91   A    
C15   C39   S    
C82   C83   A    
C20   C35   S    
C21   C45   S    
C88   C89   A    
C81   C82   A    
C15   C93   S    
C57   C62   A    
C32   C56   T    
C83   C84   A    
