data_mof_unit_34407.cif
_audit_creation_date              2012-12-10T16:44:14-0500
_audit_creation_method            fapswitch 2.2
_symmetry_space_group_name_H-M    P1
_symmetry_Int_Tables_number       1
_space_group_crystal_system       triclinic
_cell_length_a                    7.427612
_cell_length_b                    8.694245
_cell_length_c                    13.401518
_cell_angle_alpha                 94.027251
_cell_angle_beta                  77.301614
_cell_angle_gamma                 103.136165
_cell_volume                      821.988860176

loop_
_atom_site_label
_atom_site_type_symbol
_atom_type_description
_atom_site_fract_x
_atom_site_fract_y
_atom_site_fract_z
_atom_type_partial_charge
C1    C     C_R   0.545312 0.800210 0.503050 0.866782
C2    C     C_R   0.419595 0.513407 0.975698 0.099249
C3    C     C_R   0.466864 0.557629 0.871635 0.083526
C4    C     C_R   0.561698 0.553272 0.035197 0.074487
C5    C     C_R   0.740619 0.648813 0.993110 0.071508
C6    C     C_R   0.776562 0.705327 0.894464 -0.219412
C7    C     C_R   0.641003 0.662820 0.835282 -0.195089
C8    C     C_R   0.531990 0.500200 0.135126 -0.279352
C9    C     C_R   0.842504 0.650794 0.153673 0.382721
C10   C     C_R   0.337558 0.497029 0.806969 -0.114293
C11   C     C_2   0.570891 0.968056 0.504518 -0.372648
C12   C     C_R   0.399450 0.498190 0.694532 0.777420
C13   C     C_2   0.429108 0.031928 0.495520 -0.366408
C14   C     C_R   0.454673 0.199794 0.496991 0.892131
C15   C     C_R   0.602843 0.517358 0.306072 0.796583
C16   C     C_R   0.880231 0.692201 0.051338 -0.180119
C17   C     C_R   0.665599 0.552684 0.196353 -0.158359
C18   C     C_R   0.152901 0.418170 0.850024 -0.193881
C19   C     C_R   0.099531 0.390341 0.954255 -0.148753
C20   C     C_R   0.231251 0.433980 0.016346 -0.156718
Cu1   Cu    Cu3+1 0.321300 0.483160 0.488710 0.957710
Cu2   Cu    Cu3+1 0.678700 0.516840 0.511290 0.948099
H1    H     H_    0.292440 0.960547 0.487019 0.181308
H2    H     H_    0.010850 0.617596 0.579368 0.222210
H3    H     H_    0.989093 0.382388 0.420665 0.230092
H4    H     H_    0.909974 0.783883 0.862963 0.143023
H5    H     H_    0.016320 0.766372 0.018912 0.163069
H6    H     H_    0.403436 0.418633 0.168082 0.166537
H7    H     H_    0.050734 0.373853 0.802578 0.164030
H8    H     H_    0.179602 0.407714 0.096290 0.146680
H9    H     H_    0.956051 0.330448 0.986849 0.150800
H10   H     H_    0.673313 0.717458 0.761643 0.161845
H11   H     H_    0.707562 0.039425 0.513017 0.178560
N1    N     N_2   0.947230 0.542220 0.528320 -0.215595
N2    N     N_2   0.052770 0.457780 0.471680 -0.208652
O1    O     O_R   0.383920 0.714220 0.492660 -0.578182
O2    O     O_R   0.685730 0.742660 0.511730 -0.598472
O3    O     O_R   0.275440 0.478800 0.636790 -0.588019
O4    O     O_R   0.577250 0.507240 0.655860 -0.580858
O5    O     O_R   0.314270 0.257340 0.488270 -0.584724
O6    O     O_R   0.616080 0.285780 0.507340 -0.580373
O7    O     O_R   0.422750 0.492760 0.344140 -0.569000
O8    O     O_R   0.724560 0.521200 0.363210 -0.580597
O9    O     O_3   0.978721 0.713646 0.209173 -0.724140
H12   H     H_    0.914494 0.746757 0.277312 0.335274

loop_
_geom_bond_atom_site_label_1
_geom_bond_atom_site_label_2
_ccdc_geom_bond_type
C2    C4    A    
C6    C7    A    
Cu1   N2    S    
C15   O7    A    
C8    C17   A    
C1    C11   S    
C1    O2    A    
C4    C8    A    
C19   H9    S    
C12   O4    A    
C2    C3    A    
C15   O8    A    
Cu1   O1    S    
C20   H8    S    
C13   C14   S    
C11   C13   D    
C6    H4    S    
Cu1   O5    S    
C10   C12   S    
H3    N2    S    
C14   O6    A    
C8    H6    S    
Cu2   O4    S    
C9    C17   A    
C9    C16   A    
C10   C18   A    
C18   C19   A    
C3    C7    A    
C12   O3    A    
C5    C6    A    
Cu2   N1    S    
Cu2   O6    S    
C18   H7    S    
Cu1   O7    S    
C11   H11   S    
O9    H12   S    
C13   H1    S    
C15   C17   S    
N1    N2    D    
C16   H5    S    
C3    C10   A    
C2    C20   A    
C9    O9    S    
C7    H10   S    
Cu1   Cu2   S    
Cu2   O2    S    
C14   O5    A    
Cu2   O8    S    
H2    N1    S    
Cu1   O3    S    
C19   C20   A    
C1    O1    A    
C4    C5    A    
C5    C16   A    
