data_mof_unit_11883.cif
_audit_creation_date              2012-12-10T19:08:06-0500
_audit_creation_method            fapswitch 2.2
_symmetry_space_group_name_H-M    P1
_symmetry_Int_Tables_number       1
_space_group_crystal_system       triclinic
_cell_length_a                    9.076606
_cell_length_b                    10.830999
_cell_length_c                    9.559376
_cell_angle_alpha                 90.304062
_cell_angle_beta                  90.021621
_cell_angle_gamma                 90.126509
_cell_volume                      939.754332583

loop_
_atom_site_label
_atom_site_type_symbol
_atom_type_description
_atom_site_fract_x
_atom_site_fract_y
_atom_site_fract_z
_atom_type_partial_charge
C1    C     C_R   0.496844 0.262410 0.499620 0.798987
C2    C     C_R   0.470035 0.934988 0.372359 -0.212044
C3    C     C_R   0.483021 0.870964 0.499525 -0.102003
C4    C     C_R   0.474022 0.937525 0.624672 0.072410
C5    C     C_3   0.568873 0.933084 0.752328 -0.533116
C6    C     C_3   0.567297 0.073398 0.751679 0.212970
C7    C     C_R   0.626834 0.521639 0.073939 0.189772
C8    C     C_R   0.378316 0.465957 0.073956 -0.064506
C9    C     C_R   0.378256 0.466086 0.925454 -0.034706
C10   C     C_R   0.627280 0.520858 0.926662 0.280237
C11   C     C_3   0.721758 0.633719 0.922553 0.150551
C12   C     C_R   0.220710 0.500020 0.499967 0.847009
C13   C     C_3   0.720566 0.634502 0.081525 -0.467383
C14   C     C_R   0.497603 0.737737 0.500147 0.799683
C15   C     C_R   0.779274 0.500116 0.500040 0.835432
C16   C     C_1   0.065543 0.500118 0.499982 -0.176523
C17   C     C_1   0.934424 0.500151 0.500041 -0.178633
C18   C     C_R   0.472870 0.064710 0.624151 0.189399
C19   C     C_R   0.481523 0.129419 0.498653 -0.170478
C20   C     C_R   0.469359 0.063739 0.371914 -0.205350
Cu1   Cu    Cu3+1 0.499990 0.499980 0.640670 0.971526
Cu2   Cu    Cu3+1 0.500010 0.500020 0.359330 0.946280
H1    H     H_    0.466921 0.111095 0.272423 0.179027
H2    H     H_    0.666374 0.714477 0.874731 0.099398
H3    H     H_    0.829733 0.615531 0.129589 0.224606
H4    H     H_    0.661161 0.714968 0.126880 0.165545
H5    H     H_    0.467802 0.886392 0.273054 0.168582
H6    H     H_    0.509919 0.891954 0.842831 0.217687
H7    H     H_    0.679793 0.894163 0.730370 0.156533
H8    H     H_    0.676186 0.118082 0.733050 0.102105
H9    H     H_    0.278990 0.439575 0.128474 0.155830
H10   H     H_    0.278874 0.439849 0.870555 0.168637
N1    N     N_R   0.500920 0.500930 0.147930 -0.193879
N2    N     N_R   0.500930 0.500890 0.852020 -0.225139
O1    O     O_R   0.500000 0.319640 0.618810 -0.553995
O2    O     O_R   0.500020 0.319680 0.381230 -0.581474
O3    O     O_R   0.288380 0.499980 0.618770 -0.579704
O4    O     O_R   0.288400 0.500020 0.381190 -0.588430
O5    O     O_R   0.499980 0.680320 0.618770 -0.585727
O6    O     O_R   0.500000 0.680360 0.381190 -0.586877
O7    O     O_R   0.711600 0.499980 0.618810 -0.563935
O8    O     O_R   0.711620 0.500020 0.381230 -0.579483
O9    O     O_3   0.488609 0.123101 0.864664 -0.698587
H11   H     H_    0.558512 0.124920 0.944459 0.321437
O10   O     O_3   0.862247 0.607082 0.869383 -0.700842
H12   H     H_    0.875757 0.659759 0.785759 0.329171

loop_
_geom_bond_atom_site_label_1
_geom_bond_atom_site_label_2
_ccdc_geom_bond_type
C7    C10   A    
O9    H11   S    
C2    H5    S    
Cu1   O1    S    
C5    H6    S    
C7    N1    A    
C1    O1    A    
C19   C20   A    
Cu1   O5    S    
C20   H1    S    
C8    N1    A    
Cu2   O6    S    
C2    C3    A    
C4    C18   A    
C10   N2    A    
Cu1   Cu2   S    
C11   C13   S    
C13   H3    S    
Cu2   O8    S    
C3    C14   S    
Cu1   O7    S    
C5    C6    S    
C15   O8    A    
C6    H8    S    
C5    H7    S    
C6    O9    S    
C12   O4    A    
C9    N2    A    
C6    C18   S    
C13   H4    S    
C11   O10   S    
C1    C19   S    
C10   C11   S    
C14   O6    A    
C3    C4    A    
Cu2   O4    S    
C16   C17   T    
C11   H2    S    
C7    C13   S    
Cu1   O3    S    
C15   O7    A    
C18   C19   A    
C12   O3    A    
C15   C17   S    
Cu2   N1    S    
C8    C9    A    
Cu1   N2    S    
C9    H10   S    
C14   O5    A    
O10   H12   S    
C8    H9    S    
C2    C20   A    
Cu2   O2    S    
C12   C16   S    
C1    O2    A    
C4    C5    S    
