data_mof_unit_58013.cif
_audit_creation_date              2013-03-05T15:46:21-0500
_audit_creation_method            fapswitch 2.2
_symmetry_space_group_name_H-M    P1
_symmetry_Int_Tables_number       1
_space_group_crystal_system       triclinic
_cell_length_a                    10.275426
_cell_length_b                    10.615178
_cell_length_c                    10.750953
_cell_angle_alpha                 90.794193
_cell_angle_beta                  95.4999
_cell_angle_gamma                 81.387391
_cell_volume                      1154.10390606

loop_
_atom_site_label
_atom_site_type_symbol
_atom_site_description
_atom_site_fract_x
_atom_site_fract_y
_atom_site_fract_z
_atom_type_partial_charge
O1    O     O_R   0.568950 0.489660 0.307530 -0.601531
O2    O     O_R   0.348880 0.522640 0.340350 -0.635111
C1    C     C_R   0.444293 0.504003 0.267537 0.878555
O3    O     O_R   0.610060 0.300270 0.483590 -0.587485
O4    O     O_R   0.389990 0.333260 0.516410 -0.643441
C2    C     C_R   0.499621 0.261145 0.498958 0.931300
Zn1   Zn    Zn3+2 0.646940 0.477980 0.478090 0.976831
Zn2   Zn    Zn3+2 0.353060 0.522020 0.521910 1.032270
O5    O     O_R   0.651120 0.477360 0.659650 -0.642693
O6    O     O_R   0.431050 0.510340 0.692470 -0.584108
O7    O     O_R   0.610010 0.666740 0.483590 -0.629402
O8    O     O_R   0.389940 0.699730 0.516410 -0.554276
C3    C     C_R   0.555662 0.488484 0.732443 0.978021
C4    C     C_R   0.499591 0.738836 0.498199 0.907981
C5    C     C_R   0.522457 0.125083 0.267800 -0.146953
H1    H     H_    0.521212 0.226903 0.263554 0.134586
C6    C     C_R   0.533901 0.056549 0.156783 -0.096787
H2    H     H_    0.541949 0.105395 0.070703 0.185283
C7    C     C_R   0.534144 0.925474 0.156505 -0.112860
H3    H     H_    0.542376 0.872347 0.070190 0.146247
C8    C     C_R   0.522857 0.862722 0.267226 -0.135880
H4    H     H_    0.521821 0.761081 0.262558 0.136880
C9    C     C_R   0.511736 0.930936 0.380881 0.060905
C10   C     C_R   0.511614 0.062681 0.381216 0.051242
C11   C     C_R   0.498456 0.128622 0.495103 -0.241261
C12   C     C_R   0.482257 0.068561 0.606605 0.282808
C13   C     C_R   0.481880 0.938420 0.606060 -0.003448
C14   C     C_R   0.498244 0.871499 0.494333 -0.128270
H5    H     H_    0.387354 0.453959 0.891532 0.206673
H6    H     H_    0.612415 0.420774 0.106695 0.202486
C15   C     C_2   0.413098 0.492544 0.134778 -0.363910
C16   C     C_2   0.511367 0.449242 0.065856 -0.183686
H7    H     H_    0.687394 0.467931 0.906853 0.142333
C17   C     C_2   0.586680 0.468674 0.864899 -0.308775
C18   C     C_2   0.488378 0.453258 0.932868 -0.054122
H8    H     H_    0.312429 0.521088 0.093243 0.170975
N1    N     N_2   0.157290 0.551390 0.551110 -0.010996
C19   C     C_2   0.075272 0.477571 0.500761 0.132636
N2    N     N_2   0.842740 0.448550 0.448960 -0.082571
C20   C     C_2   0.932912 0.493821 0.523986 0.230996
N3    N     N_R   0.473481 0.138667 0.721373 0.187740
O9    O     O_R   0.365975 0.150139 0.778017 -0.412949
O10   O     O_R   0.575600 0.185817 0.772323 -0.423870
N4    N     N_3   0.901133 0.545180 0.643062 -0.420975
H9    H     H_    0.882676 0.471403 0.698917 0.202497
H10   H     H_    0.819244 0.616431 0.630746 0.245969
N5    N     N_3   0.124696 0.362046 0.439755 -0.496879
H11   H     H_    0.170941 0.295951 0.507000 0.237190
H12   H     H_    0.187384 0.380206 0.373648 0.226937
N6    N     N_3   0.866639 0.422148 0.324834 -0.366546
H13   H     H_    0.916162 0.329155 0.319141 0.207042
H14   H     H_    0.919908 0.488616 0.290336 0.187367
N7    N     N_R   0.105821 0.673079 0.589700 0.297631
O11   O     O_R   0.171607 0.727620 0.678905 -0.353737
O12   O     O_R   0.012757 0.743121 0.519738 -0.392912
N8    N     N_3   0.470810 0.871798 0.719248 -0.429478
H15   H     H_    0.545857 0.890940 0.786432 0.201306
H16   H     H_    0.379474 0.905862 0.751826 0.262226

loop_
_geom_bond_atom_site_label_1
_geom_bond_atom_site_label_2
_geom_bond_distance
_ccdc_geom_bond_type
O4    Zn2   1.983854 S    
C19   C20   1.491695 S    
C9    C10   1.398264 A    
C5    C6    1.394570 A    
N1    C19   1.309916 D    
N3    O9    1.300989 A    
H5    C18   1.088335 S    
C15   H8    1.087458 S    
N6    H14   1.047296 S    
C7    H3    1.082858 S    
O8    C4    1.290256 A    
Zn2   O8    1.981715 S    
N1    N7    1.393925 S    
C8    C9    1.416990 A    
C6    H2    1.083023 S    
C19   N5    1.430725 S    
C3    C17   1.440445 S    
N5    H12   1.042080 S    
O1    Zn1   1.927391 S    
N7    O11   1.299792 A    
N8    H15   1.045822 S    
C1    C15   1.440092 S    
H6    C16   1.088349 S    
N3    O10   1.300440 A    
C12   C13   1.381988 A    
O3    Zn1   1.981715 S    
Zn2   O6    1.927391 S    
C5    C10   1.417224 A    
C7    C8    1.394884 A    
N8    H16   1.045033 S    
O2    C1    1.303017 A    
O1    C1    1.298696 A    
N7    O12   1.302953 A    
O4    C2    1.291699 A    
O7    C4    1.291680 A    
C2    C11   1.408594 S    
C9    C14   1.408879 A    
Zn2   N1    2.042759 S    
C4    C14   1.407389 S    
C5    H1    1.080538 S    
C16   C18   1.426795 S    
C20   N4    1.431843 S    
N2    N6    1.396965 S    
H7    C17   1.087494 S    
C10   C11   1.409615 A    
O3    C2    1.290960 A    
C17   C18   1.332425 D    
N2    C20   1.311262 D    
Zn1   O5    1.948375 S    
Zn1   N2    2.042878 S    
C13   N8    1.438171 S    
Zn1   O7    1.983856 S    
O5    C3    1.303227 A    
N6    H13   1.044507 S    
C6    C7    1.390973 A    
C11   C12   1.400867 A    
C8    H4    1.081011 S    
N5    H11   1.043597 S    
O2    Zn2   1.948375 S    
N4    H9    1.043676 S    
C15   C16   1.332244 D    
C12   N3    1.435319 S    
N4    H10   1.043278 S    
C13   C14   1.398221 A    
O6    C3    1.298596 A    
