data_mof_unit_34374.cif
_audit_creation_date              2012-12-10T17:53:25-0500
_audit_creation_method            fapswitch 2.2
_symmetry_space_group_name_H-M    P1
_symmetry_Int_Tables_number       1
_space_group_crystal_system       triclinic
_cell_length_a                    23.417774
_cell_length_b                    10.627662
_cell_length_c                    9.905426
_cell_angle_alpha                 87.945004
_cell_angle_beta                  90.393144
_cell_angle_gamma                 90.99653
_cell_volume                      2463.21856041

loop_
_atom_site_label
_atom_site_type_symbol
_atom_type_description
_atom_site_fract_x
_atom_site_fract_y
_atom_site_fract_z
_atom_type_partial_charge
Br1   Br    Br    0.609100 0.245343 0.728352 -0.505973
Br2   Br    Br    0.381496 0.860246 0.422455 -0.415025
Br3   Br    Br    0.334843 0.150938 0.175261 -0.446614
C1    C     C_R   0.505554 0.260948 0.503363 0.920106
C2    C     C_R   0.120821 0.601829 0.452552 0.512735
C3    C     C_R   0.237873 0.494322 0.619737 -0.082212
C4    C     C_R   0.389383 0.498955 0.499627 0.892388
C5    C     C_R   0.297127 0.495953 0.620887 -0.194751
C6    C     C_R   0.327124 0.496253 0.498638 -0.033424
C7    C     C_R   0.297139 0.493591 0.375472 -0.150034
C8    C     C_R   0.237869 0.491922 0.374736 -0.064418
C9    C     C_R   0.208335 0.492777 0.496766 0.298878
C10   C     C_R   0.762133 0.498364 0.380636 -0.100947
C11   C     C_R   0.702877 0.496328 0.379554 -0.214720
C12   C     C_R   0.967338 0.285706 0.590881 -0.154147
C13   C     C_R   0.672905 0.504324 0.501115 -0.039748
C14   C     C_R   0.702924 0.515792 0.623402 -0.187237
C15   C     C_R   0.762191 0.517496 0.624123 -0.109931
C16   C     C_R   0.498715 0.739365 0.497281 0.928273
C17   C     C_R   0.791650 0.508378 0.502867 0.316134
C18   C     C_R   0.607375 0.110054 0.606489 0.235462
C19   C     C_R   0.657783 0.041203 0.608650 -0.123423
C20   C     C_R   0.657872 0.918656 0.565110 -0.175080
C21   C     C_R   0.606898 0.861617 0.526309 -0.159770
C22   C     C_R   0.555667 0.930187 0.520522 0.028919
C23   C     C_R   0.026733 0.283019 0.588797 -0.149153
C24   C     C_R   0.556592 0.059063 0.547456 0.034875
C25   C     C_R   0.506561 0.127523 0.512673 -0.136815
C26   C     C_R   0.456084 0.068139 0.472138 -0.216338
C27   C     C_R   0.453419 0.939621 0.465797 0.267211
C28   C     C_R   0.610631 0.501133 0.500292 0.871344
C29   C     C_R   0.503011 0.871843 0.490630 -0.164014
C30   C     C_R   0.424196 0.338238 0.144323 -0.215824
C31   C     C_R   0.387128 0.258359 0.076234 0.285297
C32   C     C_R   0.388166 0.256698 0.936557 -0.214456
C33   C     C_R   0.425844 0.335584 0.864399 -0.205808
C34   C     C_R   0.058363 0.389390 0.543107 -0.018878
C35   C     C_R   0.463240 0.419295 0.929948 0.185164
C36   C     C_R   0.462864 0.419980 0.074515 0.134237
C37   C     C_R   0.535483 0.576526 0.069148 -0.091038
C38   C     C_R   0.535402 0.576642 0.925972 -0.069353
C39   C     C_R   0.881911 0.612077 0.459229 0.503514
C40   C     C_R   0.879075 0.399569 0.547716 0.510914
C41   C     C_R   0.938617 0.394772 0.547203 -0.018423
C42   C     C_R   0.969974 0.502007 0.501023 -0.019939
C43   C     C_R   0.941526 0.611892 0.456755 -0.015144
C44   C     C_R   0.029918 0.499311 0.498999 -0.019453
C45   C     C_R   0.061276 0.606571 0.452949 -0.021233
C46   C     C_R   0.032551 0.715647 0.409273 -0.147557
C47   C     C_R   0.973154 0.718275 0.411130 -0.155663
C48   C     C_R   0.117975 0.389095 0.540345 0.513281
H1    H     H_    0.944068 0.202202 0.626638 0.195497
H2    H     H_    0.359663 0.194019 0.883285 0.196711
H3    H     H_    0.424440 0.328063 0.757667 0.217284
H4    H     H_    0.564325 0.639286 0.870177 0.145180
H5    H     H_    0.055821 0.799179 0.373594 0.200206
H6    H     H_    0.952163 0.803716 0.376738 0.195576
H7    H     H_    0.214801 0.495227 0.714071 0.149428
H8    H     H_    0.319307 0.497497 0.717148 0.171846
H9    H     H_    0.214798 0.490432 0.279663 0.149794
H10   H     H_    0.785221 0.491084 0.286959 0.144052
H11   H     H_    0.680733 0.523056 0.718301 0.181411
H12   H     H_    0.680670 0.487719 0.283974 0.171133
H13   H     H_    0.696535 0.080198 0.651908 0.189598
H14   H     H_    0.319338 0.493133 0.279922 0.174093
H15   H     H_    0.785313 0.525465 0.718569 0.144254
H16   H     H_    0.418301 0.122239 0.447456 0.186453
H17   H     H_    0.696855 0.865289 0.568985 0.173985
H18   H     H_    0.607982 0.764060 0.499395 0.126589
H19   H     H_    0.564459 0.639060 0.121038 0.145543
H20   H     H_    0.047721 0.197550 0.623110 0.197958
H21   H     H_    0.421173 0.333108 0.251279 0.217107
N1    N     N_R   0.852319 0.506923 0.503944 -0.359379
N2    N     N_R   0.147615 0.494334 0.495900 -0.362431
N3    N     N_R   0.499460 0.498800 0.142780 -0.111654
N4    N     N_R   0.499440 0.498720 0.857170 -0.106221
O1    O     O_R   0.500000 0.316780 0.614690 -0.599117
O2    O     O_R   0.583850 0.500050 0.614640 -0.590989
O3    O     O_R   0.583840 0.500030 0.385310 -0.630670
O4    O     O_2   0.853583 0.716188 0.417766 -0.555322
O5    O     O_2   0.847992 0.297816 0.590459 -0.548310
O6    O     O_2   0.146247 0.284697 0.581122 -0.530323
O7    O     O_2   0.151865 0.703855 0.410452 -0.519222
O8    O     O_R   0.500000 0.316750 0.385360 -0.632935
O9    O     O_R   0.416160 0.499970 0.614690 -0.642229
O10   O     O_R   0.416150 0.499950 0.385360 -0.631228
O11   O     O_R   0.500000 0.683250 0.614640 -0.611013
O12   O     O_R   0.500000 0.683220 0.385310 -0.599940
Zn1   Zn    Zn3+2 0.500000 0.500020 0.653130 0.984575
Zn2   Zn    Zn3+2 0.500000 0.499980 0.346870 0.970520

loop_
_geom_bond_atom_site_label_1
_geom_bond_atom_site_label_2
_ccdc_geom_bond_type
C40   N1    A    
C39   O4    S    
C9    N2    S    
C32   H2    S    
C3    H7    S    
C32   C33   A    
C48   N2    A    
C35   N4    A    
C42   C43   A    
C13   C28   S    
Br1   C18   S    
O1    Zn1   S    
C30   C36   A    
C37   H19   S    
C25   C26   A    
C12   C41   A    
C16   O11   A    
C5    H8    S    
C3    C9    A    
C35   C36   A    
C34   C48   A    
C4    O10   A    
C31   C32   A    
C39   C43   A    
C2    N2    A    
C38   H4    S    
O3    Zn2   S    
N3    Zn2   S    
C26   H16   S    
C13   C14   A    
C20   C21   A    
C36   N3    A    
C34   C44   A    
C6    C7    A    
C30   H21   S    
N4    Zn1   S    
C22   C29   A    
C18   C24   A    
C10   C11   A    
C23   H20   S    
O8    Zn2   S    
C16   C29   S    
C1    C25   S    
C21   H18   S    
C14   C15   A    
C42   C44   A    
O2    Zn1   S    
C2    C45   A    
C21   C22   A    
C16   O12   A    
O10   Zn2   S    
O9    Zn1   S    
C5    C6    A    
C12   C23   A    
C3    C5    A    
Br3   C31   S    
C20   H17   S    
C40   C41   A    
C26   C27   A    
C14   H11   S    
C44   C45   A    
C1    O8    A    
C30   C31   A    
C12   H1    S    
C48   O6    S    
C37   C38   A    
O12   Zn2   S    
O11   Zn1   S    
C40   O5    S    
C11   C13   A    
C22   C24   A    
C8    H9    S    
C41   C42   A    
C28   O2    A    
C7    H14   S    
C4    C6    S    
C45   C46   A    
C39   N1    A    
C10   C17   A    
C47   H6    S    
C8    C9    A    
C23   C34   A    
C28   O3    A    
C15   H15   S    
C46   H5    S    
C43   C47   A    
C37   N3    A    
Br2   C27   S    
C33   C35   A    
C1    O1    A    
C38   N4    A    
C27   C29   A    
C4    O9    A    
C2    O7    S    
C11   H12   S    
C17   N1    S    
C15   C17   A    
C33   H3    S    
C7    C8    A    
C19   H13   S    
C10   H10   S    
C46   C47   A    
C24   C25   A    
C19   C20   A    
C18   C19   A    
