data_mof_unit_34205.cif
_audit_creation_date              2012-12-11T14:17:42-0500
_audit_creation_method            fapswitch 2.2
_symmetry_space_group_name_H-M    P1
_symmetry_Int_Tables_number       1
_space_group_crystal_system       triclinic
_cell_length_a                    6.942993
_cell_length_b                    13.688707
_cell_length_c                    20.40849
_cell_angle_alpha                 102.205823
_cell_angle_beta                  91.008063
_cell_angle_gamma                 90.354314
_cell_volume                      1895.39773066

loop_
_atom_site_label
_atom_site_type_symbol
_atom_type_description
_atom_site_fract_x
_atom_site_fract_y
_atom_site_fract_z
_atom_type_partial_charge
O1    O     O_R   0.506860 0.599390 0.449240 -0.541694
O2    O     O_R   0.180220 0.594600 0.586780 -0.542912
O3    O     O_R   0.004500 0.400610 0.550760 -0.540237
C1    C     C_R   0.350502 0.618230 0.612673 0.716820
O4    O     O_R   0.177490 0.611290 0.451970 -0.537149
O5    O     O_R   0.001750 0.417420 0.414990 -0.518491
C2    C     C_R   0.345568 0.637573 0.434923 0.734043
O6    O     O_R   0.509610 0.582580 0.585010 -0.554697
O7    O     O_3   0.337420 0.436370 0.488020 -0.351561
V1    V     V_3+5 0.064680 0.511800 0.502220 1.487377
O8    O     O_R   0.671710 0.405400 0.413220 -0.509892
C3    C     C_R   0.837388 0.386618 0.385547 0.772886
O9    O     O_R   0.674440 0.388710 0.548030 -0.547871
C4    C     C_R   0.843727 0.363480 0.565834 0.695004
V2    V     V_3+5 0.564010 0.488200 0.497780 1.501732
O10   O     O_3   0.841140 0.563630 0.511980 -0.387372
C5    C     C_R   0.858579 0.114467 0.614528 -0.163542
H1    H     H_    0.831402 0.165070 0.522414 0.120130
H2    H     H_    0.907692 0.990155 0.697477 0.118124
H3    H     H_    0.862537 0.036585 0.589008 0.116741
C6    C     C_R   0.852434 0.288766 0.607662 -0.064607
C7    C     C_R   0.792298 0.313715 0.929826 -0.004915
C8    C     C_R   0.740593 0.382643 0.891490 -0.156974
C9    C     C_R   0.751283 0.358152 0.822178 -0.166474
C10   C     C_R   0.827665 0.266308 0.788580 0.072419
C11   C     C_R   0.863046 0.192052 0.826361 0.054138
C12   C     C_R   0.852708 0.243244 0.717575 0.032549
C13   C     C_R   0.866438 0.141453 0.684691 0.131365
C14   C     C_R   0.890580 0.067794 0.722216 -0.198122
C15   C     C_R   0.897928 0.093289 0.791960 -0.186781
C16   C     C_R   0.870247 0.317540 0.678238 -0.077271
C17   C     C_R   0.842739 0.187516 0.576548 -0.183183
C18   C     C_R   0.850591 0.216969 0.897402 -0.123247
H4    H     H_    0.688645 0.410171 0.795373 0.132610
H5    H     H_    0.684024 0.454818 0.915330 0.124694
H6    H     H_    0.922052 0.033826 0.818575 0.115250
C19   C     C_2   0.969348 0.319829 0.271163 0.232906
C20   C     C_2   0.829666 0.321109 0.317435 0.037333
C21   C     C_2   0.960789 0.258485 0.201557 -0.097212
C22   C     C_2   0.874768 0.168635 0.183142 -0.267827
H7    H     H_    0.036117 0.287915 0.163549 0.148713
H8    H     H_    0.812782 0.130829 0.219279 0.168015
C23   C     C_2   0.217634 0.813285 0.773542 -0.152398
C24   C     C_2   0.361105 0.817376 0.819219 -0.315548
H9    H     H_    0.092166 0.859850 0.786579 0.126424
H10   H     H_    0.487268 0.771352 0.807253 0.127259
C25   C     C_2   0.213705 0.743414 0.706406 -0.107397
C26   C     C_2   0.365719 0.690383 0.677986 -0.299881
H11   H     H_    0.076102 0.735437 0.679580 0.134347
H12   H     H_    0.506852 0.701245 0.701719 0.118612
C27   C     C_R   0.329350 0.887696 0.387281 -0.146003
H13   H     H_    0.318761 0.837144 0.479759 0.102882
H14   H     H_    0.326616 0.012798 0.304329 0.160430
H15   H     H_    0.316016 0.965449 0.412275 0.121324
C28   C     C_R   0.351633 0.714557 0.394994 -0.040800
C29   C     C_R   0.368482 0.684979 0.071159 -0.165684
C30   C     C_R   0.368411 0.609054 0.106793 -0.118480
C31   C     C_R   0.364436 0.631632 0.176618 -0.165864
C32   C     C_R   0.359593 0.732042 0.212920 0.079613
C33   C     C_R   0.355254 0.809535 0.175878 0.060982
C34   C     C_R   0.356316 0.758117 0.284566 0.065160
C35   C     C_R   0.341069 0.860363 0.317167 0.131089
C36   C     C_R   0.336729 0.934685 0.279722 -0.185542
C37   C     C_R   0.345293 0.909942 0.210303 -0.192089
C38   C     C_R   0.366746 0.686392 0.325257 -0.195325
C39   C     C_R   0.331776 0.815041 0.425833 -0.186044
C40   C     C_R   0.361318 0.784924 0.104893 -0.073676
H16   H     H_    0.385278 0.608083 0.304463 0.148229
H17   H     H_    0.373662 0.665747 0.016908 0.097235
H18   H     H_    0.363209 0.568617 0.200468 0.142150
H19   H     H_    0.371739 0.531865 0.080037 0.129418
H20   H     H_    0.342021 0.970560 0.183766 0.139078
O11   O     O_R   0.203230 0.917310 0.915020 -0.541446
O12   O     O_R   0.535500 0.888690 0.048040 -0.540869
O13   O     O_R   0.711080 0.082610 0.085000 -0.530680
C41   C     C_R   0.367486 0.862294 0.064983 0.688025
O14   O     O_R   0.532630 0.905370 0.913230 -0.546111
O15   O     O_R   0.708190 0.099410 0.949230 -0.543772
C42   C     C_R   0.363581 0.885555 0.886008 0.739334
O16   O     O_R   0.206120 0.900510 0.050790 -0.539899
O17   O     O_3   0.375360 0.063570 0.011990 -0.375403
V3    V     V_3+5 0.648170 0.988200 0.997780 1.426346
O18   O     O_R   0.038240 0.111390 0.951940 -0.546242
C43   C     C_R   0.867977 0.138976 0.936403 0.701287
O19   O     O_R   0.041120 0.094710 0.086750 -0.542136
C44   C     C_R   0.874974 0.113205 0.113670 0.754214
V4    V     V_3+5 0.148810 0.011930 0.002180 1.420131
O20   O     O_3   0.871750 0.936430 0.988010 -0.375667
Br1   Br    Br    0.583039 0.253710 0.294815 -0.561067
C45   C     C_R   0.941040 0.419739 0.709969 0.075899
C46   C     C_R   0.112901 0.430176 0.748554 -0.104508
C47   C     C_R   0.159464 0.520905 0.791785 -0.122463
C48   C     C_R   0.035545 0.601797 0.796551 -0.071507
C49   C     C_R   0.872180 0.594449 0.754761 -0.133312
C50   C     C_R   0.825511 0.504004 0.710860 -0.146992
H21   H     H_    0.204698 0.366327 0.748090 0.110983
H22   H     H_    0.288005 0.527428 0.823268 0.101447
H23   H     H_    0.066238 0.670302 0.832673 0.117332
H24   H     H_    0.778798 0.658071 0.758197 0.093276
H25   H     H_    0.691581 0.497451 0.682274 0.110434
C51   C     C_R   0.767899 0.343402 0.003224 0.061311
C52   C     C_R   0.897674 0.411698 0.042350 -0.145608
C53   C     C_R   0.864605 0.447797 0.110566 -0.131581
C54   C     C_R   0.701930 0.416035 0.140049 -0.082022
C55   C     C_R   0.572586 0.347746 0.101469 -0.117900
C56   C     C_R   0.604386 0.312103 0.033129 -0.133294
H26   H     H_    0.022601 0.437978 0.019804 0.113790
H27   H     H_    0.964742 0.500599 0.140538 0.143705
H28   H     H_    0.676420 0.444107 0.192830 0.150684
H29   H     H_    0.446271 0.323565 0.124312 0.152945
H30   H     H_    0.499676 0.261956 0.003283 0.132883
Br2   Br    Br    0.179561 0.414536 0.286366 -0.591864

loop_
_geom_bond_atom_site_label_1
_geom_bond_atom_site_label_2
_ccdc_geom_bond_type
O18   V4    S    
V4    O20   S    
C48   C49   A    
C2    C28   S    
C1    O6    A    
O17   V3    S    
C45   C46   A    
C45   C50   A    
C25   H11   S    
O19   C44   A    
C6    C16   A    
C20   Br1   S    
C14   C15   A    
C7    C51   S    
O12   C41   A    
O14   V3    S    
C4    C6    S    
C13   C14   A    
C55   H29   S    
O16   V4    S    
O5    C3    A    
C54   H28   S    
V2    O10   S    
C5    H3    S    
C29   C30   A    
C22   C44   S    
O11   V4    S    
C19   Br2   S    
O13   C44   A    
C46   H21   S    
O8    V2    S    
C49   C50   A    
O18   C43   A    
C33   C40   A    
C8    C9    A    
C53   H27   S    
O1    V2    S    
O7    V1    S    
C38   H16   S    
C26   H12   S    
C32   C33   A    
O9    C4    A    
C52   C53   A    
C27   C35   A    
O12   V3    S    
C54   C55   A    
C28   C38   A    
C24   H10   S    
C47   H22   S    
C56   H30   S    
O14   C42   A    
C6    C17   A    
C32   C34   A    
O19   V4    S    
C12   C16   A    
C51   C52   A    
C9    C10   A    
C21   H7    S    
C21   C22   D    
O4    C2    A    
C50   H25   S    
C31   H18   S    
C10   C11   A    
C9    H4    S    
C27   C39   A    
O2    C1    A    
C23   C24   D    
C19   C20   D    
O15   C43   A    
O15   V3    S    
C11   C18   A    
C25   C26   D    
C16   C45   S    
C35   C36   A    
O11   C42   A    
C52   H26   S    
C30   H19   S    
C23   H9    S    
O17   V4    S    
O3    C4    A    
C11   C15   A    
O6    V2    S    
C8    H5    S    
O9    V2    S    
H1    C17   S    
O2    V1    S    
C46   C47   A    
C28   C39   A    
H13   C39   S    
C1    C26   S    
C51   C56   A    
C7    C18   A    
O1    C2    A    
C5    C13   A    
C24   C42   S    
C41   O16   A    
O5    V1    S    
O8    C3    A    
O13   V3    S    
C10   C12   A    
C29   C40   A    
C55   C56   A    
C15   H6    S    
C33   C37   A    
C27   H15   S    
C31   C32   A    
O4    V1    S    
C19   C21   S    
O3    V1    S    
V1    O10   S    
H14   C36   S    
C30   C31   A    
C49   H24   S    
V3    O20   S    
C22   H8    S    
C47   C48   A    
C37   H20   S    
C3    C20   S    
C34   C35   A    
C18   C43   S    
C36   C37   A    
C34   C38   A    
C29   H17   S    
C53   C54   A    
C5    C17   A    
C7    C8    A    
C40   C41   S    
C23   C25   S    
C48   H23   S    
O7    V2    S    
C12   C13   A    
H2    C14   S    
