data_mof_unit_7587.cif
_audit_creation_date              2012-12-11T14:30:22-0500
_audit_creation_method            fapswitch 2.2
_symmetry_space_group_name_H-M    P1
_symmetry_Int_Tables_number       1
_space_group_crystal_system       triclinic
_cell_length_a                    17.357008
_cell_length_b                    24.458609
_cell_length_c                    14.859561
_cell_angle_alpha                 89.92867
_cell_angle_beta                  125.164418
_cell_angle_gamma                 90.293708
_cell_volume                      5156.97646455

loop_
_atom_site_label
_atom_site_type_symbol
_atom_type_description
_atom_site_fract_x
_atom_site_fract_y
_atom_site_fract_z
_atom_type_partial_charge
C1    C     C_R   0.835149 0.646975 0.907075 -0.253174
C2    C     C_R   0.191732 0.625092 0.094328 -0.257057
C3    C     C_R   0.335617 0.147207 0.907187 -0.238699
C4    C     C_R   0.692190 0.124186 0.093794 -0.260105
C5    C     C_R   0.872484 0.321862 0.999593 0.143860
C6    C     C_R   0.118054 0.319306 0.999756 0.098074
C7    C     C_R   0.372978 0.821688 0.999823 0.145402
C8    C     C_R   0.617873 0.819243 0.999856 0.098060
C9    C     C_R   0.947189 0.500210 0.270043 0.104149
C10   C     C_R   0.946406 0.501078 0.638357 0.084620
C11   C     C_R   0.447044 0.000268 0.269830 0.104099
C12   C     C_R   0.450976 0.000940 0.640817 0.096213
C13   C     C_R   0.675029 0.500548 0.712352 0.031777
C14   C     C_R   0.310859 0.499499 0.353930 0.029853
C15   C     C_R   0.175033 0.000552 0.712502 0.033952
C16   C     C_R   0.810785 0.999500 0.354085 0.029987
C17   C     C_3   0.497082 0.466870 0.620005 -0.152785
C18   C     C_3   0.465125 0.447678 0.504119 -0.165803
C19   C     C_3   0.997038 0.966900 0.620246 -0.152136
C20   C     C_3   0.965040 0.947671 0.504362 -0.165025
C21   C     C_3   0.432425 0.517764 0.569256 -0.141605
C22   C     C_3   0.544884 0.480893 0.513385 -0.140367
C23   C     C_3   0.932398 0.017801 0.569456 -0.141778
C24   C     C_3   0.044809 0.980850 0.513579 -0.140626
C25   C     C_3   0.403040 0.498519 0.455635 0.184581
C26   C     C_3   0.575470 0.500116 0.627614 0.181790
C27   C     C_3   0.902973 0.998519 0.455836 0.184337
C28   C     C_3   0.075439 0.000113 0.627805 0.180633
C29   C     C_3   0.481938 0.531578 0.464205 -0.151201
C30   C     C_3   0.513155 0.550918 0.579222 -0.165945
C31   C     C_3   0.981887 0.031543 0.464364 -0.151021
C32   C     C_3   0.013140 0.050921 0.579372 -0.165425
C33   C     C_2   0.265914 0.679067 0.920967 -0.323486
C34   C     C_2   0.769481 0.698697 0.073936 -0.294079
C35   C     C_2   0.762659 0.180208 0.918329 -0.312290
C36   C     C_2   0.269937 0.198868 0.073861 -0.293781
C37   C     C_2   0.269911 0.663540 0.009960 -0.202868
C38   C     C_2   0.793284 0.710500 0.004466 -0.254688
C39   C     C_2   0.768555 0.163679 0.007991 -0.203807
C40   C     C_2   0.293965 0.210801 0.004630 -0.258165
C41   C     C_2   0.815418 0.229403 0.922667 0.620063
C42   C     C_2   0.212260 0.237005 0.087674 0.593676
C43   C     C_2   0.317633 0.728681 0.924515 0.622569
C44   C     C_2   0.712045 0.736949 0.087884 0.593597
C45   C     C_R   0.940446 0.350982 0.091523 0.016967
C46   C     C_R   0.054897 0.350048 0.908111 0.049223
C47   C     C_R   0.440700 0.850949 0.091635 0.017045
C48   C     C_R   0.554775 0.849992 0.908172 0.048842
C49   C     C_2   0.837448 0.267904 0.999031 -0.338121
C50   C     C_2   0.143505 0.262999 0.997188 -0.257232
C51   C     C_2   0.338469 0.767603 0.999760 -0.342182
C52   C     C_2   0.643092 0.762862 0.997407 -0.256237
C53   C     C_2   0.882692 0.456353 0.360419 -0.105483
C54   C     C_2   0.881169 0.459793 0.457913 -0.114125
C55   C     C_2   0.383339 0.956497 0.360997 -0.105390
C56   C     C_2   0.383671 0.960137 0.459655 -0.115612
C57   C     C_2   0.892572 0.501228 0.316174 -0.191603
C58   C     C_2   0.919980 0.502771 0.526469 -0.187850
C59   C     C_2   0.392919 0.001357 0.316539 -0.193283
C60   C     C_2   0.426087 0.002353 0.529630 -0.191065
C61   C     C_R   0.978885 0.545991 0.246315 -0.139835
C62   C     C_R   0.955440 0.546309 0.698371 -0.054050
C63   C     C_R   0.478815 0.046021 0.246187 -0.140135
C64   C     C_R   0.458907 0.046296 0.700086 -0.084489
C65   C     C_R   0.731284 0.454967 0.743908 -0.146755
C66   C     C_R   0.260120 0.454472 0.294484 -0.132501
C67   C     C_R   0.231297 0.954966 0.744039 -0.145897
C68   C     C_R   0.760075 0.954476 0.294574 -0.132502
C69   C     C_R   0.981099 0.455122 0.247750 -0.110395
C70   C     C_R   0.957041 0.455686 0.699266 -0.124036
C71   C     C_R   0.480963 0.955151 0.247600 -0.109949
C72   C     C_R   0.459352 0.955578 0.700611 -0.122962
C73   C     C_R   0.730133 0.546621 0.741340 -0.114666
C74   C     C_R   0.260900 0.545841 0.300308 -0.136200
C75   C     C_R   0.230146 0.046629 0.741448 -0.118792
C76   C     C_R   0.760845 0.045839 0.300389 -0.136712
C77   C     C_R   0.846096 0.352751 0.908968 -0.121607
C78   C     C_R   0.149497 0.351749 0.090742 -0.129542
C79   C     C_R   0.346412 0.852589 0.909097 -0.122345
C80   C     C_R   0.649406 0.851732 0.090790 -0.130069
C81   C     C_R   0.932097 0.648615 0.089739 0.512123
C82   C     C_R   0.098800 0.628019 0.911375 0.562011
C83   C     C_R   0.432587 0.148786 0.089798 0.514537
C84   C     C_R   0.599025 0.126850 0.910696 0.551586
C85   C     C_R   0.855923 0.674333 0.999673 0.015660
C86   C     C_R   0.189964 0.638929 0.003180 0.014096
C87   C     C_R   0.356647 0.174677 0.999795 0.010290
C88   C     C_R   0.690099 0.137692 0.002224 0.021755
H1    H     H_    0.785431 0.659543 0.822758 0.133457
H2    H     H_    0.250867 0.629577 0.179127 0.138313
H3    H     H_    0.285525 0.159662 0.822896 0.138482
H4    H     H_    0.751461 0.128873 0.178475 0.138480
H5    H     H_    0.506371 0.440669 0.686614 0.112837
H6    H     H_    0.444174 0.405342 0.471696 0.104161
H7    H     H_    0.006311 0.940716 0.686868 0.114752
H8    H     H_    0.944068 0.905327 0.471996 0.104006
H9    H     H_    0.473730 0.557886 0.398250 0.115978
H10   H     H_    0.534035 0.593219 0.611860 0.111624
H11   H     H_    0.973692 0.057826 0.398387 0.115738
H12   H     H_    0.034046 0.093228 0.611962 0.111766
H13   H     H_    0.214091 0.660708 0.842117 0.188948
H14   H     H_    0.798567 0.663089 0.126924 0.157193
H15   H     H_    0.709569 0.162632 0.839125 0.191071
H16   H     H_    0.298888 0.163182 0.126633 0.157026
H17   H     H_    0.328988 0.675999 0.091544 0.143305
H18   H     H_    0.766159 0.745837 0.950533 0.140476
H19   H     H_    0.828316 0.175762 0.089450 0.141765
H20   H     H_    0.266990 0.246214 0.950898 0.141182
H21   H     H_    0.821469 0.262821 0.059151 0.108633
H22   H     H_    0.121001 0.248062 0.916527 0.111580
H23   H     H_    0.322353 0.762660 0.059769 0.108533
H24   H     H_    0.620300 0.747786 0.916728 0.111338
H25   H     H_    0.893888 0.415979 0.340002 0.119436
H26   H     H_    0.862803 0.422941 0.482469 0.122824
H27   H     H_    0.393481 0.916061 0.339731 0.119877
H28   H     H_    0.362666 0.924002 0.483097 0.123333
H29   H     H_    0.874616 0.541261 0.330276 0.133227
H30   H     H_    0.941102 0.539513 0.505052 0.137497
H31   H     H_    0.375951 0.041413 0.331905 0.134717
H32   H     H_    0.450010 0.038222 0.509232 0.138532
H33   H     H_    0.964867 0.587342 0.256561 0.162485
H34   H     H_    0.933361 0.586978 0.665128 0.134991
H35   H     H_    0.464861 0.087378 0.256481 0.162563
H36   H     H_    0.438967 0.087029 0.667101 0.138195
H37   H     H_    0.708638 0.412818 0.725005 0.094578
H38   H     H_    0.274824 0.412075 0.319201 0.089286
H39   H     H_    0.208681 0.912804 0.725276 0.094482
H40   H     H_    0.774761 0.912079 0.319293 0.089332
H41   H     H_    0.969006 0.413072 0.257076 0.099806
H42   H     H_    0.941999 0.414004 0.670677 0.108220
H43   H     H_    0.468894 0.913107 0.257014 0.099724
H44   H     H_    0.444688 0.913895 0.671998 0.107374
H45   H     H_    0.706798 0.588266 0.718940 0.092529
H46   H     H_    0.276886 0.587182 0.332107 0.097876
H47   H     H_    0.206844 0.088288 0.719147 0.092746
H48   H     H_    0.776819 0.087195 0.332119 0.098239
H49   H     H_    0.802574 0.339724 0.823974 0.119585
H50   H     H_    0.191674 0.339981 0.176191 0.152481
H51   H     H_    0.303018 0.839470 0.824152 0.118356
H52   H     H_    0.691476 0.839988 0.176245 0.152748
H53   H     H_    0.383196 0.532760 0.588549 0.116264
H54   H     H_    0.592959 0.465854 0.492316 0.117007
H55   H     H_    0.883197 0.032832 0.588765 0.116391
H56   H     H_    0.092853 0.965778 0.492490 0.116932
N1    N     N_R   0.892320 0.603520 0.941090 -0.070049
N2    N     N_R   0.107680 0.603520 0.058910 -0.070835
N3    N     N_R   0.392320 0.103520 0.941090 -0.071094
N4    N     N_R   0.607680 0.103520 0.058910 -0.069703
N5    N     N_R   0.953790 0.399020 0.058440 -0.064450
N6    N     N_R   0.046210 0.399020 0.941560 -0.063413
N7    N     N_R   0.453790 0.899020 0.058440 -0.064513
N8    N     N_R   0.546210 0.899020 0.941560 -0.063564
N9    N     N_R   0.026760 0.529450 0.205590 -0.037330
N10   N     N_R   0.973240 0.529450 0.794410 -0.049627
N11   N     N_R   0.526760 0.029450 0.205590 -0.037175
N12   N     N_R   0.473240 0.029450 0.794410 -0.052539
N13   N     N_R   0.819350 0.473090 0.793940 -0.038881
N14   N     N_R   0.180650 0.473090 0.206060 -0.038930
N15   N     N_R   0.319350 0.973090 0.793940 -0.038206
N16   N     N_R   0.680650 0.973090 0.206060 -0.039084
N17   N     N_R   0.027860 0.473090 0.206590 -0.047110
N18   N     N_R   0.972140 0.473090 0.793410 -0.051009
N19   N     N_R   0.527860 0.973090 0.206590 -0.047113
N20   N     N_R   0.472140 0.973090 0.793410 -0.049973
N21   N     N_R   0.818250 0.529450 0.792940 -0.039748
N22   N     N_R   0.181750 0.529450 0.207060 -0.030416
N23   N     N_R   0.318250 0.029450 0.792940 -0.040715
N24   N     N_R   0.681750 0.029450 0.207060 -0.030568
N25   N     N_R   0.896320 0.399020 0.944720 -0.057580
N26   N     N_R   0.103680 0.399020 0.055280 -0.061922
N27   N     N_R   0.396320 0.899020 0.944720 -0.057427
N28   N     N_R   0.603680 0.899020 0.055280 -0.062024
N29   N     N_R   0.949790 0.603520 0.054810 -0.087420
N30   N     N_R   0.050210 0.603520 0.945190 -0.106576
N31   N     N_R   0.449790 0.103520 0.054810 -0.087274
N32   N     N_R   0.550210 0.103520 0.945190 -0.106393
Ni1   Ni    Ni4+2 0.934100 0.565890 0.869590 0.197945
Ni2   Ni    Ni4+2 0.065900 0.565890 0.130410 0.230599
Ni3   Ni    Ni4+2 0.434100 0.065890 0.869590 0.196997
Ni4   Ni    Ni4+2 0.565900 0.065890 0.130410 0.231049
Ni5   Ni    Ni4+2 0.068420 0.436630 0.132700 0.219259
Ni6   Ni    Ni4+2 0.931580 0.436630 0.867300 0.213436
Ni7   Ni    Ni4+2 0.568420 0.936630 0.132700 0.218847
Ni8   Ni    Ni4+2 0.431580 0.936630 0.867300 0.212881
O1    O     O_3   0.842902 0.237132 0.851807 -0.655006
C89   C     C_3   0.771724 0.222417 0.741629 0.161783
H57   H     H_    0.772892 0.253279 0.687521 0.129753
H58   H     H_    0.699001 0.224238 0.720948 0.071580
C90   C     C_3   0.793099 0.166525 0.714419 -0.263397
H59   H     H_    0.861219 0.168883 0.723444 0.205854
H60   H     H_    0.800020 0.135079 0.772554 0.201210
C91   C     C_3   0.715638 0.148877 0.597149 -1.021927
H61   H     H_    0.647377 0.144736 0.587261 0.280643
H62   H     H_    0.733782 0.108739 0.579306 0.271154
H63   H     H_    0.708428 0.179329 0.537328 0.263888
O2    O     O_3   0.224206 0.245223 0.187985 -0.667983
C92   C     C_3   0.319040 0.240216 0.280654 0.165877
H64   H     H_    0.334477 0.275355 0.336115 0.110288
H65   H     H_    0.372127 0.243152 0.261285 0.101963
C93   C     C_3   0.331200 0.187535 0.343454 -0.247868
H66   H     H_    0.285454 0.189220 0.373337 0.204656
H67   H     H_    0.309165 0.151598 0.288080 0.186285
C94   C     C_3   0.433324 0.179954 0.441709 -1.062133
H68   H     H_    0.479644 0.175484 0.413104 0.282781
H69   H     H_    0.439112 0.142469 0.487402 0.268645
H70   H     H_    0.457422 0.215474 0.498554 0.268775
O3    O     O_3   0.344824 0.736430 0.853419 -0.653884
C95   C     C_3   0.272823 0.722370 0.743128 0.166033
H71   H     H_    0.273186 0.753809 0.689369 0.128494
H72   H     H_    0.200442 0.723764 0.723576 0.063085
C96   C     C_3   0.293751 0.666943 0.713795 -0.262215
H73   H     H_    0.361057 0.669837 0.721022 0.205034
H74   H     H_    0.302071 0.635036 0.771939 0.201966
C97   C     C_3   0.215045 0.649674 0.596789 -1.022319
H75   H     H_    0.147675 0.644859 0.588790 0.280680
H76   H     H_    0.232973 0.609947 0.577247 0.271482
H77   H     H_    0.206215 0.680687 0.536968 0.263824
O4    O     O_3   0.724579 0.745383 0.188453 -0.667769
C98   C     C_3   0.819776 0.741009 0.280574 0.163512
H78   H     H_    0.835105 0.776413 0.335433 0.108996
H79   H     H_    0.872290 0.743987 0.260315 0.102933
C99   C     C_3   0.833313 0.688624 0.344754 -0.243534
H80   H     H_    0.788433 0.690427 0.375796 0.205033
H81   H     H_    0.811085 0.652419 0.289993 0.185544
C100  C     C_3   0.935947 0.681563 0.442063 -1.061311
H82   H     H_    0.981305 0.676571 0.412265 0.283190
H83   H     H_    0.942692 0.644525 0.489342 0.270706
H84   H     H_    0.960467 0.717562 0.497788 0.264466
C101  C     C_1   0.008822 0.326608 0.196726 0.033157
N33   N     N_1   0.063883 0.307004 0.281140 -0.086901
C102  C     C_1   0.986914 0.327663 0.800492 0.031187
N34   N     N_1   0.932334 0.309240 0.714347 -0.108866
C103  C     C_1   0.509207 0.826709 0.196940 0.033481
N35   N     N_1   0.564373 0.807214 0.281435 -0.086950
C104  C     C_1   0.486667 0.827586 0.800613 0.030447
N36   N     N_1   0.431980 0.809167 0.714501 -0.109063
O5    O     O_3   0.991152 0.668546 0.196267 -0.696903
C105  C     C_3   0.020629 0.722405 0.195785 0.184882
H85   H     H_    0.961763 0.751555 0.166409 0.112381
H86   H     H_    0.046738 0.725473 0.142645 0.093104
C106  C     C_3   0.100919 0.738213 0.313272 -0.267116
H87   H     H_    0.075979 0.735365 0.367255 0.197528
H88   H     H_    0.160341 0.709292 0.344201 0.201958
C107  C     C_3   0.135910 0.796307 0.318836 -1.047791
H89   H     H_    0.162751 0.799974 0.266904 0.270894
H90   H     H_    0.194107 0.806364 0.405226 0.271498
H91   H     H_    0.077985 0.826032 0.290144 0.268205
O6    O     O_3   0.061394 0.641999 0.803801 -0.697166
C108  C     C_3   0.035789 0.697843 0.786835 0.125028
H92   H     H_    0.036628 0.712188 0.716430 0.137101
H93   H     H_    0.086890 0.724358 0.858339 0.095674
C109  C     C_3   0.936145 0.705167 0.757513 -0.303854
H94   H     H_    0.886090 0.678178 0.687082 0.201297
H95   H     H_    0.935358 0.693609 0.829190 0.191745
C110  C     C_3   0.903683 0.764284 0.726796 -1.009356
H96   H     H_    0.952142 0.792013 0.796589 0.264184
H97   H     H_    0.831801 0.768334 0.707127 0.269721
H98   H     H_    0.901639 0.776591 0.653449 0.266194
O7    O     O_3   0.491647 0.168466 0.196544 -0.696951
C111  C     C_3   0.520469 0.222598 0.196797 0.184510
H99   H     H_    0.461356 0.251446 0.168169 0.112542
H100  H     H_    0.546284 0.226378 0.143456 0.091602
C112  C     C_3   0.600813 0.238118 0.314453 -0.266119
H101  H     H_    0.576223 0.234390 0.368685 0.197934
H102  H     H_    0.660602 0.209583 0.344564 0.201504
C113  C     C_3   0.634911 0.296556 0.320958 -1.048845
H103  H     H_    0.661371 0.301097 0.268772 0.270846
H104  H     H_    0.693189 0.306381 0.407441 0.271600
H105  H     H_    0.576619 0.325889 0.293129 0.268165
O8    O     O_3   0.559141 0.147026 0.806078 -0.701266
C114  C     C_3   0.516162 0.198025 0.795193 0.165920
H106  H     H_    0.537580 0.226975 0.755559 0.118301
H107  H     H_    0.538625 0.217311 0.875177 0.085541
C115  C     C_3   0.408829 0.191759 0.720714 -0.302864
H108  H     H_    0.386085 0.180986 0.636050 0.200774
H109  H     H_    0.386926 0.158211 0.751949 0.197494
C116  C     C_3   0.359910 0.244382 0.716160 -1.018822
H110  H     H_    0.379097 0.255040 0.799410 0.265748
H111  H     H_    0.282339 0.238592 0.660283 0.269525
H112  H     H_    0.380426 0.278514 0.684493 0.267874

loop_
_geom_bond_atom_site_label_1
_geom_bond_atom_site_label_2
_ccdc_geom_bond_type
C112  C113  S    
C79   H51   S    
C55   C56   S    
C110  H97   S    
C3    N3    A    
C22   C29   S    
C55   C59   D    
C114  C115  S    
C115  C116  S    
N21   Ni1   S    
C46   C102  S    
N23   Ni3   S    
C19   C20   S    
C70   H42   S    
C94   H68   S    
C5    C49   S    
C15   C28   S    
O1    C89   S    
C112  H101  S    
N6    Ni6   S    
C13   C65   A    
C53   C54   S    
N11   Ni4   S    
C92   C93   S    
C39   H19   S    
C94   H69   S    
C105  C106  S    
N14   N22   A    
C108  H92   S    
N4    N32   A    
C11   C71   A    
C71   N19   A    
C9    C61   A    
C17   C26   S    
C14   C74   A    
C40   C87   S    
C109  H95   S    
C10   C58   S    
C80   H52   S    
C77   H49   S    
N18   Ni6   S    
C83   N31   A    
C95   C96   S    
C12   C64   A    
N12   Ni3   S    
C97   H76   S    
O2    C92   S    
C51   H23   S    
C52   H24   S    
C114  H106  S    
C4    N4    A    
C54   H26   S    
C21   C30   S    
C50   H22   S    
C100  H84   S    
N7    N27   A    
C107  H89   S    
N2    Ni2   S    
C81   O5    S    
C2    H2    S    
C106  H87   S    
C2    C86   A    
C79   N27   A    
C92   H65   S    
C58   H30   S    
C105  H85   S    
C36   C42   S    
N32   Ni3   S    
C41   O1    S    
C20   C24   S    
N15   N23   A    
C93   H66   S    
C17   C18   S    
C59   H31   S    
C104  N36   T    
C83   O7    S    
N22   Ni2   S    
C31   H11   S    
N15   Ni8   S    
N8    Ni8   S    
C115  H108  S    
C103  N35   T    
C8    C52   S    
N16   Ni7   S    
C9    C57   S    
C69   H41   S    
C40   H20   S    
C4    H4    S    
C44   C52   D    
C16   C27   S    
N16   N24   A    
C20   H8    S    
C110  H98   S    
C43   C51   D    
N4    Ni4   S    
C18   C22   S    
O5    C105  S    
C25   C29   S    
C66   N14   A    
C23   H55   S    
C10   C62   A    
C18   C25   S    
C45   C101  S    
C39   C88   S    
C111  C112  S    
C11   C59   S    
C78   H50   S    
C41   C49   D    
C34   C38   D    
C53   H25   S    
C72   H44   S    
C7    C51   S    
C1    C85   A    
C94   H70   S    
C105  H86   S    
C108  H93   S    
C38   C85   S    
C3    C87   A    
O3    C95   S    
C33   C43   S    
C91   H63   S    
C82   N30   A    
C37   C86   S    
C28   C32   S    
C32   H12   S    
C44   O4    S    
C14   C66   A    
C45   N5    A    
C111  H100  S    
N13   N21   A    
C98   H78   S    
C53   C57   D    
C97   H75   S    
C95   H71   S    
C1    N1    A    
C56   H28   S    
C99   C100  S    
N11   N19   A    
N24   Ni4   S    
C43   O3    S    
N5    Ni5   S    
C33   C37   D    
C62   N10   A    
N9    N17   A    
C106  H88   S    
C81   N29   A    
C38   H18   S    
C90   C91   S    
C35   C39   D    
C8    C48   A    
C78   N26   A    
C37   H17   S    
C101  N33   T    
N20   Ni8   S    
C67   H39   S    
C98   H79   S    
N27   Ni8   S    
C63   H35   S    
C31   C32   S    
C36   C40   D    
C29   C30   S    
C3    H3    S    
C15   C67   A    
C22   H54   S    
C100  H82   S    
C72   N20   A    
C34   C44   S    
C34   H14   S    
C6    C50   S    
C42   O2    S    
C19   C28   S    
N30   Ni1   S    
C113  H104  S    
C29   H9    S    
C42   C50   D    
C109  C110  S    
C16   C68   A    
C10   C70   A    
C73   N21   A    
C46   N6    A    
N1    N29   A    
C26   C30   S    
C23   C27   S    
C116  H111  S    
C27   C31   S    
C68   H40   S    
C18   H6    S    
N5    N25   A    
C13   C26   S    
N10   Ni1   S    
C17   H5    S    
N13   Ni6   S    
C80   N28   A    
C57   H29   S    
C5    C77   A    
O7    C111  S    
C114  H107  S    
C62   H34   S    
C19   H7    S    
O6    C108  S    
C19   C23   S    
C7    C79   A    
C15   C75   A    
C54   C58   D    
C75   H47   S    
C90   H59   S    
C112  H102  S    
C77   N25   A    
C21   C25   S    
N9    Ni2   S    
C99   H81   S    
C108  C109  S    
C1    H1    S    
C6    C46   A    
C96   H74   S    
C16   C76   A    
N10   N18   A    
C24   C28   S    
C61   H33   S    
C73   H45   S    
C111  H99   S    
C113  H105  S    
C61   N9    A    
C83   C87   A    
C74   H46   S    
C67   N15   A    
N7    Ni7   S    
N31   Ni4   S    
C4    C88   A    
C20   C27   S    
C82   O6    S    
C2    N2    A    
C65   N13   A    
C7    C47   A    
C64   H36   S    
C30   H10   S    
C11   C63   A    
C69   N17   A    
C107  H91   S    
C84   O8    S    
C36   H16   S    
C106  C107  S    
C91   H61   S    
C9    C69   A    
C33   H13   S    
C48   N8    A    
C70   N18   A    
C89   H57   S    
C66   H38   S    
C21   H53   S    
C35   H15   S    
N26   Ni5   S    
C95   H72   S    
C82   C86   A    
C14   C25   S    
C23   C32   S    
C98   C99   S    
C55   H27   S    
N28   Ni7   S    
C84   N32   A    
O4    C98   S    
N6    N26   A    
C84   C88   A    
C5    C45   A    
N29   Ni2   S    
C89   C90   S    
C93   C94   S    
N8    N28   A    
N2    N30   A    
C100  H83   S    
C68   N16   A    
C107  H90   S    
C64   N12   A    
C76   N24   A    
N3    N31   A    
C97   H77   S    
N19   Ni7   S    
C12   C72   A    
C92   H64   S    
C35   C41   S    
N14   Ni5   S    
C17   C21   S    
N25   Ni6   S    
C24   C31   S    
C48   C104  S    
C6    C78   A    
C113  H103  S    
C47   N7    A    
C60   H32   S    
C63   N11   A    
C96   H73   S    
C12   C60   S    
N3    Ni3   S    
C74   N22   A    
C56   C60   D    
N12   N20   A    
C71   H43   S    
C93   H67   S    
C22   C26   S    
C116  H112  S    
N1    Ni1   S    
C102  N34   T    
C8    C80   A    
C24   H56   S    
O8    C114  S    
C49   H21   S    
C75   N23   A    
C76   H48   S    
C13   C73   A    
C90   H60   S    
C96   C97   S    
C116  H110  S    
C89   H58   S    
C99   H80   S    
N17   Ni5   S    
C81   C85   A    
C110  H96   S    
C65   H37   S    
C109  H94   S    
C47   C103  S    
C115  H109  S    
C91   H62   S    
