data_mof_unit_29108.cif
_audit_creation_date              2012-12-10T20:42:40-0500
_audit_creation_method            fapswitch 2.2
_symmetry_space_group_name_H-M    P1
_symmetry_Int_Tables_number       1
_space_group_crystal_system       triclinic
_cell_length_a                    8.903354
_cell_length_b                    10.672502
_cell_length_c                    9.892146
_cell_angle_alpha                 89.432149
_cell_angle_beta                  90.104664
_cell_angle_gamma                 90.012724
_cell_volume                      939.914480494

loop_
_atom_site_label
_atom_site_type_symbol
_atom_type_description
_atom_site_fract_x
_atom_site_fract_y
_atom_site_fract_z
_atom_type_partial_charge
C1    C     C_R   0.499707 0.260501 0.500573 0.882601
C2    C     C_R   0.406303 0.938205 0.402525 -0.015072
C3    C     C_R   0.498324 0.871496 0.494628 -0.137512
C4    C     C_R   0.602970 0.934167 0.573498 0.027799
C5    C     C_3   0.643700 0.920348 0.719606 -0.245003
C6    C     C_3   0.643808 0.063634 0.724178 -0.128781
C7    C     C_R   0.369836 0.480408 0.071050 0.194853
C8    C     C_R   0.625420 0.530897 0.071668 -0.114507
C9    C     C_R   0.625461 0.530830 0.928006 -0.126046
C10   C     C_R   0.370033 0.480853 0.928637 0.211904
C11   C     C_3   0.271435 0.368360 0.922081 -0.543063
C12   C     C_R   0.218796 0.500209 0.499943 0.925437
C13   C     C_3   0.272662 0.366203 0.076054 -0.261675
C14   C     C_R   0.497217 0.739473 0.499075 0.883370
C15   C     C_R   0.781209 0.500313 0.500132 0.935267
C16   C     C_1   0.065436 0.500547 0.500114 -0.177768
C17   C     C_1   0.934579 0.500584 0.500340 -0.177683
C18   C     C_R   0.602880 0.061997 0.576750 0.063350
C19   C     C_R   0.499608 0.128856 0.499212 -0.082160
C20   C     C_R   0.408738 0.067894 0.404886 -0.265981
H1    H     H_    0.334578 0.121061 0.338630 0.154259
H2    H     H_    0.328941 0.286730 0.877041 0.222271
H3    H     H_    0.329506 0.283081 0.121480 0.164436
H4    H     H_    0.555571 0.873476 0.781592 0.171313
H5    H     H_    0.754822 0.108215 0.743187 0.169322
H6    H     H_    0.727405 0.554298 0.125206 0.172280
H7    H     H_    0.727557 0.554012 0.874287 0.163525
H8    H     H_    0.160842 0.390935 0.875200 0.207066
N1    N     N_R   0.499010 0.499140 0.142800 -0.119231
N2    N     N_R   0.499010 0.499180 0.857150 -0.104251
O1    O     O_R   0.500020 0.316790 0.614690 -0.596375
O2    O     O_R   0.500000 0.316760 0.385350 -0.627399
O3    O     O_R   0.285350 0.500020 0.614650 -0.618359
O4    O     O_R   0.285340 0.499980 0.385310 -0.612188
O5    O     O_R   0.500000 0.683240 0.614650 -0.622565
O6    O     O_R   0.499980 0.683210 0.385310 -0.610978
O7    O     O_R   0.714660 0.500020 0.614690 -0.625139
O8    O     O_R   0.714650 0.499980 0.385350 -0.612564
Zn1   Zn    Zn3+2 0.500010 0.500020 0.653130 0.955994
Zn2   Zn    Zn3+2 0.499990 0.499980 0.346870 0.963058
C21   C     C_1   0.124087 0.391896 0.134130 0.243429
N3    N     N_1   0.006806 0.411827 0.179280 -0.211847
C22   C     C_1   0.300632 0.877048 0.313589 0.186250
N4    N     N_1   0.216114 0.828048 0.242487 -0.200401
C23   C     C_1   0.793733 0.864824 0.736867 0.193978
N5    N     N_1   0.911688 0.820870 0.750398 -0.211576
N6    N     N_3   0.524299 0.114049 0.809290 -0.431441
H9    H     H_    0.551836 0.094016 0.909989 0.190745
H10   H     H_    0.422437 0.068957 0.788788 0.197057

loop_
_geom_bond_atom_site_label_1
_geom_bond_atom_site_label_2
_ccdc_geom_bond_type
C7    C10   A    
O5    Zn1   S    
C22   N4    T    
C15   O8    A    
C7    N1    A    
C8    H6    S    
C21   N3    T    
C10   N2    A    
C11   H2    S    
C19   C20   A    
C7    C13   S    
C2    C22   S    
C4    C18   A    
C13   C21   S    
C2    C3    A    
O7    Zn1   S    
C23   N5    T    
O8    Zn2   S    
C4    C5    S    
C11   C13   S    
C9    H7    S    
O3    Zn1   S    
C3    C14   S    
C5    C23   S    
C11   H8    S    
O4    Zn2   S    
C8    N1    A    
C9    N2    A    
N1    Zn2   S    
O1    Zn1   S    
N2    Zn1   S    
O2    Zn2   S    
C14   O6    A    
C5    C6    S    
C6    C18   S    
C1    C19   S    
C6    H5    S    
C16   C17   T    
C6    N6    S    
C12   O4    A    
C3    C4    A    
C12   C16   S    
C1    O1    A    
C20   H1    S    
C13   H3    S    
N6    H10   S    
C18   C19   A    
C10   C11   S    
C14   O5    A    
C15   C17   S    
C5    H4    S    
O6    Zn2   S    
C12   O3    A    
C2    C20   A    
C1    O2    A    
C15   O7    A    
N6    H9    S    
C8    C9    A    
