data_mof_unit_11581.cif
_audit_creation_date              2012-10-26T19:21:33-0400
_audit_creation_method            fapswitch 2.2
_symmetry_space_group_name_H-M    P1
_symmetry_Int_Tables_number       1
_space_group_crystal_system       triclinic
_cell_length_a                    9.787869
_cell_length_b                    11.047423
_cell_length_c                    15.775091
_cell_angle_alpha                 94.834125
_cell_angle_beta                  78.467966
_cell_angle_gamma                 111.418364
_cell_volume                      1555.7945512

loop_
_atom_site_label
_atom_site_type_symbol
_atom_type_description
_atom_site_fract_x
_atom_site_fract_y
_atom_site_fract_z
_atom_type_partial_charge
C1    C     C_R   0.556262 0.745481 0.506153 0.559946
C2    C     C_2   0.515629 0.069482 0.501539 -0.140175
C3    C     C_2   0.921859 0.487343 0.494191 0.026593
C4    C     C_2   0.076916 0.510594 0.507192 0.020178
C5    C     C_R   0.408872 0.483009 0.663217 0.547037
C6    C     C_R   0.590977 0.516137 0.336754 0.544109
C7    C     C_R   0.349146 0.461036 0.756977 -0.024577
C8    C     C_R   0.650589 0.537343 0.242977 -0.026069
C9    C     C_R   0.157382 0.360203 0.879735 -0.049545
C10   C     C_R   0.842972 0.636440 0.120193 -0.050256
C11   C     C_R   0.199851 0.383533 0.790844 0.066229
C12   C     C_R   0.443748 0.254519 0.493827 0.562746
C13   C     C_R   0.801061 0.611037 0.208780 0.067663
C14   C     C_R   0.450882 0.508991 0.813505 -0.099731
C15   C     C_R   0.548005 0.492463 0.186834 -0.100366
C16   C     C_R   0.413602 0.472068 0.900815 0.018753
C17   C     C_R   0.585444 0.529821 0.099651 0.024159
C18   C     C_R   0.261154 0.408618 0.936044 -0.004826
C19   C     C_R   0.738298 0.591614 0.064249 -0.005812
C20   C     C_R   0.523366 0.502931 0.954571 -0.017529
C21   C     C_R   0.475498 0.499774 0.046003 -0.011195
C22   C     C_2   0.052319 0.350066 0.063963 0.608604
C23   C     C_R   0.319586 0.466340 0.080551 0.023349
C24   C     C_2   0.946865 0.648509 0.935994 0.613912
C25   C     C_2   0.920231 0.659943 0.261117 0.607739
C26   C     C_2   0.083196 0.325713 0.737447 0.612094
C27   C     C_2   0.267149 0.511309 0.168629 0.591011
C28   C     C_2   0.731636 0.490889 0.832047 0.592564
C29   C     C_R   0.679083 0.535542 0.919993 0.024175
C30   C     C_R   0.213814 0.405135 0.026568 0.049320
C31   C     C_R   0.785279 0.595488 0.973729 0.052791
C32   C     C_2   0.588012 0.884723 0.509513 -0.106531
C33   C     C_2   0.412021 0.115278 0.490409 -0.106631
C34   C     C_2   0.484476 0.930522 0.498255 -0.144538
Cu1   Cu    Cu3+1 0.362980 0.479380 0.485080 1.009135
Cu2   Cu    Cu3+1 0.637020 0.520620 0.514920 1.012217
H1    H     H_    0.438377 0.424538 0.212028 0.154021
H2    H     H_    0.960100 0.687394 0.095064 0.181792
H3    H     H_    0.294415 0.658527 0.256029 0.353283
H4    H     H_    0.870388 0.535679 0.717122 0.358957
H5    H     H_    0.624495 0.134729 0.513202 0.163155
H6    H     H_    0.375651 0.865278 0.486524 0.157294
H7    H     H_    0.303346 0.049768 0.478742 0.113681
H8    H     H_    0.696643 0.950233 0.521248 0.115825
H9    H     H_    0.110324 0.381697 0.417193 0.236809
H10   H     H_    0.892388 0.622864 0.579635 0.212367
H11   H     H_    0.559966 0.578073 0.788466 0.155233
H12   H     H_    0.123227 0.580999 0.555727 0.164464
H13   H     H_    0.874200 0.414637 0.447165 0.176123
H14   H     H_    0.868448 0.189292 0.090926 0.354811
H15   H     H_    0.133608 0.807264 0.910626 0.354666
H16   H     H_    0.084260 0.814617 0.299034 0.337613
H17   H     H_    0.929241 0.162773 0.699618 0.346698
H18   H     H_    0.040817 0.306630 0.904624 0.181252
N1    N     N_2   0.842890 0.551600 0.537350 -0.349135
N2    N     N_2   0.157110 0.448400 0.462650 -0.337487
O1    O     O_R   0.426810 0.668300 0.492040 -0.505954
O2    O     O_R   0.978305 0.215356 0.064486 -0.659617
O3    O     O_2   0.012149 0.574942 0.905148 -0.490109
O4    O     O_R   0.024078 0.782691 0.937502 -0.657226
O5    O     O_2   0.951423 0.583770 0.298560 -0.473611
O6    O     O_R   0.003625 0.792969 0.262719 -0.681737
O7    O     O_2   0.046185 0.395550 0.697849 -0.495398
O8    O     O_R   0.008827 0.191033 0.737044 -0.675315
O9    O     O_2   0.165020 0.436326 0.218578 -0.473587
O10   O     O_R   0.337995 0.639549 0.194695 -0.670026
O11   O     O_2   0.673734 0.377624 0.809940 -0.477321
O12   O     O_R   0.573190 0.331700 0.507960 -0.500009
O13   O     O_R   0.845238 0.578312 0.774477 -0.663655
O14   O     O_R   0.658240 0.703130 0.517240 -0.486691
O15   O     O_R   0.341760 0.296870 0.482760 -0.486306
O16   O     O_R   0.319390 0.472820 0.610170 -0.460774
O17   O     O_R   0.680610 0.527180 0.389830 -0.460432
O18   O     O_R   0.550820 0.507640 0.635370 -0.482820
O19   O     O_R   0.449180 0.492360 0.364630 -0.487556
O20   O     O_2   0.984323 0.422350 0.092779 -0.489821

loop_
_geom_bond_atom_site_label_1
_geom_bond_atom_site_label_2
_ccdc_geom_bond_type
C8    C13   A    
C28   O13   S    
C34   H6    S    
C22   O20   D    
C19   C31   A    
C3    H13   S    
C6    O19   A    
C7    C11   A    
C12   O12   A    
Cu1   O19   S    
C28   C29   S    
C5    O16   A    
H17   O8    S    
C2    H5    S    
C5    O18   A    
C26   O8    S    
C15   H1    S    
C3    N1    D    
C7    C14   A    
Cu1   Cu2   S    
H9    N2    S    
H10   N1    S    
C18   C30   A    
C23   C27   S    
C24   O4    S    
C2    C34   S    
Cu1   O15   S    
C4    N2    D    
C13   C25   S    
Cu2   O14   S    
C20   C29   A    
H4    O13   S    
H14   O2    S    
C23   C30   A    
C28   O11   D    
C5    C7    S    
C6    C8    S    
C11   C26   S    
C1    C32   S    
C17   C21   A    
C33   H7    S    
C26   O7    D    
C27   O9    D    
C1    O1    A    
C10   C19   A    
C16   C20   A    
C32   H8    S    
C25   O5    D    
C9    C11   A    
Cu2   O18   S    
C2    C33   D    
C12   O15   A    
Cu1   O16   S    
C8    C15   A    
C21   C23   A    
H3    O10   S    
C14   C16   A    
C3    C4    S    
C6    O17   A    
C4    H12   S    
C15   C17   A    
C22   C30   S    
Cu1   N2    S    
C10   C13   A    
C22   O2    S    
Cu2   O12   S    
C14   H11   S    
H15   O4    S    
C1    O14   A    
Cu1   O1    S    
C10   H2    S    
C24   C31   S    
C29   C31   A    
C27   O10   S    
H16   O6    S    
C24   O3    D    
C17   C19   A    
C25   O6    S    
Cu2   O17   S    
C9    C18   A    
C20   C21   A    
C16   C18   A    
Cu2   N1    S    
C9    H18   S    
C12   C33   S    
C32   C34   D    
