data_mof_unit_50474.cif
_audit_creation_date              2012-12-10T17:59:47-0500
_audit_creation_method            fapswitch 2.2
_symmetry_space_group_name_H-M    P1
_symmetry_Int_Tables_number       1
_space_group_crystal_system       triclinic
_cell_length_a                    10.775278
_cell_length_b                    9.69046
_cell_length_c                    15.903506
_cell_angle_alpha                 90.020346
_cell_angle_beta                  95.150119
_cell_angle_gamma                 90.380836
_cell_volume                      1653.86148625

loop_
_atom_site_label
_atom_site_type_symbol
_atom_type_description
_atom_site_fract_x
_atom_site_fract_y
_atom_site_fract_z
_atom_type_partial_charge
C1    C     C_R   0.262955 0.499562 0.499993 0.876929
C2    C     C_3   0.627513 0.494518 0.957368 -0.464922
C3    C     C_3   0.635087 0.493042 0.056476 0.293448
C4    C     C_1   0.494691 0.500295 0.823671 -0.005152
C5    C     C_1   0.495841 0.499437 0.175765 -0.022659
C6    C     C_1   0.497511 0.499811 0.251239 -0.160799
C7    C     C_R   0.056223 0.441365 0.433038 0.266029
C8    C     C_R   0.074148 0.557236 0.571299 0.259075
C9    C     C_R   0.925755 0.436701 0.434330 0.244098
C10   C     C_R   0.943694 0.561505 0.569006 0.316988
C11   C     C_R   0.871463 0.500963 0.500831 -0.207440
C12   C     C_R   0.129106 0.498160 0.502297 -0.233461
C13   C     C_R   0.419117 0.073422 0.444554 0.210160
C14   C     C_R   0.419113 0.925218 0.444505 0.239383
C15   C     C_R   0.499146 0.499962 0.340674 0.847768
C16   C     C_R   0.580794 0.926652 0.555535 0.213543
C17   C     C_R   0.580950 0.074818 0.555504 0.247470
C18   C     C_R   0.737200 0.500354 0.500595 0.957346
C19   C     C_R   0.500804 0.500025 0.659356 0.791240
C20   C     C_3   0.421810 0.636454 0.045663 0.495132
C21   C     C_3   0.415612 0.364185 0.046579 0.496632
C22   C     C_3   0.416718 0.363584 0.944849 0.311618
C23   C     C_3   0.431190 0.644655 0.944314 0.257004
C24   C     C_1   0.498310 0.500094 0.748552 -0.177939
C25   C     C_3   0.493780 0.498560 0.082976 0.061929
C26   C     C_3   0.489001 0.500835 0.915880 0.091951
Cu1   Cu    Cu3+1 0.500020 0.640660 0.500000 0.954356
Cu2   Cu    Cu3+1 0.500020 0.359340 0.500000 0.962674
H1    H     H_    0.684989 0.578806 0.933934 0.189470
H2    H     H_    0.676982 0.405894 0.932329 0.182924
N1    N     N_R   0.500030 0.852070 0.500020 -0.189941
N2    N     N_R   0.500030 0.147930 0.500020 -0.189972
O1    O     O_R   0.319660 0.618740 0.500000 -0.587122
O2    O     O_R   0.319660 0.381260 0.500000 -0.569903
O3    O     O_R   0.500020 0.618840 0.379440 -0.590692
O4    O     O_R   0.500020 0.381160 0.379440 -0.575351
O5    O     O_R   0.680370 0.618830 0.500010 -0.579525
O6    O     O_R   0.680370 0.381170 0.500010 -0.567921
O7    O     O_R   0.500010 0.618730 0.620560 -0.585641
O8    O     O_R   0.500010 0.381270 0.620560 -0.589683
C27   C     C_3   0.305234 0.682640 0.891887 -0.808296
H3    H     H_    0.230114 0.606638 0.888552 0.208283
H4    H     H_    0.266305 0.778121 0.917739 0.238379
H5    H     H_    0.319259 0.703292 0.824578 0.252797
C28   C     C_3   0.280959 0.349895 0.900679 -0.727372
H6    H     H_    0.209935 0.409462 0.930230 0.237071
H7    H     H_    0.276932 0.376894 0.832666 0.216546
H8    H     H_    0.245361 0.242305 0.904501 0.232582
C29   C     C_3   0.672746 0.855864 0.619078 -0.712886
H9    H     H_    0.672649 0.744460 0.617695 0.301740
H10   H     H_    0.769431 0.886336 0.608269 0.217366
H11   H     H_    0.653315 0.883784 0.684258 0.188791
C30   C     C_3   0.673743 0.147072 0.618814 -0.754824
H12   H     H_    0.674049 0.258749 0.618590 0.272263
H13   H     H_    0.655537 0.117817 0.684041 0.195144
H14   H     H_    0.770176 0.118322 0.607122 0.203014
O9    O     O_3   0.297053 0.631602 0.067349 -0.711522
H15   H     H_    0.239062 0.592055 0.022456 0.359263
O10   O     O_3   0.291061 0.374685 0.067319 -0.741911
H16   H     H_    0.288977 0.376958 0.129644 0.356550
C31   C     C_3   0.455976 0.222881 0.089063 -0.850380
H17   H     H_    0.378481 0.146923 0.077378 0.245972
H18   H     H_    0.535777 0.169632 0.066376 0.217146
H19   H     H_    0.472704 0.232757 0.158643 0.221996
C32   C     C_3   0.466468 0.772648 0.091967 -0.729966
H20   H     H_    0.401690 0.857383 0.071193 0.227239
H21   H     H_    0.462305 0.763744 0.161228 0.232613
H22   H     H_    0.559171 0.811722 0.081361 0.191211
C33   C     C_3   0.480259 0.231383 0.910836 -0.863336
H23   H     H_    0.430991 0.135571 0.927713 0.230618
H24   H     H_    0.476898 0.232030 0.840816 0.243357
H25   H     H_    0.578341 0.217300 0.934268 0.210149
C34   C     C_3   0.514307 0.769794 0.918354 -0.843202
H26   H     H_    0.527121 0.767917 0.849809 0.239635
H27   H     H_    0.470132 0.870313 0.930679 0.231080
H28   H     H_    0.608027 0.776652 0.950307 0.209113
C35   C     C_3   0.718950 0.615252 0.094357 -0.782940
H29   H     H_    0.695655 0.644685 0.158432 0.237486
H30   H     H_    0.819951 0.591424 0.100533 0.230426
H31   H     H_    0.718735 0.706866 0.054270 0.195800
C36   C     C_3   0.707903 0.361698 0.090279 -0.776747
H32   H     H_    0.697000 0.273182 0.047192 0.198820
H33   H     H_    0.810656 0.375133 0.094663 0.226708
H34   H     H_    0.684418 0.332222 0.154363 0.245995
O11   O     O_3   0.115020 0.396640 0.364311 -0.761561
H35   H     H_    0.056987 0.405262 0.312699 0.337236
O12   O     O_3   0.143875 0.610114 0.641533 -0.737670
H36   H     H_    0.230422 0.576245 0.643811 0.322744
O13   O     O_3   0.848959 0.372199 0.371715 -0.728478
H37   H     H_    0.895614 0.296484 0.347361 0.335213
O14   O     O_3   0.883442 0.616899 0.634364 -0.762667
H38   H     H_    0.944484 0.659703 0.676913 0.376376
C37   C     C_3   0.326711 0.144315 0.381228 -0.704931
H39   H     H_    0.326748 0.255812 0.382318 0.299337
H40   H     H_    0.345505 0.116120 0.315966 0.189258
H41   H     H_    0.230135 0.114017 0.392453 0.216346
C38   C     C_3   0.326540 0.852992 0.381033 -0.739162
H42   H     H_    0.325943 0.741310 0.381442 0.276199
H43   H     H_    0.230047 0.882017 0.392381 0.202351
H44   H     H_    0.345245 0.882005 0.315853 0.198595

loop_
_geom_bond_atom_site_label_1
_geom_bond_atom_site_label_2
_ccdc_geom_bond_type
O12   H36   S    
C11   C18   S    
C37   H39   S    
C33   H25   S    
C34   H27   S    
C27   H3    S    
C13   N2    A    
C14   N1    A    
C38   H44   S    
C36   H32   S    
C1    O1    A    
C35   H29   S    
Cu1   O1    S    
C16   N1    A    
C2    H1    S    
C18   O5    A    
C21   O10   S    
C5    C6    T    
C4    C24   T    
C30   H14   S    
C32   H21   S    
C20   C25   S    
Cu2   O8    S    
C31   H18   S    
C34   H26   S    
C23   C26   S    
C33   H24   S    
C36   H33   S    
C6    C15   S    
Cu1   O7    S    
C16   C17   A    
C29   H10   S    
C3    C36   S    
C22   C33   S    
C21   C31   S    
C29   H11   S    
C28   H7    S    
Cu2   O2    S    
O10   H16   S    
C37   H40   S    
C13   C14   A    
C27   H4    S    
C31   H17   S    
C1    C12   S    
C23   C34   S    
Cu2   N2    S    
C15   O3    A    
C38   H43   S    
C1    O2    A    
C38   H42   S    
C35   H30   S    
C7    C12   A    
O13   H37   S    
Cu1   N1    S    
C20   C32   S    
C3    C25   S    
C16   C29   S    
C10   C11   A    
C9    O13   S    
O14   H38   S    
Cu1   O3    S    
O11   H35   S    
C13   C37   S    
C31   H19   S    
C20   C23   S    
Cu2   O6    S    
C8    C12   A    
C32   H22   S    
C2    C26   S    
C9    C11   A    
C19   O7    A    
C5    C25   S    
C10   O14   S    
C32   H20   S    
C37   H41   S    
C27   H5    S    
C30   H13   S    
C3    C35   S    
C17   C30   S    
C15   O4    A    
C36   H34   S    
C14   C38   S    
C28   H8    S    
C7    C9    A    
C21   C25   S    
C4    C26   S    
C30   H12   S    
C23   C27   S    
C2    H2    S    
C8    O12   S    
C2    C3    S    
C18   O6    A    
C35   H31   S    
O9    H15   S    
C7    O11   S    
Cu1   O5    S    
C34   H28   S    
C19   C24   S    
C33   H23   S    
C19   O8    A    
C28   H6    S    
C22   C28   S    
Cu2   O4    S    
C8    C10   A    
C29   H9    S    
C22   C26   S    
Cu1   Cu2   S    
C17   N2    A    
C20   O9    S    
C21   C22   S    
