data_mof_unit_61907.cif
_audit_creation_date              2012-12-10T19:33:00-0500
_audit_creation_method            fapswitch 2.2
_symmetry_space_group_name_H-M    P1
_symmetry_Int_Tables_number       1
_space_group_crystal_system       triclinic
_cell_length_a                    21.630398
_cell_length_b                    21.638884
_cell_length_c                    21.967517
_cell_angle_alpha                 119.482026
_cell_angle_beta                  118.80794
_cell_angle_gamma                 89.833999
_cell_volume                      7463.88731988

loop_
_atom_site_label
_atom_site_type_symbol
_atom_type_description
_atom_site_fract_x
_atom_site_fract_y
_atom_site_fract_z
_atom_type_partial_charge
C1    C     C_R   0.500075 0.120076 0.500238 0.875950
C2    C     C_3   0.718312 0.317064 0.049833 0.436249
C3    C     C_3   0.788080 0.291544 0.082548 0.188918
C4    C     C_3   0.763951 0.208156 0.049697 -0.467568
C5    C     C_3   0.721780 0.158607 0.952446 0.306910
C6    C     C_1   0.835314 0.337273 0.174002 -0.000440
C7    C     C_1   0.660660 0.162925 0.826099 -0.002200
C8    C     C_1   0.624009 0.125452 0.751079 -0.160150
C9    C     C_R   0.436925 0.195685 0.452804 0.133743
C10   C     C_R   0.501323 0.186569 0.502232 -0.096784
C11   C     C_R   0.568491 0.244125 0.553466 -0.212958
C12   C     C_R   0.580614 0.081049 0.662149 0.886825
C13   C     C_R   0.568465 0.309044 0.553822 -0.216288
C14   C     C_R   0.501665 0.314944 0.500956 -0.094969
C15   C     C_R   0.437353 0.256604 0.450897 0.132551
C16   C     C_3   0.356055 0.230152 0.387887 -0.498189
C17   C     C_3   0.355661 0.159655 0.389335 -0.483889
C18   C     C_3   0.221620 0.737092 0.049752 -0.424604
C19   C     C_3   0.339048 0.745182 0.047700 0.210444
C20   C     C_3   0.287033 0.691030 0.950296 0.357672
C21   C     C_1   0.126142 0.625270 0.751010 -0.177516
C22   C     C_3   0.294342 0.790339 0.082439 0.193749
C23   C     C_R   0.500774 0.880681 0.501188 0.874916
C24   C     C_3   0.172235 0.688981 0.952502 -0.498749
C25   C     C_3   0.211046 0.708114 0.917328 0.181128
C26   C     C_3   0.221285 0.792386 0.952094 -0.413226
C27   C     C_3   0.272315 0.840728 0.049011 -0.485899
C28   C     C_1   0.164296 0.662605 0.825984 -0.039685
C29   C     C_1   0.339320 0.836492 0.173902 -0.013831
C30   C     C_1   0.375998 0.874255 0.248921 -0.174250
C31   C     C_R   0.453643 0.748194 0.430115 0.073190
C32   C     C_R   0.503533 0.816286 0.503624 -0.201695
C33   C     C_R   0.562306 0.818556 0.573275 0.438986
C34   C     C_R   0.419388 0.918916 0.337852 0.901115
C35   C     C_R   0.562449 0.752681 0.570144 -0.197543
C36   C     C_R   0.505364 0.686204 0.499455 -0.215240
C37   C     C_R   0.454520 0.683828 0.427972 0.117042
C38   C     C_3   0.371903 0.653227 0.374616 -0.447525
C39   C     C_3   0.370920 0.724547 0.377024 -0.468377
C40   C     C_R   0.880860 0.500874 0.501767 0.875399
C41   C     C_R   0.919125 0.419001 0.337863 0.898971
C42   C     C_R   0.119945 0.499409 0.499259 0.880615
C43   C     C_R   0.081202 0.580995 0.662129 0.896726
C44   C     C_R   0.619877 0.501313 0.499191 0.866427
C45   C     C_3   0.665613 0.262518 0.951683 -0.528548
C46   C     C_R   0.500188 0.379957 0.500163 0.888962
C47   C     C_R   0.380040 0.500422 0.500668 0.888050
C48   C     C_R   0.500525 0.620446 0.499902 0.896460
C49   C     C_R   0.759349 0.520074 0.453887 -0.070012
C50   C     C_R   0.814030 0.499030 0.499957 -0.084785
C51   C     C_R   0.800087 0.469555 0.538091 -0.206747
C52   C     C_R   0.735632 0.470400 0.537890 -0.193800
C53   C     C_R   0.683970 0.497376 0.496164 -0.110315
C54   C     C_R   0.692963 0.515249 0.447362 0.017218
C55   C     C_3   0.683709 0.580276 0.439038 0.227772
C56   C     C_3   0.781171 0.256129 0.949937 -0.498894
C57   C     C_3   0.759185 0.587268 0.449639 0.364111
C58   C     C_R   0.247860 0.562686 0.561095 0.030664
C59   C     C_R   0.186710 0.498764 0.501207 -0.059808
C60   C     C_R   0.193308 0.431416 0.449134 -0.209761
C61   C     C_R   0.257588 0.431420 0.449116 -0.206318
C62   C     C_R   0.315582 0.498314 0.503226 -0.126337
C63   C     C_R   0.312368 0.562073 0.563024 0.061528
C64   C     C_3   0.325913 0.639622 0.583055 0.267442
C65   C     C_3   0.254550 0.640084 0.581094 -0.535263
C66   C     C_3   0.832176 0.299486 0.046742 -0.523470
C67   C     C_1   0.873834 0.374698 0.248974 -0.166142
C68   C     C_3   0.705502 0.208645 0.917589 0.199389
H1    H     H_    0.739021 0.371197 0.061246 0.108520
H2    H     H_    0.611433 0.229019 0.928252 0.174358
H3    H     H_    0.813647 0.191178 0.076691 0.161254
H4    H     H_    0.620126 0.239266 0.593397 0.159655
H5    H     H_    0.620061 0.353594 0.593871 0.154471
H6    H     H_    0.326612 0.265029 0.414382 0.198815
H7    H     H_    0.342876 0.219650 0.327425 0.211725
H8    H     H_    0.325495 0.153482 0.416066 0.213911
H9    H     H_    0.342760 0.108521 0.329889 0.197444
H10   H     H_    0.161102 0.628779 0.928788 0.171870
H11   H     H_    0.652108 0.296122 0.924178 0.162241
H12   H     H_    0.233968 0.700384 0.073136 0.169529
H13   H     H_    0.385505 0.785515 0.064805 0.155244
H14   H     H_    0.272450 0.634423 0.936643 0.116738
H15   H     H_    0.242982 0.876347 0.075193 0.197324
H16   H     H_    0.322712 0.878902 0.069538 0.167162
H17   H     H_    0.166232 0.802000 0.932901 0.190023
H18   H     H_    0.190209 0.770475 0.074229 0.193612
H19   H     H_    0.117502 0.699406 0.930917 0.200758
H20   H     H_    0.808946 0.219811 0.921720 0.189091
H21   H     H_    0.242616 0.811449 0.925474 0.166845
H22   H     H_    0.605237 0.754379 0.624465 0.192270
H23   H     H_    0.351313 0.602869 0.311255 0.200777
H24   H     H_    0.348494 0.647423 0.407533 0.195632
H25   H     H_    0.349712 0.715350 0.315042 0.200292
H26   H     H_    0.346884 0.760260 0.411313 0.217458
H27   H     H_    0.840469 0.449842 0.571585 0.158867
H28   H     H_    0.726791 0.451642 0.571426 0.147030
H29   H     H_    0.772411 0.296189 0.930972 0.198245
H30   H     H_    0.682424 0.628905 0.490568 0.077749
H31   H     H_    0.755734 0.574387 0.392229 0.145490
H32   H     H_    0.147584 0.380148 0.405697 0.152300
H33   H     H_    0.261297 0.380236 0.405797 0.153036
H34   H     H_    0.323822 0.642447 0.532913 0.120692
H35   H     H_    0.262784 0.679789 0.642990 0.212349
H36   H     H_    0.209988 0.641801 0.528424 0.193089
H37   H     H_    0.855270 0.359261 0.073589 0.187843
H38   H     H_    0.879932 0.277419 0.064533 0.201197
H39   H     H_    0.758944 0.128564 0.936240 0.149811
H40   H     H_    0.729536 0.199660 0.071089 0.198493
O1    O     O_R   0.448270 0.091610 0.500010 -0.622556
O2    O     O_R   0.908540 0.448310 0.500030 -0.625612
O3    O     O_R   0.938770 0.490290 0.377140 -0.613330
O4    O     O_R   0.938740 0.386860 0.377150 -0.617881
O5    O     O_R   0.091820 0.551690 0.499970 -0.624564
O6    O     O_R   0.091790 0.448250 0.499980 -0.621966
O7    O     O_R   0.061630 0.613140 0.622850 -0.618935
O8    O     O_R   0.061600 0.509710 0.622860 -0.614602
O9    O     O_R   0.626360 0.534710 0.569400 -0.631567
O10   O     O_R   0.557050 0.465350 0.430680 -0.614329
O11   O     O_R   0.534700 0.443070 0.569360 -0.623685
O12   O     O_R   0.551720 0.091610 0.499980 -0.624158
O13   O     O_R   0.465400 0.373710 0.430650 -0.621465
O14   O     O_R   0.443050 0.534650 0.569320 -0.593175
O15   O     O_R   0.373740 0.465290 0.430600 -0.631316
O16   O     O_R   0.534700 0.626290 0.569350 -0.608794
O17   O     O_R   0.465390 0.556930 0.430640 -0.643846
O18   O     O_R   0.509700 0.061430 0.622870 -0.610290
O19   O     O_R   0.613150 0.061430 0.622840 -0.621234
O20   O     O_R   0.448280 0.908390 0.500020 -0.616334
O21   O     O_R   0.551730 0.908390 0.499990 -0.611746
O22   O     O_R   0.386850 0.938570 0.377160 -0.624579
O23   O     O_R   0.490300 0.938570 0.377130 -0.603588
O24   O     O_R   0.908570 0.551750 0.500020 -0.594974
Zn1   Zn    Zn3+2 0.430930 0.000000 0.500020 0.962910
Zn2   Zn    Zn3+2 0.569070 0.000000 0.499980 0.984399
Zn3   Zn    Zn3+2 0.000200 0.569060 0.500000 0.986959
Zn4   Zn    Zn3+2 0.000160 0.430940 0.500000 0.965762
Zn5   Zn    Zn3+2 0.546320 0.546310 0.592620 0.985594
Zn6   Zn    Zn3+2 0.453780 0.453690 0.407380 0.945082
O25   O     O_3   0.688300 0.336204 0.100045 -0.598698
C69   C     C_3   0.620230 0.286229 0.062658 -0.268300
H41   H     H_    0.621633 0.228024 0.037353 0.137816
H42   H     H_    0.574189 0.291614 0.014356 0.168063
H43   H     H_    0.608950 0.301839 0.111725 0.200046
O26   O     O_3   0.372193 0.706697 0.085177 -0.747259
H44   H     H_    0.332474 0.669374 0.070805 0.324908
O27   O     O_3   0.323074 0.681935 0.907860 -0.589288
C70   C     C_3   0.337052 0.742558 0.903180 -0.275913
H45   H     H_    0.357895 0.797730 0.962292 0.130520
H46   H     H_    0.287078 0.738184 0.849488 0.167228
H47   H     H_    0.380942 0.738852 0.890102 0.197108
O28   O     O_3   0.617552 0.883151 0.646386 -0.745846
H48   H     H_    0.607086 0.926975 0.644681 0.333760
O29   O     O_3   0.627291 0.556338 0.356222 -0.595917
C71   C     C_3   0.565377 0.578196 0.354125 -0.255520
H49   H     H_    0.579746 0.639986 0.393935 0.159141
H50   H     H_    0.541801 0.551595 0.373486 0.190812
H51   H     H_    0.522098 0.558918 0.288741 0.194279
O30   O     O_3   0.815172 0.656506 0.521533 -0.594696
C72   C     C_3   0.836805 0.670146 0.600132 -0.256564
H52   H     H_    0.882668 0.647061 0.621112 0.173181
H53   H     H_    0.791036 0.648714 0.601141 0.131027
H54   H     H_    0.858671 0.731344 0.647022 0.187265
O31   O     O_3   0.389958 0.691170 0.662986 -0.719784
H55   H     H_    0.390786 0.682872 0.703991 0.346499
O32   O     O_3   0.657638 0.103274 0.915398 -0.743595
H56   H     H_    0.625130 0.128032 0.932557 0.332987

loop_
_geom_bond_atom_site_label_1
_geom_bond_atom_site_label_2
_ccdc_geom_bond_type
C57   O30   S    
C19   O26   S    
C22   C29   S    
C20   H14   S    
C48   O17   A    
C16   H7    S    
C45   C68   S    
O2    Zn4   S    
O31   H55   S    
C69   H43   S    
C3    C6    S    
C47   C62   S    
C7    C8    T    
C14   C46   S    
C12   O19   A    
C53   C54   A    
C25   C28   S    
C64   H34   S    
C4    H40   S    
O15   Zn6   S    
C26   C27   S    
C18   H18   S    
C18   C24   S    
C2    O25   S    
C27   H16   S    
C70   H46   S    
C69   H42   S    
O24   Zn3   S    
C38   C39   S    
C40   C50   S    
C56   H20   S    
C12   O18   A    
C20   C25   S    
C49   C54   A    
C57   H31   S    
C38   H24   S    
C49   C57   S    
C23   O21   A    
C39   H25   S    
C42   O5    A    
C43   O7    A    
C7    C68   S    
C21   C43   S    
C44   C53   S    
C42   O6    A    
C70   H45   S    
O18   Zn1   S    
C16   C17   S    
C41   O4    A    
C17   H8    S    
O28   H48   S    
C72   H53   S    
C46   O13   A    
C36   C48   S    
C5    O32   S    
C2    H1    S    
C9    C10   A    
C71   H50   S    
C1    O1    A    
O23   Zn2   S    
C55   H30   S    
C40   O24   A    
C59   C60   A    
C13   C14   A    
C56   H29   S    
C66   H38   S    
C5    C68   S    
C2    C45   S    
O4    Zn4   S    
O1    Zn1   S    
C51   C52   A    
O11   Zn5   S    
O16   Zn5   S    
C70   H47   S    
C69   H41   S    
C71   H51   S    
C41   C67   S    
C33   O28   S    
C30   C34   S    
C11   H4    S    
O26   H44   S    
C47   O14   A    
C40   O2    A    
C25   C26   S    
C56   C68   S    
C38   H23   S    
C31   C37   A    
C60   C61   A    
C26   H21   S    
C35   C36   A    
O13   Zn6   S    
C61   H33   S    
C39   H26   S    
C37   C38   S    
C43   O8    A    
C58   C65   S    
C47   O15   A    
C72   H52   S    
C44   O10   A    
C8    C12   S    
C19   C22   S    
C62   C63   A    
C17   H9    S    
C50   C51   A    
C72   H54   S    
C45   H11   S    
C24   C25   S    
C71   H49   S    
C9    C17   S    
C6    C67   T    
C21   C28   T    
C13   H5    S    
C34   O23   A    
C22   C27   S    
C55   C57   S    
O5    Zn3   S    
O30   C72   S    
C16   H6    S    
C3    C66   S    
C65   H35   S    
C66   H37   S    
C3    C4    S    
C52   C53   A    
O27   C70   S    
C5    H39   S    
C24   H10   S    
C58   C63   A    
C55   O29   S    
C54   C55   S    
C36   C37   A    
O19   Zn2   S    
C45   H2    S    
C18   C22   S    
C31   C32   A    
O9    Zn5   S    
C1    C10   S    
O14   Zn5   S    
C4    C5    S    
C60   H32   S    
O12   Zn2   S    
C42   C59   S    
C48   O16   A    
O25   C69   S    
O8    Zn4   S    
O17   Zn6   S    
C32   C33   A    
C19   C20   S    
C27   H15   S    
C2    C3    S    
C58   C59   A    
C19   H13   S    
O20   Zn1   S    
C23   C32   S    
C11   C13   A    
O3    Zn3   S    
O7    Zn3   S    
C44   O9    A    
C26   H17   S    
C56   C66   S    
C64   C65   S    
C33   C35   A    
C31   C39   S    
C46   O11   A    
C52   H28   S    
C20   O27   S    
C9    C15   A    
C61   C62   A    
C24   H19   S    
O21   Zn2   S    
C10   C11   A    
C29   C30   T    
C63   C64   S    
O22   Zn1   S    
C35   H22   S    
O32   H56   S    
C34   O22   A    
C18   H12   S    
C49   C50   A    
C41   O3    A    
O6    Zn4   S    
C14   C15   A    
C65   H36   S    
O29   C71   S    
O10   Zn6   S    
C1    O12   A    
C4    H3    S    
C15   C16   S    
C51   H27   S    
C23   O20   A    
C64   O31   S    
