data_mof_unit_59666.cif
_audit_creation_date              2012-12-11T15:11:41-0500
_audit_creation_method            fapswitch 2.2
_symmetry_space_group_name_H-M    P1
_symmetry_Int_Tables_number       1
_space_group_crystal_system       triclinic
_cell_length_a                    20.04346
_cell_length_b                    7.142198
_cell_length_c                    14.248995
_cell_angle_alpha                 89.953807
_cell_angle_beta                  102.953796
_cell_angle_gamma                 90.184547
_cell_volume                      1987.88473123

loop_
_atom_site_label
_atom_site_type_symbol
_atom_type_description
_atom_site_fract_x
_atom_site_fract_y
_atom_site_fract_z
_atom_type_partial_charge
O1    O     O_R   0.449830 0.506740 0.599960 -0.537981
O2    O     O_R   0.550170 0.006740 0.400040 -0.537477
O3    O     O_R   0.588980 0.179860 0.596720 -0.558200
O4    O     O_R   0.411020 0.679860 0.403280 -0.558457
C1    C     C_R   0.617515 0.345219 0.614520 0.697800
C2    C     C_R   0.382874 0.845108 0.384392 0.700624
O5    O     O_R   0.452740 0.177340 0.612040 -0.548329
O6    O     O_R   0.547260 0.677340 0.387960 -0.548434
O7    O     O_R   0.412960 0.002070 0.415460 -0.541470
O8    O     O_R   0.587040 0.502070 0.584540 -0.541168
C3    C     C_R   0.434834 0.346437 0.634690 0.788663
C4    C     C_R   0.565399 0.847103 0.365770 0.794823
O9    O     O_3   0.487110 0.337570 0.435490 -0.388282
O10   O     O_3   0.512890 0.837570 0.564510 -0.388333
V1    V     V_3+5 0.502390 0.064650 0.511970 1.410386
V2    V     V_3+5 0.497610 0.564650 0.488030 1.409243
C5    C     C_R   0.602322 0.854463 0.120857 0.329786
C6    C     C_R   0.394675 0.317842 0.877224 0.276047
C7    C     C_R   0.603544 0.861799 0.290236 -0.124075
C8    C     C_R   0.395841 0.356933 0.709642 -0.128210
C9    C     C_R   0.929530 0.841650 0.306375 0.279815
C10   C     C_R   0.068399 0.360303 0.692708 0.276317
C11   C     C_R   0.895142 0.779951 0.376972 0.050567
C12   C     C_R   0.100952 0.311478 0.618102 0.044182
C13   C     C_R   0.822680 0.770461 0.354389 0.331934
C14   C     C_R   0.173038 0.288342 0.639345 0.328515
C15   C     C_R   0.785251 0.824725 0.261970 0.001831
C16   C     C_R   0.212212 0.321778 0.733810 0.003477
C17   C     C_R   0.820679 0.832130 0.185867 -0.102743
C18   C     C_R   0.177452 0.326657 0.810856 -0.126425
C19   C     C_R   0.712305 0.850058 0.241173 -0.015232
C20   C     C_R   0.285753 0.334641 0.755153 0.009474
C21   C     C_R   0.674583 0.834132 0.144509 -0.067493
C22   C     C_R   0.322625 0.297020 0.850682 -0.116823
C23   C     C_R   0.709140 0.792574 0.072756 0.382383
C24   C     C_R   0.286536 0.248371 0.920247 0.386379
C25   C     C_R   0.781032 0.808287 0.090349 0.030074
C26   C     C_R   0.217008 0.292500 0.905513 0.075064
C27   C     C_R   0.674914 0.889828 0.312673 0.113336
C28   C     C_R   0.324519 0.385760 0.686420 0.108848
C29   C     C_R   0.567265 0.873363 0.195055 0.190224
C30   C     C_R   0.430986 0.352581 0.805582 0.223750
C31   C     C_R   0.893954 0.851874 0.210053 -0.116416
C32   C     C_R   0.104774 0.354729 0.788590 -0.117765
C33   C     C_3   0.235532 0.695486 0.161507 0.490308
C34   C     C_3   0.765064 0.194362 0.836269 0.489699
C35   C     C_3   0.309525 0.711018 0.229304 -0.027389
C36   C     C_3   0.690956 0.211283 0.769156 -0.038049
H1    H     H_    0.319327 0.574422 0.267283 0.172807
H2    H     H_    0.680258 0.074611 0.731402 0.174538
H3    H     H_    0.265325 0.636328 0.388684 0.156377
H4    H     H_    0.735031 0.136550 0.609688 0.157871
C37   C     C_3   0.181611 0.806501 0.300207 0.025050
C38   C     C_3   0.819160 0.307135 0.698141 0.022844
C39   C     C_3   0.224240 0.041003 0.196581 -0.436851
C40   C     C_3   0.776688 0.540465 0.801785 -0.425499
C41   C     C_3   0.186749 0.847858 0.193158 -0.031783
C42   C     C_3   0.813960 0.347562 0.805234 -0.028857
H5    H     H_    0.188962 0.158270 0.201675 0.197167
H6    H     H_    0.812117 0.658295 0.797230 0.199086
H7    H     H_    0.238850 0.053703 0.128053 0.183179
H8    H     H_    0.761842 0.551391 0.870042 0.147770
C43   C     C_3   0.312386 0.854645 0.314755 -0.004485
C44   C     C_3   0.688317 0.354724 0.683608 -0.002674
C45   C     C_3   0.255444 0.784470 0.366735 -0.416883
C46   C     C_3   0.745185 0.284692 0.631574 -0.416851
C47   C     C_3   0.290986 0.060074 0.276948 0.331104
C48   C     C_3   0.710159 0.559949 0.721156 0.334626
H9    H     H_    0.156741 0.930521 0.324525 0.155277
H10   H     H_    0.844179 0.431611 0.674089 0.154487
H11   H     H_    0.258443 0.859945 0.435727 0.161343
H12   H     H_    0.742361 0.360353 0.562627 0.160663
O11   O     O_R   0.912980 0.203550 0.915410 -0.556409
O12   O     O_R   0.087020 0.703550 0.084590 -0.554955
O13   O     O_R   0.047270 0.535570 0.887960 -0.542646
O14   O     O_R   0.952730 0.035570 0.112040 -0.543193
C49   C     C_R   0.063168 0.367334 0.861928 0.800070
C50   C     C_R   0.936658 0.866919 0.137998 0.803753
O15   O     O_R   0.911030 0.532970 0.903270 -0.546055
O16   O     O_R   0.088970 0.032970 0.096730 -0.548001
O17   O     O_R   0.949820 0.708150 0.099970 -0.544381
O18   O     O_R   0.050180 0.208150 0.900030 -0.546045
C51   C     C_R   0.885085 0.362626 0.878034 0.670667
C52   C     C_R   0.115312 0.862900 0.121159 0.668652
O19   O     O_3   0.012900 0.375230 0.064480 -0.382740
O20   O     O_3   0.987100 0.875230 0.935520 -0.383824
V3    V     V_3+5 0.997610 0.648190 0.988040 1.401310
V4    V     V_3+5 0.002390 0.148190 0.011960 1.400170
O21   O     O_3   0.498857 0.919380 0.177263 -0.667586
H13   H     H_    0.486350 0.990435 0.116185 0.305619
O22   O     O_3   0.499389 0.400119 0.827228 -0.665034
H14   H     H_    0.511033 0.461627 0.891113 0.314477
C53   C     C_3   0.236502 0.713527 0.052411 -0.792178
H15   H     H_    0.258842 0.846042 0.034064 0.208720
H16   H     H_    0.267458 0.600717 0.030415 0.238491
H17   H     H_    0.184700 0.704862 0.005164 0.198925
C54   C     C_3   0.764640 0.209111 0.945552 -0.775979
H18   H     H_    0.744581 0.342434 0.965817 0.165079
H19   H     H_    0.731938 0.098800 0.965958 0.249672
H20   H     H_    0.816169 0.194387 0.992738 0.202337
C55   C     C_3   0.369709 0.710945 0.177929 -0.767236
H21   H     H_    0.371193 0.575191 0.140466 0.235762
H22   H     H_    0.365992 0.820935 0.122675 0.235717
H23   H     H_    0.419084 0.721212 0.230768 0.255342
C56   C     C_3   0.631220 0.214599 0.821256 -0.758117
H24   H     H_    0.628293 0.078657 0.858086 0.250231
H25   H     H_    0.636430 0.324499 0.876852 0.229695
H26   H     H_    0.581943 0.228433 0.768701 0.255470
C57   C     C_3   0.134825 0.642462 0.315271 -0.731140
H27   H     H_    0.124623 0.652654 0.388598 0.206272
H28   H     H_    0.084792 0.647666 0.263002 0.241238
H29   H     H_    0.158488 0.503886 0.310976 0.224284
C58   C     C_3   0.865966 0.144196 0.682817 -0.726563
H30   H     H_    0.876816 0.156311 0.609901 0.209621
H31   H     H_    0.915717 0.148932 0.735797 0.238105
H32   H     H_    0.842031 0.005129 0.685846 0.223958
C59   C     C_3   0.346656 0.165780 0.236224 -0.640757
H33   H     H_    0.375018 0.076049 0.196804 0.229594
H34   H     H_    0.323207 0.279318 0.186907 0.225854
H35   H     H_    0.385117 0.236243 0.293313 0.223275
C60   C     C_3   0.654604 0.666717 0.761056 -0.668581
H36   H     H_    0.625337 0.577942 0.800032 0.224333
H37   H     H_    0.678441 0.780748 0.809749 0.230807
H38   H     H_    0.616782 0.738012 0.703690 0.230040
C61   C     C_3   0.275719 0.189997 0.357791 -0.753816
H39   H     H_    0.317281 0.189542 0.423561 0.211789
H40   H     H_    0.269088 0.336001 0.332273 0.216609
H41   H     H_    0.227737 0.154334 0.379241 0.188539
C62   C     C_3   0.725848 0.688864 0.640109 -0.752472
H42   H     H_    0.685532 0.680632 0.573075 0.209729
H43   H     H_    0.729926 0.836499 0.663437 0.217831
H44   H     H_    0.775145 0.657690 0.621695 0.181538
O23   O     O_3   0.671625 0.733819 0.984685 -0.626190
H45   H     H_    0.690750 0.611684 0.971942 0.275344
O24   O     O_3   0.318223 0.159098 0.004421 -0.652777
H46   H     H_    0.350261 0.065399 0.988097 0.302687
O25   O     O_3   0.567010 0.856437 0.025572 -0.613603
H47   H     H_    0.521257 0.799233 0.020852 0.300422
O26   O     O_3   0.428083 0.311613 0.973288 -0.638176
H48   H     H_    0.474211 0.257404 0.978283 0.301540
C63   C     C_3   0.705685 0.000095 0.403095 -0.706270
H49   H     H_    0.675049 0.128484 0.405687 0.194608
H50   H     H_    0.705126 0.915855 0.468069 0.198342
H51   H     H_    0.758341 0.050292 0.405040 0.208814
C64   C     C_3   0.295866 0.507636 0.599526 -0.705140
H52   H     H_    0.328381 0.634307 0.601194 0.195405
H53   H     H_    0.295631 0.430420 0.532078 0.199719
H54   H     H_    0.244058 0.561886 0.598841 0.208455
O27   O     O_3   0.999117 0.876063 0.327342 -0.666215
H55   H     H_    0.012777 0.921430 0.394353 0.294424
O28   O     O_3   0.999353 0.398175 0.675140 -0.666850
H56   H     H_    0.987908 0.473285 0.615803 0.296988
O29   O     O_3   0.787507 0.686117 0.416236 -0.647248
H57   H     H_    0.813443 0.702674 0.483314 0.289102
O30   O     O_3   0.205604 0.211372 0.572728 -0.648765
H58   H     H_    0.180602 0.246097 0.507155 0.288733
C65   C     C_3   0.935057 0.702902 0.471433 -0.835361
H59   H     H_    0.990100 0.681603 0.473416 0.226822
H60   H     H_    0.930038 0.797098 0.531426 0.210288
H61   H     H_    0.914535 0.561956 0.482222 0.219211
C66   C     C_3   0.058828 0.267265 0.518524 -0.804325
H62   H     H_    0.003209 0.255161 0.515272 0.229242
H63   H     H_    0.067160 0.376608 0.466900 0.207114
H64   H     H_    0.074546 0.129415 0.495461 0.214958
C67   C     C_3   0.812127 0.783993 0.005427 -0.771691
H65   H     H_    0.773363 0.803928 0.939228 0.244762
H66   H     H_    0.848281 0.895258 0.998477 0.208898
H67   H     H_    0.834609 0.642520 0.007604 0.224396
C68   C     C_3   0.187986 0.283764 0.992713 -0.715720
H68   H     H_    0.228999 0.305652 0.056750 0.250668
H69   H     H_    0.154313 0.401508 0.997981 0.190893
H70   H     H_    0.163468 0.145943 0.995275 0.222914
O31   O     O_3   0.213808 0.512996 0.177752 -0.685680
H71   H     H_    0.165224 0.493983 0.147861 0.311656
O32   O     O_3   0.786400 0.012705 0.818570 -0.684090
H72   H     H_    0.834967 0.993574 0.848487 0.310725

loop_
_geom_bond_atom_site_label_1
_geom_bond_atom_site_label_2
_ccdc_geom_bond_type
C29   O21   S    
C43   C45   S    
C53   H15   S    
C35   C55   S    
C39   H5    S    
C15   C17   A    
C68   H68   S    
C12   C66   S    
O1    C3    A    
O16   C52   A    
C33   C53   S    
C23   O23   S    
C2    O7    A    
O15   V3    S    
C54   H18   S    
O3    V1    S    
O24   H46   S    
C35   H1    S    
O31   H71   S    
C31   C50   S    
O5    C3    A    
C56   H25   S    
C33   C41   S    
C67   H65   S    
C10   C32   A    
C28   C64   S    
C44   C48   S    
C32   C49   S    
C23   C25   A    
O14   C50   A    
C62   H42   S    
C6    C30   A    
C35   C43   S    
C8    C28   A    
O20   V4    S    
C36   C44   S    
O27   H55   S    
C17   C25   A    
C38   C58   S    
C39   H7    S    
C18   C26   A    
C30   O22   S    
H3    C45   S    
C33   C35   S    
C60   H38   S    
C57   H28   S    
C54   H19   S    
C9    C31   A    
C63   H49   S    
C65   H59   S    
C46   H12   S    
O29   H57   S    
C27   C63   S    
C19   C27   A    
C61   H41   S    
O28   H56   S    
C19   C21   A    
C9    O27   S    
O12   V3    S    
C37   C45   S    
O14   V4    S    
C22   C24   A    
C62   H44   S    
O6    V2    S    
C36   H2    S    
O25   H47   S    
O2    C4    A    
C67   H66   S    
C17   C31   A    
C68   H69   S    
C18   C32   A    
C14   O30   S    
C48   C62   S    
C5    C21   A    
C66   H63   S    
C66   H62   S    
C34   C36   S    
O19   V3    S    
C56   H26   S    
C43   C47   S    
C3    C8    S    
C64   H53   S    
C13   O29   S    
C55   H21   S    
C16   C20   A    
O4    C2    A    
C57   H29   S    
O12   C52   A    
O22   H14   S    
C59   H34   S    
O20   V3    S    
C25   C67   S    
C37   H9    S    
C45   H11   S    
C15   C19   A    
C63   H51   S    
C40   H6    S    
C1    C44   S    
C63   H50   S    
C44   C46   S    
C2    C43   S    
O4    V2    S    
O11   V4    S    
C39   C41   S    
C33   O31   S    
O23   H45   S    
C47   C59   S    
C8    C30   A    
C36   C56   S    
C38   H10   S    
O6    C4    A    
C41   C52   S    
O1    V2    S    
O2    V1    S    
O13   C49   A    
C60   H36   S    
O17   V3    S    
C7    C27   A    
O13   V3    S    
C67   H67   S    
C34   C54   S    
C5    O25   S    
C53   H17   S    
C9    C11   A    
C61   H39   S    
C68   H70   S    
C10   C12   A    
C59   H35   S    
C65   H60   S    
C24   C26   A    
C24   O24   S    
C64   H52   S    
C66   H64   S    
H4    C46   S    
C64   H54   S    
C26   C68   S    
C58   H30   S    
C38   C42   S    
O19   V4    S    
C37   C57   S    
C10   O28   S    
C37   C41   S    
C54   H20   S    
C34   O32   S    
C12   C14   A    
O3    C1    A    
C48   C60   S    
C39   C47   S    
O26   H48   S    
C38   C46   S    
C65   H61   S    
C13   C15   A    
C56   H24   S    
C14   C16   A    
C58   H32   S    
C47   C61   S    
O7    V1    S    
C16   C18   A    
O16   V4    S    
O32   H72   S    
C40   C48   S    
C59   H33   S    
O15   C51   A    
C50   O17   A    
C53   H16   S    
C49   O18   A    
C6    C22   A    
O18   V4    S    
C11   C65   S    
C4    C7    S    
O5    V1    S    
C21   C23   A    
C40   C42   S    
C40   H8    S    
C20   C28   A    
C6    O26   S    
C5    C29   A    
C60   H37   S    
C1    O8    A    
C11   C13   A    
C55   H22   S    
O9    V2    S    
C57   H27   S    
O30   H58   S    
C61   H40   S    
O10   V1    S    
O8    V2    S    
C55   H23   S    
C62   H43   S    
O21   H13   S    
C42   C51   S    
O11   C51   A    
C34   C42   S    
C7    C29   A    
C20   C22   A    
C58   H31   S    
