data_mof_unit_30136.cif
_audit_creation_date              2012-10-26T19:24:20-0400
_audit_creation_method            fapswitch 2.2
_symmetry_space_group_name_H-M    P1
_symmetry_Int_Tables_number       1
_space_group_crystal_system       triclinic
_cell_length_a                    27.809682
_cell_length_b                    10.840612
_cell_length_c                    9.616196
_cell_angle_alpha                 89.3575
_cell_angle_beta                  90.162881
_cell_angle_gamma                 94.167329
_cell_volume                      2891.18021998

loop_
_atom_site_label
_atom_site_type_symbol
_atom_type_description
_atom_site_fract_x
_atom_site_fract_y
_atom_site_fract_z
_atom_type_partial_charge
C1    C     C_R   0.500719 0.261879 0.502227 0.556449
C2    C     C_R   0.972929 0.426080 0.597736 0.016703
C3    C     C_R   0.976883 0.565149 0.392450 0.016783
C4    C     C_R   0.407855 0.500092 0.499970 0.624539
C5    C     C_R   0.949654 0.495908 0.495119 0.033403
C6    C     C_R   0.943993 0.351138 0.690809 -0.142151
C7    C     C_R   0.893996 0.349303 0.686939 -0.111783
C8    C     C_R   0.870875 0.422768 0.591069 0.025732
C9    C     C_R   0.898572 0.496575 0.495261 -0.027801
C10   C     C_R   0.875098 0.571098 0.399662 0.026221
C11   C     C_R   0.824650 0.572418 0.403513 0.397228
C12   C     C_R   0.276875 0.385263 0.505214 -0.074230
C13   C     C_R   0.820403 0.423173 0.587974 0.397991
C14   C     C_R   0.719798 0.471697 0.375699 -0.061331
C15   C     C_R   0.669699 0.473033 0.376422 -0.159066
C16   C     C_R   0.495095 0.735703 0.499083 0.553950
C17   C     C_R   0.672112 0.525657 0.620721 -0.147162
C18   C     C_R   0.722268 0.527252 0.619067 -0.067673
C19   C     C_R   0.746482 0.499400 0.496834 0.234339
C20   C     C_R   0.024097 0.432516 0.603260 0.016817
C21   C     C_R   0.051135 0.495148 0.495397 0.033639
C22   C     C_R   0.027654 0.557972 0.387243 0.016754
C23   C     C_R   0.254343 0.496570 0.498148 0.153083
C24   C     C_R   0.049388 0.379460 0.714063 -0.143403
C25   C     C_R   0.105787 0.606839 0.276046 -0.112720
C26   C     C_R   0.952237 0.640476 0.299224 -0.142396
C27   C     C_R   0.902390 0.643634 0.303388 -0.112212
C28   C     C_R   0.592431 0.499831 0.500000 0.561046
C29   C     C_R   0.055947 0.610759 0.276722 -0.143399
C30   C     C_R   0.490235 0.104227 0.769478 -0.157187
C31   C     C_R   0.472163 0.034342 0.882781 -0.165676
C32   C     C_R   0.451163 0.914744 0.863902 0.056971
C33   C     C_R   0.451737 0.863660 0.731255 -0.087787
C34   C     C_R   0.102235 0.495079 0.495790 -0.028491
C35   C     C_R   0.475148 0.928668 0.619336 -0.025301
C36   C     C_R   0.488382 0.055901 0.632652 0.004293
C37   C     C_R   0.499954 0.126332 0.508691 -0.000603
C38   C     C_R   0.506574 0.064922 0.383494 -0.152926
C39   C     C_R   0.503246 0.937364 0.379651 -0.145344
C40   C     C_R   0.176801 0.442181 0.605964 0.403350
C41   C     C_R   0.488772 0.868271 0.497730 -0.005941
C42   C     C_R   0.570295 0.645299 0.149637 -0.102329
C43   C     C_R   0.613487 0.684291 0.088800 -0.224126
C44   C     C_R   0.617705 0.677125 0.947479 -0.160545
C45   C     C_R   0.126244 0.439331 0.606333 0.025042
C46   C     C_R   0.576370 0.648569 0.865865 0.290010
C47   C     C_R   0.536160 0.572936 0.926455 0.166224
C48   C     C_R   0.534846 0.572542 0.076231 0.126410
C49   C     C_R   0.466678 0.430894 0.074150 -0.002043
C50   C     C_R   0.466552 0.431297 0.926536 -0.000579
C51   C     C_R   0.179848 0.548598 0.387391 0.401330
C52   C     C_R   0.282457 0.608951 0.494285 -0.053497
C53   C     C_R   0.332815 0.610770 0.490934 0.185885
C54   C     C_R   0.327479 0.385610 0.513032 0.194600
C55   C     C_3   0.329522 0.199189 0.632283 -0.017582
C56   C     C_R   0.099437 0.383262 0.715518 -0.113102
C57   C     C_3   0.367757 0.123718 0.697447 -0.352890
C58   C     C_2   0.431484 0.840108 0.983475 0.559257
C59   C     C_3   0.589578 0.823377 0.721549 -0.011188
C60   C     C_3   0.614402 0.852946 0.583003 -0.369971
C61   C     C_3   0.359775 0.774837 0.354350 -0.008519
C62   C     C_3   0.362707 0.915111 0.364353 -0.329117
C63   C     C_R   0.129421 0.550906 0.385752 0.025168
C64   C     C_R   0.355277 0.498857 0.500255 0.045034
C65   C     C_R   0.645372 0.499516 0.499225 -0.000387
Cu1   Cu    Cu3+1 0.500000 0.499990 0.640660 1.008619
Cu2   Cu    Cu3+1 0.500000 0.500010 0.359340 0.946551
H1    H     H_    0.265197 0.695384 0.492508 0.154282
H2    H     H_    0.474486 0.074641 0.985408 0.143702
H3    H     H_    0.254839 0.298742 0.506253 0.138968
H4    H     H_    0.434697 0.771872 0.716266 0.207566
H5    H     H_    0.512906 0.892903 0.284402 0.165086
H6    H     H_    0.439367 0.373771 0.129488 0.126362
H7    H     H_    0.567186 0.670881 0.255243 0.189285
H8    H     H_    0.642792 0.726423 0.150434 0.142306
H9    H     H_    0.651362 0.712151 0.900203 0.124305
H10   H     H_    0.439162 0.374630 0.872004 0.115423
H11   H     H_    0.117053 0.341457 0.802965 0.167581
H12   H     H_    0.125779 0.648625 0.188916 0.168364
H13   H     H_    0.650021 0.451790 0.281279 0.139221
H14   H     H_    0.737896 0.448780 0.280865 0.144727
H15   H     H_    0.873505 0.290164 0.760409 0.166510
H16   H     H_    0.958866 0.289924 0.765924 0.112005
H17   H     H_    0.031561 0.336994 0.803672 0.111640
H18   H     H_    0.301146 0.134740 0.585788 0.139899
H19   H     H_    0.313511 0.251631 0.717830 0.153032
H20   H     H_    0.395658 0.186565 0.748028 0.160891
H21   H     H_    0.351199 0.058914 0.776947 0.120245
H22   H     H_    0.384904 0.069760 0.616612 0.170770
H23   H     H_    0.970596 0.701105 0.223857 0.111710
H24   H     H_    0.400062 0.677245 0.053084 0.331102
H25   H     H_    0.613717 0.863291 0.804105 0.109248
H26   H     H_    0.556440 0.872993 0.727865 0.160727
H27   H     H_    0.592215 0.814474 0.495565 0.151699
H28   H     H_    0.620191 0.954723 0.568644 0.112596
H29   H     H_    0.649845 0.811928 0.581273 0.153407
H30   H     H_    0.326905 0.746617 0.292067 0.141938
H31   H     H_    0.391767 0.746441 0.297487 0.192868
H32   H     H_    0.397269 0.948959 0.412931 0.174384
H33   H     H_    0.360478 0.957081 0.258926 0.156202
H34   H     H_    0.654395 0.545598 0.716825 0.148725
H35   H     H_    0.332329 0.944444 0.427791 0.149577
H36   H     H_    0.885294 0.703177 0.229949 0.165849
H37   H     H_    0.742344 0.549717 0.713194 0.142018
H38   H     H_    0.040519 0.653281 0.186883 0.111817
H39   H     H_    0.516176 0.115517 0.288589 0.142612
H40   H     H_    0.508010 0.192213 0.795634 0.159514
N1    N     N_R   0.202578 0.495562 0.497009 -0.388477
N2    N     N_R   0.798241 0.498324 0.496054 -0.394131
N3    N     N_R   0.500460 0.501210 0.147910 -0.244329
N4    N     N_R   0.500480 0.501290 0.852040 -0.236771
O1    O     O_R   0.500000 0.319640 0.618810 -0.526319
O2    O     O_R   0.569730 0.499970 0.618800 -0.448567
O3    O     O_R   0.569740 0.499990 0.381230 -0.533763
O4    O     O_2   0.200033 0.393032 0.714387 -0.507245
O5    O     O_3   0.350931 0.277134 0.526949 -0.565165
O6    O     O_2   0.433284 0.883229 0.100390 -0.579244
O7    O     O_R   0.411476 0.719447 0.963287 -0.699121
O8    O     O_3   0.577247 0.693740 0.731056 -0.512553
O9    O     O_3   0.360001 0.722728 0.489806 -0.582321
O10   O     O_2   0.793681 0.348091 0.675403 -0.505981
O11   O     O_2   0.205929 0.598192 0.279733 -0.506458
O12   O     O_2   0.802241 0.648150 0.316296 -0.509284
O13   O     O_R   0.500000 0.319660 0.381240 -0.501551
O14   O     O_R   0.430260 0.500010 0.618770 -0.487343
O15   O     O_R   0.430270 0.500030 0.381200 -0.506137
O16   O     O_R   0.500000 0.680340 0.618760 -0.454279
O17   O     O_R   0.500000 0.680360 0.381190 -0.532089

loop_
_geom_bond_atom_site_label_1
_geom_bond_atom_site_label_2
_ccdc_geom_bond_type
C10   C27   A    
C48   N3    A    
C55   H18   S    
C8    C13   A    
Cu1   O2    S    
C30   H40   S    
C11   N2    A    
C35   C36   A    
C32   C58   S    
Cu2   O13   S    
C53   O9    S    
C7    C8    A    
C39   C41   A    
C12   C23   A    
C26   C27   A    
C57   H22   S    
C4    O14   A    
C36   C37   A    
C22   C29   A    
Cu2   O3    S    
C1    O1    A    
C30   C31   A    
C53   C64   A    
C40   O4    S    
C55   O5    S    
C15   C65   A    
C58   O7    S    
C56   H11   S    
Cu1   O16   S    
C18   C19   A    
C25   C63   A    
C44   H9    S    
C17   H34   S    
C50   N4    A    
C13   N2    A    
C20   C24   A    
C45   C56   A    
C51   N1    A    
C54   O5    S    
C39   H5    S    
Cu1   N4    S    
C9    C10   A    
C52   H1    S    
C1    C37   S    
C40   N1    A    
Cu1   Cu2   S    
C59   C60   S    
C21   C22   A    
C61   O9    S    
C43   H8    S    
C29   H38   S    
C2    C6    A    
C44   C46   A    
C19   N2    S    
C25   C29   A    
C40   C45   A    
C61   H30   S    
C42   H7    S    
C2    C20   A    
C47   C48   A    
C51   C63   A    
C28   O2    A    
Cu2   O15   S    
C8    C9    A    
C18   H37   S    
C21   C34   A    
C58   O6    D    
C57   H20   S    
C38   H39   S    
C43   C44   A    
C5    C9    A    
C37   C38   A    
C13   O10   S    
Cu2   N3    S    
C15   H13   S    
C17   C18   A    
H24   O7    S    
C34   C45   A    
C42   C48   A    
C16   O17   A    
C28   O3    A    
C62   H33   S    
C60   H29   S    
C55   C57   S    
C49   H6    S    
C2    C5    A    
C24   C56   A    
C42   C43   A    
C50   H10   S    
C52   C53   A    
C12   H3    S    
C46   C47   A    
C59   O8    S    
C6    H16   S    
C25   H12   S    
C14   C19   A    
C31   C32   A    
C11   O12   S    
C3    C5    A    
C57   H21   S    
C6    C7    A    
C30   C36   A    
C26   H23   S    
C3    C26   A    
C4    C64   S    
C17   C65   A    
Cu1   O14   S    
C4    O15   A    
C32   C33   A    
C55   H19   S    
C28   C65   S    
C24   H17   S    
C1    O13   A    
Cu2   O17   S    
C61   H31   S    
C23   C52   A    
C38   C39   A    
C54   C64   A    
C47   N4    A    
C23   N1    S    
C27   H36   S    
C34   C63   A    
C33   C35   A    
C46   O8    S    
C59   H25   S    
C61   C62   S    
C35   C41   A    
C16   O16   A    
C10   C11   A    
C33   H4    S    
C62   H32   S    
C60   H28   S    
C31   H2    S    
C7    H15   S    
C20   C21   A    
C49   C50   A    
C51   O11   S    
C14   C15   A    
C3    C22   A    
C59   H26   S    
C14   H14   S    
Cu1   O1    S    
C16   C41   S    
C12   C54   A    
C49   N3    A    
C62   H35   S    
C60   H27   S    
