data_mof_unit_53164.cif
_audit_creation_date              2012-12-10T18:19:11-0500
_audit_creation_method            fapswitch 2.2
_symmetry_space_group_name_H-M    P1
_symmetry_Int_Tables_number       1
_space_group_crystal_system       triclinic
_cell_length_a                    14.922832
_cell_length_b                    14.176566
_cell_length_c                    11.519214
_cell_angle_alpha                 88.806823
_cell_angle_beta                  88.805833
_cell_angle_gamma                 89.944735
_cell_volume                      2435.88379677

loop_
_atom_site_label
_atom_site_type_symbol
_atom_type_description
_atom_site_fract_x
_atom_site_fract_y
_atom_site_fract_z
_atom_type_partial_charge
C1    C     C_R   0.327337 0.499986 0.496529 0.897764
C2    C     C_R   0.437644 0.200027 0.566167 0.517807
C3    C     C_R   0.430215 0.798398 0.551585 0.505574
C4    C     C_R   0.565627 0.202388 0.437989 0.489258
C5    C     C_R   0.433526 0.898677 0.562169 -0.157989
C6    C     C_R   0.568397 0.101807 0.440667 -0.132741
C7    C     C_R   0.562995 0.900653 0.431802 -0.157720
C8    C     C_R   0.429954 0.100190 0.556411 -0.151928
C9    C     C_R   0.498220 0.949996 0.497040 -0.039343
C10   C     C_R   0.498096 0.050910 0.496667 -0.049597
C11   C     C_R   0.369923 0.949216 0.629082 0.138995
C12   C     C_R   0.672665 0.499501 0.503747 0.886542
C13   C     C_R   0.637615 0.049822 0.385896 0.156021
C14   C     C_R   0.624920 0.954116 0.363491 0.143660
C15   C     C_R   0.360096 0.047255 0.611588 0.150480
C16   C     C_R   0.500983 0.500828 0.282057 0.885769
C17   C     C_R   0.498485 0.499229 0.717947 0.909096
C18   C     C_1   0.501066 0.502006 0.161496 -0.156665
C19   C     C_1   0.498229 0.497973 0.838535 -0.157873
C20   C     C_1   0.500310 0.500835 0.059305 0.033562
C21   C     C_1   0.498959 0.498745 0.940750 0.034440
C22   C     C_R   0.813547 0.490684 0.401845 -0.208021
C23   C     C_R   0.906128 0.496057 0.396775 0.023893
C24   C     C_R   0.186710 0.511125 0.598108 -0.196015
C25   C     C_R   0.768061 0.497668 0.507009 -0.094727
C26   C     C_R   0.231960 0.500130 0.493513 -0.104717
C27   C     C_R   0.812407 0.502621 0.612350 0.105652
C28   C     C_R   0.187452 0.491660 0.388686 0.107493
C29   C     C_R   0.906099 0.514170 0.609806 -0.075859
C30   C     C_R   0.093668 0.502793 0.388920 -0.081975
C31   C     C_R   0.953013 0.506958 0.501304 -0.034699
C32   C     C_R   0.046837 0.508450 0.497431 -0.044556
C33   C     C_3   0.884589 0.656431 0.803034 0.116295
C34   C     C_R   0.093967 0.513328 0.602384 0.012651
C35   C     C_3   0.962165 0.727689 0.791687 -0.437588
C36   C     C_3   0.927526 0.828930 0.791124 -0.872743
C37   C     C_3   0.110653 0.624026 0.169614 0.135596
C38   C     C_3   0.031037 0.687046 0.136908 -0.393154
C39   C     C_3   0.060469 0.788709 0.112951 -0.890886
C40   C     C_3   0.716962 0.767578 0.461306 0.117312
C41   C     C_3   0.799543 0.739410 0.389397 -0.280237
C42   C     C_3   0.884398 0.744517 0.459392 -1.006375
C43   C     C_3   0.435942 0.246397 0.756421 0.130782
C44   C     C_3   0.407579 0.165787 0.840308 -0.372907
C45   C     C_R   0.954887 0.532745 0.711170 0.481221
C46   C     C_3   0.452647 0.173511 0.957254 -0.916219
C47   C     C_3   0.284621 0.770691 0.502718 0.118308
C48   C     C_3   0.193040 0.768469 0.564654 -0.299482
C49   C     C_3   0.117001 0.770611 0.479019 -1.001159
C50   C     C_3   0.612970 0.277463 0.266217 0.141553
C51   C     C_3   0.672383 0.227563 0.176662 -0.382739
C52   C     C_3   0.667691 0.276772 0.057536 -0.881445
C53   C     C_R   0.044827 0.508316 0.284924 0.471824
C54   C     C_R   0.047900 0.523460 0.708863 0.083053
C55   C     C_R   0.952127 0.495920 0.289009 0.075186
C56   C     C_R   0.567412 0.799925 0.443124 0.488799
H1    H     H_    0.774751 0.484554 0.324085 0.157766
H2    H     H_    0.162950 0.630941 0.099999 0.207983
H3    H     H_    0.142403 0.649522 0.249597 0.101878
H4    H     H_    0.999335 0.659502 0.058261 0.275060
H5    H     H_    0.980205 0.686163 0.208562 0.216588
H6    H     H_    0.091314 0.818208 0.191250 0.268094
H7    H     H_    0.001269 0.832268 0.090047 0.281427
H8    H     H_    0.109609 0.792090 0.039189 0.278379
H9    H     H_    0.713890 0.725053 0.543458 0.153039
H10   H     H_    0.725523 0.842564 0.485531 0.131414
H11   H     H_    0.790658 0.667438 0.356750 0.236796
H12   H     H_    0.225698 0.517722 0.675606 0.173066
H13   H     H_    0.808161 0.786949 0.312633 0.254212
H14   H     H_    0.897326 0.818544 0.483969 0.288687
H15   H     H_    0.941595 0.718618 0.406051 0.272231
H16   H     H_    0.878342 0.699763 0.538825 0.261950
H17   H     H_    0.418569 0.312919 0.800696 0.185794
H18   H     H_    0.510334 0.245843 0.743142 0.133971
H19   H     H_    0.333891 0.167734 0.855153 0.276950
H20   H     H_    0.427277 0.096944 0.804139 0.237402
H21   H     H_    0.526064 0.163677 0.945845 0.271452
H22   H     H_    0.426803 0.117294 0.017583 0.288570
H23   H     H_    0.845197 0.672267 0.883192 0.201673
H24   H     H_    0.438378 0.243132 0.996176 0.265818
H25   H     H_    0.286156 0.717401 0.433485 0.167424
H26   H     H_    0.291407 0.841030 0.457990 0.111333
H27   H     H_    0.186841 0.704648 0.621652 0.245219
H28   H     H_    0.185561 0.831372 0.619345 0.253789
H29   H     H_    0.126428 0.828756 0.413803 0.281682
H30   H     H_    0.053536 0.782856 0.527691 0.284189
H31   H     H_    0.112843 0.702285 0.434693 0.261209
H32   H     H_    0.629308 0.353398 0.254962 0.185342
H33   H     H_    0.541108 0.266162 0.244960 0.127664
H34   H     H_    0.837747 0.666097 0.730023 0.122122
H35   H     H_    0.743305 0.229700 0.203450 0.285076
H36   H     H_    0.650544 0.153063 0.169635 0.240686
H37   H     H_    0.597185 0.289933 0.033501 0.252664
H38   H     H_    0.700538 0.232328 0.990763 0.289348
H39   H     H_    0.702919 0.345731 0.058760 0.294210
H40   H     H_    0.008351 0.717714 0.865052 0.259941
H41   H     H_    0.000551 0.716596 0.709605 0.218590
H42   H     H_    0.881641 0.841008 0.717552 0.262720
H43   H     H_    0.984886 0.878492 0.781150 0.285767
H44   H     H_    0.891342 0.843534 0.874082 0.273755
I1    I     I_    0.736561 0.471890 0.769167 -0.318400
I2    I     I_    0.263630 0.445917 0.239647 -0.285915
I3    I     I_    0.114950 0.525751 0.871019 -0.258708
I4    I     I_    0.885573 0.479602 0.127465 -0.263746
I5    I     I_    0.313140 0.888329 0.785529 -0.332978
I6    I     I_    0.774582 0.092945 0.388828 -0.284155
I7    I     I_    0.678191 0.905357 0.202453 -0.339318
I8    I     I_    0.231238 0.107274 0.648899 -0.246372
N1    N     N_R   0.500000 0.750030 0.500000 -0.185479
N2    N     N_R   0.500000 0.249970 0.500000 -0.198666
O1    O     O_R   0.367850 0.580280 0.500030 -0.600770
O2    O     O_3   0.085540 0.527472 0.177938 -0.564989
O3    O     O_3   0.639134 0.751214 0.395753 -0.584254
O4    O     O_3   0.388028 0.246157 0.650678 -0.586927
O5    O     O_3   0.352915 0.750159 0.584159 -0.583872
O6    O     O_3   0.634678 0.252193 0.382196 -0.587117
O7    O     O_R   0.632150 0.419720 0.499970 -0.559517
O8    O     O_R   0.632150 0.580280 0.499970 -0.601869
O9    O     O_R   0.367850 0.419720 0.500030 -0.556114
O10   O     O_R   0.500010 0.580270 0.334450 -0.578300
O11   O     O_R   0.499990 0.419730 0.665550 -0.627813
O12   O     O_R   0.499990 0.580270 0.665550 -0.582350
O13   O     O_R   0.500010 0.419730 0.334450 -0.645487
O14   O     O_3   0.914508 0.561547 0.813949 -0.573638
Zn1   Zn    Zn3+2 0.500000 0.607200 0.500000 1.025620
Zn2   Zn    Zn3+2 0.500000 0.392800 0.500000 1.018974

loop_
_geom_bond_atom_site_label_1
_geom_bond_atom_site_label_2
_ccdc_geom_bond_type
C43   H17   S    
C30   C32   A    
C40   C41   S    
C27   C29   A    
C41   C42   S    
C49   H31   S    
C35   C36   S    
C22   H1    S    
C41   H11   S    
C35   H40   S    
C47   O5    S    
C39   H8    S    
C5    C9    A    
C19   C21   T    
C16   O13   A    
C24   C26   A    
C5    C11   A    
C16   O10   A    
C43   O4    S    
C38   C39   S    
C42   H14   S    
C52   H39   S    
C1    O9    A    
C47   H26   S    
C44   H20   S    
C37   O2    S    
C51   H35   S    
C11   C15   A    
C7    C14   A    
C47   C48   S    
C22   C25   A    
O1    Zn1   S    
C33   O14   S    
C56   O3    S    
C52   H38   S    
O8    Zn1   S    
C9    C10   A    
C18   C20   T    
C37   H2    S    
C50   H32   S    
C38   H5    S    
C43   H18   S    
C40   H10   S    
C13   C14   A    
C7    C56   A    
C44   C46   S    
C53   C55   A    
C45   O14   S    
C30   C53   A    
C51   C52   S    
C49   H29   S    
C54   I3    S    
C4    C6    A    
C46   H22   S    
O10   Zn1   S    
C33   H23   S    
O13   Zn2   S    
C55   I4    S    
C27   I1    S    
C24   C34   A    
C48   H28   S    
C29   C45   A    
C32   C34   A    
C15   I8    S    
C44   H19   S    
C43   C44   S    
C11   I5    S    
C37   C38   S    
C51   H36   S    
C50   H33   S    
C40   O3    S    
C42   H16   S    
C50   C51   S    
C52   H37   S    
C36   H44   S    
C16   C18   S    
C37   H3    S    
N2    Zn2   S    
C38   H4    S    
C53   O2    S    
N1    Zn1   S    
C48   C49   S    
C45   C54   A    
C34   C54   A    
C8    C15   A    
C40   H9    S    
C1    C26   S    
C12   O8    A    
C17   C19   S    
C14   I7    S    
C56   N1    A    
C41   H13   S    
O7    Zn2   S    
C17   O11   A    
C7    C9    A    
C39   H6    S    
C4    N2    A    
C2    N2    A    
C49   H30   S    
C4    O6    S    
C31   C32   A    
C2    C8    A    
C13   I6    S    
C3    C5    A    
C6    C10   A    
C46   H21   S    
C23   C55   A    
C25   C27   A    
C39   H7    S    
C26   C28   A    
C48   H27   S    
C12   C25   S    
O12   Zn1   S    
C28   C30   A    
O11   Zn2   S    
C29   C31   A    
C3    O5    S    
C33   H34   S    
C1    O1    A    
C6    C13   A    
C46   H24   S    
C2    O4    S    
C3    N1    A    
C42   H15   S    
C33   C35   S    
C36   H43   S    
C50   O6    S    
C47   H25   S    
C24   H12   S    
C12   O7    A    
O9    Zn2   S    
C28   I2    S    
C17   O12   A    
C20   C21   S    
C8    C10   A    
C22   C23   A    
C36   H42   S    
C35   H41   S    
C23   C31   A    
