data_mof_unit_32313.cif
_audit_creation_date              2012-12-11T17:04:48-0500
_audit_creation_method            fapswitch 2.2
_symmetry_space_group_name_H-M    P1
_symmetry_Int_Tables_number       1
_space_group_crystal_system       triclinic
_cell_length_a                    17.612064
_cell_length_b                    24.427039
_cell_length_c                    15.182646
_cell_angle_alpha                 89.737328
_cell_angle_beta                  126.480517
_cell_angle_gamma                 90.238019
_cell_volume                      5251.83723212

loop_
_atom_site_label
_atom_site_type_symbol
_atom_type_description
_atom_site_fract_x
_atom_site_fract_y
_atom_site_fract_z
_atom_type_partial_charge
C1    C     C_R   0.847276 0.651639 0.908697 -0.042976
C2    C     C_R   0.938080 0.501922 0.635886 -0.095285
C3    C     C_R   0.769751 0.047274 0.275091 -0.160263
C4    C     C_R   0.817959 0.367984 0.910323 -0.137037
C5    C     C_R   0.185428 0.372884 0.092627 -0.114817
C6    C     C_R   0.317963 0.867980 0.910323 -0.137056
C7    C     C_R   0.685436 0.872893 0.092632 -0.114779
C8    C     C_R   0.934676 0.648381 0.091861 -0.135471
C9    C     C_R   0.057730 0.652844 0.910729 -0.168960
C10   C     C_R   0.434660 0.148375 0.091861 -0.135819
C11   C     C_R   0.557729 0.152844 0.910729 -0.168929
C12   C     C_R   0.871358 0.679022 0.001213 0.022731
C13   C     C_R   0.535525 0.000834 0.349173 -0.131531
C14   C     C_R   0.115168 0.684660 0.002747 0.077382
C15   C     C_R   0.371322 0.179006 0.001209 0.022718
C16   C     C_R   0.615166 0.184661 0.002747 0.077390
C17   C     C_2   0.803106 0.674962 0.798837 0.422404
C18   C     C_2   0.159894 0.674720 0.195192 0.362123
C19   C     C_2   0.303098 0.174965 0.798845 0.422493
C20   C     C_2   0.659891 0.174720 0.195191 0.362187
C21   C     C_3   0.397769 0.633008 0.182296 0.291167
C22   C     C_3   0.392080 0.584147 0.116957 -0.882014
C23   C     C_3   0.722617 0.592910 0.061089 0.274023
C24   C     C_R   0.438067 0.001922 0.635879 -0.095284
C25   C     C_3   0.770758 0.552121 0.155061 -0.827820
C26   C     C_3   0.897754 0.133008 0.182298 0.291119
C27   C     C_3   0.892053 0.084144 0.116958 -0.881858
C28   C     C_3   0.222714 0.092878 0.060744 0.273853
C29   C     C_3   0.270985 0.052119 0.154769 -0.827913
C30   C     C_3   0.017633 0.697350 0.430339 0.310473
C31   C     C_3   0.959685 0.740774 0.342907 -0.835389
C32   C     C_3   0.122041 0.644900 0.714465 0.242528
C33   C     C_3   0.207157 0.633476 0.831498 -0.797895
C34   C     C_3   0.517538 0.197352 0.430238 0.310373
C35   C     C_R   0.674243 0.499847 0.707123 0.045098
C36   C     C_3   0.459553 0.240774 0.342815 -0.835611
C37   C     C_3   0.621988 0.144910 0.714406 0.242520
C38   C     C_3   0.707113 0.133488 0.831435 -0.797894
C39   C     C_3   0.192279 0.572930 0.439015 0.220109
C40   C     C_3   0.258968 0.621353 0.496498 -0.926291
C41   C     C_3   0.808164 0.593973 0.573355 0.172936
C42   C     C_3   0.768925 0.649659 0.519631 -0.897652
C43   C     C_3   0.692238 0.072944 0.439005 0.220105
C44   C     C_3   0.758910 0.121372 0.496494 -0.926432
C45   C     C_3   0.308146 0.093970 0.573364 0.172923
C46   C     C_R   0.324568 0.501492 0.322089 0.044092
C47   C     C_3   0.268898 0.149653 0.519636 -0.897619
C48   C     C_R   0.174244 0.999848 0.707157 0.045087
C49   C     C_R   0.824562 0.001491 0.322129 0.044102
C50   C     C_3   0.509711 0.452702 0.566099 -0.166328
C51   C     C_3   0.492779 0.461086 0.454838 -0.160181
C52   C     C_3   0.009696 0.952709 0.566164 -0.166333
C53   C     C_R   0.141025 0.653759 0.092719 -0.000549
C54   C     C_3   0.992761 0.961075 0.454897 -0.160190
C55   C     C_3   0.430903 0.494087 0.533661 -0.148484
C56   C     C_3   0.563391 0.509025 0.501394 -0.139481
C57   C     C_3   0.930897 0.994105 0.533713 -0.148471
C58   C     C_3   0.063382 0.009007 0.501430 -0.139460
C59   C     C_3   0.415940 0.502383 0.424228 0.186143
C60   C     C_3   0.579011 0.500669 0.611272 0.186518
C61   C     C_3   0.915931 0.002382 0.424274 0.186140
C62   C     C_3   0.079007 0.000671 0.611315 0.186518
C63   C     C_3   0.485142 0.550382 0.469501 -0.152766
C64   C     C_R   0.347258 0.151632 0.908695 -0.043126
C65   C     C_3   0.502320 0.542058 0.580992 -0.155663
C66   C     C_3   0.985144 0.050375 0.469526 -0.152764
C67   C     C_3   0.002326 0.042070 0.581023 -0.155679
C68   C     C_R   0.793321 0.292714 0.103636 0.049044
C69   C     C_R   0.238217 0.267323 0.054896 0.047381
C70   C     C_R   0.293327 0.792709 0.103636 0.049063
C71   C     C_R   0.738410 0.767371 0.055083 0.047303
C72   C     C_R   0.758299 0.322107 0.007994 0.083786
C73   C     C_R   0.238808 0.316543 0.009013 0.052351
C74   C     C_R   0.258305 0.822103 0.007994 0.083787
C75   C     C_R   0.641024 0.153760 0.092719 -0.000538
C76   C     C_R   0.738861 0.816569 0.009041 0.052376
C77   C     C_R   0.663372 0.315672 0.917265 -0.205434
C78   C     C_R   0.296386 0.323825 0.974615 -0.213969
C79   C     C_R   0.163377 0.815669 0.917266 -0.205419
C80   C     C_R   0.796318 0.823838 0.974472 -0.213979
C81   C     C_R   0.908966 0.372241 0.093520 -0.121413
C82   C     C_R   0.094279 0.373411 0.908639 -0.121492
C83   C     C_R   0.408969 0.872237 0.093520 -0.121464
C84   C     C_R   0.594289 0.873416 0.908644 -0.121528
C85   C     C_R   0.109805 0.773397 0.917774 -0.232295
C86   C     C_R   0.823880 0.354145 0.002611 0.065396
C87   C     C_R   0.844836 0.778734 0.974919 -0.047091
C88   C     C_R   0.609801 0.273399 0.917773 -0.232284
C89   C     C_R   0.344891 0.278716 0.975058 -0.047110
C90   C     C_R   0.152416 0.738121 0.008624 0.099345
C91   C     C_R   0.831751 0.727708 0.006746 0.007006
C92   C     C_R   0.652412 0.238124 0.008624 0.099340
C93   C     C_R   0.331681 0.227677 0.006720 0.007157
C94   C     C_R   0.242167 0.750482 0.102575 0.168134
C95   C     C_R   0.782859 0.723061 0.051492 0.067462
C96   C     C_R   0.742162 0.250486 0.102575 0.168117
C97   C     C_R   0.181288 0.358774 0.002521 0.069185
C98   C     C_R   0.282665 0.223009 0.051312 0.067190
C99   C     C_3   0.327410 0.714584 0.172040 0.398056
C100  C     C_3   0.703466 0.685200 0.019755 0.451983
C101  C     C_3   0.827405 0.214589 0.172041 0.398066
C102  C     C_3   0.203185 0.185170 0.019384 0.451877
C103  C     C_3   0.884425 0.261820 0.174638 -0.669054
C104  C     C_3   0.155353 0.234157 0.028050 -0.569767
C105  C     C_3   0.384431 0.761815 0.174637 -0.669089
C106  C     C_3   0.655635 0.734180 0.028443 -0.570192
C107  C     C_R   0.944407 0.552677 0.499588 0.006276
C108  C     C_R   0.323885 0.854141 0.002611 0.065393
C109  C     C_R   0.972614 0.551946 0.433174 0.022281
C110  C     C_R   0.444353 0.052678 0.499551 0.006387
C111  C     C_R   0.472546 0.051948 0.433123 0.022133
C112  C     C_R   0.928548 0.503820 0.534838 0.082089
C113  C     C_R   0.993547 0.502176 0.406940 0.043100
C114  C     C_R   0.428513 0.003820 0.534818 0.082069
C115  C     C_R   0.493483 0.002179 0.406889 0.043229
C116  C     C_R   0.924185 0.454866 0.484067 -0.192772
C117  C     C_R   0.958502 0.453800 0.421983 -0.140839
C118  C     C_R   0.424147 0.954866 0.484042 -0.192775
C119  C     C_R   0.681302 0.858784 0.002530 0.069198
C120  C     C_R   0.458448 0.953802 0.421942 -0.140867
C121  C     C_3   0.022303 0.605890 0.474196 0.255484
C122  C     C_3   0.997259 0.604885 0.554099 0.251600
C123  C     C_3   0.522224 0.105896 0.474130 0.255360
C124  C     C_3   0.497200 0.104889 0.554049 0.251666
C125  C     C_R   0.041648 0.546427 0.298783 0.552484
C126  C     C_R   0.945805 0.546709 0.695738 0.631309
C127  C     C_R   0.541620 0.046429 0.298765 0.552300
C128  C     C_R   0.445797 0.046709 0.695734 0.631305
C129  C     C_R   0.730152 0.454640 0.734413 -0.132674
C130  C     C_R   0.035568 0.500831 0.349201 -0.131648
C131  C     C_R   0.268830 0.455359 0.282347 -0.153791
C132  C     C_R   0.230151 0.954641 0.734433 -0.132659
C133  C     C_R   0.768824 0.955359 0.282373 -0.153799
C134  C     C_R   0.034642 0.455152 0.295452 -0.227393
C135  C     C_R   0.953452 0.455734 0.697630 -0.232605
C136  C     C_R   0.534618 0.955154 0.295439 -0.227405
C137  C     C_R   0.453446 0.955734 0.697627 -0.232621
C138  C     C_R   0.729684 0.545972 0.743092 -0.201573
C139  C     C_R   0.269753 0.547274 0.275066 -0.160223
C140  C     C_R   0.229686 0.045972 0.743115 -0.201645
H1    H     H_    0.522197 0.413147 0.609050 0.105988
H2    H     H_    0.300684 0.363056 0.944275 0.139554
H3    H     H_    0.524217 0.210013 0.504837 0.028502
H4    H     H_    0.386547 0.241611 0.319197 0.255142
H5    H     H_    0.492447 0.281639 0.374845 0.190737
H6    H     H_    0.456815 0.231941 0.269437 0.252526
H7    H     H_    0.572962 0.172341 0.716808 0.104816
H8    H     H_    0.647555 0.166054 0.671517 0.053372
H9    H     H_    0.760492 0.109606 0.831169 0.234970
H10   H     H_    0.739345 0.172705 0.875171 0.230073
H11   H     H_    0.685455 0.109643 0.875549 0.270641
H12   H     H_    0.220600 0.546180 0.406215 0.110499
H13   H     H_    0.133565 0.839902 0.843705 0.125094
H14   H     H_    0.193293 0.548971 0.502214 0.097850
H15   H     H_    0.234869 0.647687 0.534737 0.241078
H16   H     H_    0.330858 0.606103 0.561867 0.215619
H17   H     H_    0.263177 0.646101 0.438259 0.257752
H18   H     H_    0.771944 0.580412 0.609276 0.109879
H19   H     H_    0.790096 0.564880 0.507419 0.100838
H20   H     H_    0.793451 0.660866 0.469424 0.248842
H21   H     H_    0.690532 0.648060 0.465190 0.214347
H22   H     H_    0.792249 0.681751 0.582411 0.263709
H23   H     H_    0.720572 0.046201 0.406211 0.110519
H24   H     H_    0.800509 0.863053 0.943998 0.139563
H25   H     H_    0.693251 0.048979 0.502198 0.097871
H26   H     H_    0.734803 0.147696 0.534732 0.241085
H27   H     H_    0.830803 0.106131 0.561862 0.215655
H28   H     H_    0.763109 0.146127 0.438261 0.257791
H29   H     H_    0.271936 0.080409 0.609297 0.109892
H30   H     H_    0.290071 0.064874 0.507428 0.100863
H31   H     H_    0.293401 0.160856 0.469405 0.248844
H32   H     H_    0.190505 0.148055 0.465216 0.214352
H33   H     H_    0.292237 0.181749 0.582414 0.263703
H34   H     H_    0.039440 0.765360 0.844543 0.130959
H35   H     H_    0.887658 0.782788 0.945653 0.142579
H36   H     H_    0.539438 0.265361 0.844539 0.130969
H37   H     H_    0.387807 0.282781 0.945919 0.142540
H38   H     H_    0.342062 0.704637 0.252602 0.025708
H39   H     H_    0.664327 0.669860 0.933756 -0.005082
H40   H     H_    0.842057 0.204643 0.252603 0.025698
H41   H     H_    0.486317 0.428463 0.400042 0.114575
H42   H     H_    0.164087 0.169857 0.933372 -0.004937
H43   H     H_    0.917880 0.253217 0.132911 0.227334
H44   H     H_    0.151020 0.232063 0.098143 0.216906
H45   H     H_    0.417886 0.753212 0.132910 0.227326
H46   H     H_    0.651419 0.732110 0.098624 0.216895
H47   H     H_    0.932431 0.280149 0.257522 0.171957
H48   H     H_    0.088485 0.246008 0.948532 0.167527
H49   H     H_    0.432437 0.780143 0.257521 0.171965
H50   H     H_    0.588700 0.745989 0.948959 0.167610
H51   H     H_    0.905139 0.416460 0.501924 0.128749
H52   H     H_    0.022176 0.913160 0.609130 0.105994
H53   H     H_    0.962133 0.414607 0.391931 0.124593
H54   H     H_    0.405112 0.916459 0.501911 0.128756
H55   H     H_    0.462082 0.914609 0.391892 0.124589
H56   H     H_    0.936498 0.366727 0.177898 0.111576
H57   H     H_    0.065947 0.363978 0.824858 0.111526
H58   H     H_    0.436503 0.866720 0.177897 0.111583
H59   H     H_    0.565965 0.863988 0.824863 0.111541
H60   H     H_    0.099257 0.604579 0.515312 0.091061
H61   H     H_    0.950758 0.639005 0.543240 0.105415
H62   H     H_    0.599176 0.104592 0.515238 0.091156
H63   H     H_    0.986289 0.928441 0.400113 0.114574
H64   H     H_    0.450699 0.139008 0.543198 0.105421
H65   H     H_    0.706873 0.414088 0.700740 0.088647
H66   H     H_    0.288808 0.414547 0.316454 0.097372
H67   H     H_    0.206866 0.914089 0.700760 0.088650
H68   H     H_    0.788795 0.914547 0.316483 0.097365
H69   H     H_    0.044351 0.413139 0.322411 0.124965
H70   H     H_    0.941870 0.413557 0.671480 0.128468
H71   H     H_    0.544322 0.913141 0.322399 0.124956
H72   H     H_    0.441860 0.913557 0.671476 0.128474
H73   H     H_    0.705094 0.587584 0.723296 0.109827
H74   H     H_    0.474126 0.590397 0.428836 0.096104
H75   H     H_    0.290471 0.589350 0.299208 0.084503
H76   H     H_    0.205097 0.087584 0.723326 0.109798
H77   H     H_    0.790467 0.089349 0.299238 0.084510
H78   H     H_    0.764339 0.354807 0.827871 0.089192
H79   H     H_    0.239162 0.361134 0.176344 0.098232
H80   H     H_    0.264346 0.854800 0.827872 0.089192
H81   H     H_    0.739177 0.861154 0.176352 0.098233
H82   H     H_    0.973822 0.660250 0.176827 0.173904
H83   H     H_    0.015888 0.666458 0.826514 0.144992
H84   H     H_    0.473796 0.160244 0.176826 0.173940
H85   H     H_    0.509108 0.574640 0.636019 0.111905
H86   H     H_    0.515886 0.166458 0.826514 0.144986
H87   H     H_    0.373405 0.488045 0.542827 0.105676
H88   H     H_    0.620304 0.515121 0.491194 0.102140
H89   H     H_    0.873400 0.988078 0.542884 0.105677
H90   H     H_    0.120293 0.015089 0.491223 0.102153
H91   H     H_    0.812927 0.654641 0.743206 0.045294
H92   H     H_    0.165691 0.645934 0.253071 0.078735
H93   H     H_    0.312909 0.154646 0.743204 0.045283
H94   H     H_    0.665692 0.145933 0.253072 0.078704
H95   H     H_    0.390974 0.617519 0.246156 0.070178
H96   H     H_    0.974135 0.090383 0.428842 0.096104
H97   H     H_    0.467823 0.653114 0.221958 0.096709
H98   H     H_    0.322776 0.563288 0.076983 0.261201
H99   H     H_    0.400279 0.597886 0.053202 0.255066
H100  H     H_    0.449214 0.554665 0.172453 0.208351
H101  H     H_    0.756657 0.589775 0.018554 0.087287
H102  H     H_    0.646584 0.581843 0.003114 0.085911
H103  H     H_    0.739840 0.554173 0.200852 0.253069
H104  H     H_    0.762157 0.509998 0.123120 0.200322
H105  H     H_    0.846976 0.561957 0.210957 0.262920
H106  H     H_    0.890955 0.117523 0.246157 0.070163
H107  H     H_    0.009123 0.074663 0.636037 0.111898
H108  H     H_    0.967813 0.153108 0.221961 0.096742
H109  H     H_    0.900251 0.097879 0.053200 0.255095
H110  H     H_    0.949183 0.054659 0.172453 0.208349
H111  H     H_    0.822746 0.063290 0.076987 0.261170
H112  H     H_    0.256980 0.089933 0.018447 0.087356
H113  H     H_    0.146790 0.081615 0.002594 0.086055
H114  H     H_    0.239737 0.053924 0.200228 0.253019
H115  H     H_    0.262944 0.010013 0.122951 0.200388
H116  H     H_    0.347086 0.062219 0.210935 0.263193
H117  H     H_    0.088779 0.695871 0.448573 0.115658
H118  H     H_    0.633560 0.339904 0.843702 0.125098
H119  H     H_    0.024260 0.710009 0.504906 0.028436
H120  H     H_    0.886654 0.741605 0.319214 0.255167
H121  H     H_    0.992564 0.781640 0.374965 0.190669
H122  H     H_    0.957017 0.731949 0.269573 0.252511
H123  H     H_    0.073016 0.672335 0.716861 0.104814
H124  H     H_    0.147619 0.666042 0.671585 0.053353
H125  H     H_    0.260535 0.609587 0.831239 0.234948
H126  H     H_    0.239395 0.672691 0.875235 0.230089
H127  H     H_    0.185487 0.609636 0.875605 0.270657
H128  H     H_    0.588661 0.195872 0.448410 0.115793
N1    N     N_R   0.892620 0.603790 0.941770 -0.078075
N2    N     N_R   0.973690 0.529110 0.793240 -0.095004
N3    N     N_R   0.526310 0.029110 0.206760 -0.094540
N4    N     N_R   0.473690 0.029110 0.793240 -0.095004
N5    N     N_R   0.818570 0.472310 0.793020 -0.038767
N6    N     N_R   0.181430 0.472310 0.206980 -0.037312
N7    N     N_R   0.318570 0.972310 0.793020 -0.038769
N8    N     N_R   0.681430 0.972310 0.206980 -0.037306
N9    N     N_R   0.026930 0.472300 0.207330 -0.062399
N10   N     N_R   0.973070 0.472300 0.792670 -0.065836
N11   N     N_R   0.526930 0.972300 0.207330 -0.062393
N12   N     N_R   0.107380 0.603790 0.058230 -0.073414
N13   N     N_R   0.473070 0.972300 0.792670 -0.065835
N14   N     N_R   0.817960 0.529130 0.792460 -0.053757
N15   N     N_R   0.182040 0.529130 0.207540 -0.048605
N16   N     N_R   0.317960 0.029130 0.792460 -0.053752
N17   N     N_R   0.682040 0.029130 0.207540 -0.048596
N18   N     N_R   0.894850 0.397640 0.943830 -0.037735
N19   N     N_R   0.105150 0.397640 0.056170 -0.042337
N20   N     N_R   0.394850 0.897640 0.943830 -0.037732
N21   N     N_R   0.605150 0.897640 0.056170 -0.042341
N22   N     N_R   0.950040 0.603780 0.055950 -0.063831
N23   N     N_R   0.392620 0.103790 0.941770 -0.078070
N24   N     N_R   0.049960 0.603780 0.944050 -0.047914
N25   N     N_R   0.450040 0.103780 0.055950 -0.063797
N26   N     N_R   0.549960 0.103780 0.944050 -0.047910
N27   N     N_R   0.607380 0.103790 0.058230 -0.073408
N28   N     N_R   0.952270 0.397640 0.058010 -0.040421
N29   N     N_R   0.047730 0.397640 0.941990 -0.041460
N30   N     N_R   0.452270 0.897640 0.058010 -0.040418
N31   N     N_R   0.547730 0.897640 0.941990 -0.041458
N32   N     N_R   0.026310 0.529110 0.206760 -0.094576
Ni1   Ni    Ni4+2 0.934160 0.565860 0.869070 0.216532
Ni2   Ni    Ni4+2 0.065840 0.565860 0.130930 0.225410
Ni3   Ni    Ni4+2 0.434160 0.065860 0.869070 0.216530
Ni4   Ni    Ni4+2 0.565840 0.065860 0.130930 0.225395
Ni5   Ni    Ni4+2 0.067260 0.435560 0.132230 0.202768
Ni6   Ni    Ni4+2 0.932740 0.435560 0.867770 0.202227
Ni7   Ni    Ni4+2 0.567260 0.935560 0.132230 0.202756
Ni8   Ni    Ni4+2 0.432740 0.935560 0.867770 0.202221
O1    O     O_2   0.754933 0.716249 0.768952 -0.592437
O2    O     O_3   0.077555 0.594900 0.662725 -0.621576
O3    O     O_3   0.471578 0.146227 0.391539 -0.596115
O4    O     O_3   0.577508 0.094908 0.662670 -0.621590
O5    O     O_3   0.099629 0.591289 0.354199 -0.645615
O6    O     O_3   0.906656 0.598191 0.656290 -0.670735
O7    O     O_3   0.599586 0.091295 0.354183 -0.645657
O8    O     O_3   0.406640 0.098190 0.656287 -0.670737
O9    O     O_2   0.162615 0.723635 0.212866 -0.600023
O10   O     O_2   0.254952 0.216262 0.768983 -0.592424
O11   O     O_2   0.662606 0.223635 0.212863 -0.600040
O12   O     O_3   0.324043 0.669668 0.111314 -0.621332
O13   O     O_3   0.731964 0.646019 0.102806 -0.593491
O14   O     O_3   0.824037 0.169673 0.111315 -0.621324
O15   O     O_3   0.231519 0.145958 0.102337 -0.593559
O16   O     O_3   0.971677 0.646226 0.391610 -0.595909

loop_
_geom_bond_atom_site_label_1
_geom_bond_atom_site_label_2
_ccdc_geom_bond_type
C11   N26   A    
C63   C65   S    
C55   C59   S    
C16   C75   A    
C107  C112  A    
C12   C91   S    
C126  O6    S    
C45   H30   S    
C42   H21   S    
C64   N23   A    
C103  H43   S    
C125  C130  A    
N19   Ni5   S    
C87   C91   A    
C71   C95   A    
C30   H117  S    
C17   O1    D    
C44   H28   S    
C32   H124  S    
C27   H111  S    
C110  C111  A    
C14   C90   S    
N7    Ni8   S    
C77   C88   A    
C70   C74   A    
C81   C86   A    
C50   H1    S    
C10   H84   S    
C69   C98   A    
C23   O13   S    
C20   O11   D    
N3    N11   A    
C101  C103  S    
C133  N8    A    
C21   C22   S    
C130  C134  A    
C55   C65   S    
C26   H108  S    
N8    N17   A    
C45   C47   S    
C78   C89   A    
C34   H3    S    
C56   H88   S    
C39   H14   S    
C102  H42   S    
C105  H49   S    
C40   H17   S    
C136  N11   A    
C103  H47   S    
C106  H46   S    
C98   C102  S    
C35   C60   S    
C43   C44   S    
C45   O8    S    
C37   C38   S    
C121  O16   S    
N11   Ni7   S    
C68   C72   A    
N18   N28   A    
C37   H7    S    
N25   Ni4   S    
N26   Ni3   S    
C13   C115  S    
C10   N25   A    
C60   C65   S    
C74   C79   A    
C19   O10   D    
C79   C85   A    
C22   H99   S    
C25   H104  S    
C49   C133  A    
C134  N9    A    
C59   C63   S    
C126  N2    A    
C51   H41   S    
C70   C105  S    
C47   H31   S    
C85   C90   A    
C57   C61   S    
C54   C61   S    
N21   Ni7   S    
C100  C106  S    
C33   H126  S    
C31   H121  S    
C36   H4    S    
C32   C33   S    
C109  C121  S    
N26   N27   A    
C11   H86   S    
C32   O2    S    
C29   H115  S    
C27   H109  S    
C118  C120  A    
C117  H53   S    
C41   H18   S    
C13   C127  A    
C83   N30   A    
C28   O15   S    
C71   C106  S    
C107  C122  S    
C26   H106  S    
C46   C139  A    
C53   N12   A    
C21   H97   S    
C138  H73   S    
C24   C114  S    
C135  N10   A    
C68   C103  S    
C123  C124  S    
C5    H79   S    
N5    N14   A    
C122  H61   S    
N23   N25   A    
C84   C119  A    
C7    H81   S    
C4    C86   A    
C54   H63   S    
C92   C96   A    
C55   H87   S    
N20   Ni8   S    
C67   H107  S    
C18   O9    D    
C31   H120  S    
C23   H101  S    
C110  C114  A    
N30   Ni7   S    
C66   C67   S    
C127  N3    A    
C128  N4    A    
C1    C12   A    
C140  N16   A    
N2    Ni1   S    
C84   H59   S    
C104  H48   S    
C113  C130  S    
C48   C140  A    
C137  H72   S    
N21   N31   A    
C28   H113  S    
C99   H38   S    
C39   C40   S    
C125  N32   A    
C30   O16   S    
C20   C75   S    
C58   H90   S    
C79   H13   S    
C48   C62   S    
C8    C12   A    
C135  H70   S    
C85   H34   S    
N24   Ni1   S    
C6    H80   S    
C5    C97   A    
C4    H78   S    
C113  C117  A    
C106  H50   S    
C39   O5    S    
C38   H11   S    
C112  C116  A    
C8    H82   S    
C42   H20   S    
N6    N15   A    
C76   C80   A    
C45   H29   S    
N5    Ni6   S    
C42   H22   S    
C24   C137  A    
C87   H35   S    
C1    C17   S    
C2    C135  A    
C88   H36   S    
C50   C60   S    
C101  H40   S    
C52   C62   S    
N1    Ni1   S    
C34   C36   S    
C63   H74   S    
C89   C93   A    
C91   C95   A    
C36   H5    S    
C14   C53   A    
C132  H67   S    
C24   C128  A    
C123  O3    S    
C100  O13   S    
C43   H23   S    
C58   C62   S    
N16   Ni3   S    
C41   C42   S    
C129  N5    A    
N23   Ni3   S    
N9    Ni5   S    
C133  H68   S    
C2    C112  S    
C26   C27   S    
C68   C96   A    
C28   C29   S    
C70   C94   A    
C81   N28   A    
C78   H2    S    
C71   C76   A    
N28   Ni5   S    
C83   C108  A    
C80   H24   S    
C75   N27   A    
C18   C53   S    
C110  C124  S    
C139  H75   S    
C15   C64   A    
C40   H15   S    
C69   C73   A    
C38   H9    S    
C84   N31   A    
C25   H103  S    
C137  N13   A    
C134  H69   S    
C96   C101  S    
C107  C109  A    
N3    Ni4   S    
N32   Ni2   S    
C90   C94   A    
C22   H100  S    
C43   H25   S    
C17   H91   S    
C120  H55   S    
C49   C61   S    
C111  C123  S    
C82   H57   S    
C95   C100  S    
N17   Ni4   S    
C132  N7    A    
C4    N18   A    
C56   C60   S    
C33   H125  S    
C5    N19   A    
C44   H27   S    
C32   H123  S    
C6    N20   A    
C9    C14   A    
C28   H112  S    
C121  H60   S    
C7    C119  A    
N9    N32   A    
C57   H89   S    
C11   C16   A    
C19   C64   S    
C138  N14   A    
C50   C51   S    
C29   H114  S    
C83   H58   S    
C127  O7    S    
C47   H33   S    
C131  N6    A    
N15   Ni2   S    
C104  H44   S    
C116  H51   S    
C124  H64   S    
C16   C92   S    
C82   C97   A    
N4    N13   A    
C3    N17   A    
N19   N29   A    
C37   O4    S    
C15   C93   S    
C9    N24   A    
C72   C86   S    
C80   C87   A    
C43   O7    S    
N12   Ni2   S    
C102  O15   S    
N2    N10   A    
C7    N21   A    
C21   H95   S    
C124  O4    S    
C37   H8    S    
C99   O12   S    
C118  H54   S    
C52   C57   S    
C74   C108  S    
C26   O14   S    
N1    N22   A    
C1    N1    A    
C101  O14   S    
C48   C132  A    
N6    Ni5   S    
C22   H98   S    
C25   H105  S    
C46   C59   S    
C47   H32   S    
C3    C49   A    
C82   N29   A    
C8    N22   A    
C73   C97   S    
N12   N24   A    
C62   C67   S    
C33   H127  S    
C31   H122  S    
C34   H128  S    
C27   H110  S    
N8    Ni7   S    
C10   C15   A    
C35   C138  A    
N31   Ni8   S    
C122  O2    S    
C129  H65   S    
C116  C117  A    
C51   C56   S    
C52   H52   S    
C29   H116  S    
C105  H45   S    
N14   Ni1   S    
C41   H19   S    
C61   C66   S    
C58   C66   S    
C88   C92   A    
C73   C78   A    
N22   Ni2   S    
C89   H37   S    
C35   C129  A    
C109  C113  A    
N10   Ni6   S    
N18   Ni6   S    
C57   C67   S    
C19   H93   S    
N4    Ni3   S    
C52   C54   S    
C99   C105  S    
C76   C119  S    
C65   H85   S    
C30   H119  S    
C125  O5    S    
C46   C131  A    
C128  O8    S    
C39   H12   S    
C66   H96   S    
C72   C77   A    
C136  H71   S    
C9    H83   S    
C30   C31   S    
C3    H77   S    
C121  C122  S    
C56   C63   S    
C44   H26   S    
C23   H102  S    
C102  C104  S    
N7    N16   A    
C114  C118  A    
C2    C126  A    
C36   H6    S    
C41   O6    S    
C20   H94   S    
C77   H118  S    
C13   C136  A    
C51   C59   S    
N29   Ni6   S    
C54   C58   S    
C69   C104  S    
C21   O12   S    
C6    C108  A    
C123  H62   S    
C50   C55   S    
C139  N15   A    
N13   Ni8   S    
C34   O3    S    
C18   H92   S    
C81   H56   S    
C131  H66   S    
C94   C99   S    
C23   C25   S    
C140  H76   S    
C115  C120  A    
N20   N30   A    
C40   H16   S    
C111  C115  A    
C100  H39   S    
C93   C98   A    
C38   H10   S    
N27   Ni4   S    
