data_mof_unit_32769.cif
_audit_creation_date              2012-12-10T19:04:48-0500
_audit_creation_method            fapswitch 2.2
_symmetry_space_group_name_H-M    P1
_symmetry_Int_Tables_number       1
_space_group_crystal_system       triclinic
_cell_length_a                    15.863601
_cell_length_b                    10.835378
_cell_length_c                    9.554126
_cell_angle_alpha                 90.208806
_cell_angle_beta                  90.014776
_cell_angle_gamma                 90.324582
_cell_volume                      1642.20337134

loop_
_atom_site_label
_atom_site_type_symbol
_atom_type_description
_atom_site_fract_x
_atom_site_fract_y
_atom_site_fract_z
_atom_type_partial_charge
C1    C     C_R   0.498256 0.262439 0.499806 0.811503
C2    C     C_3   0.082935 0.498005 0.499585 0.140212
C3    C     C_3   0.972174 0.611139 0.467724 -0.182588
C4    C     C_3   0.916883 0.497708 0.501527 0.043412
C5    C     C_3   0.027919 0.529166 0.371868 -0.167969
C6    C     C_3   0.971863 0.416584 0.407287 -0.003497
C7    C     C_1   0.174579 0.498662 0.499429 -0.019954
C8    C     C_1   0.825187 0.498536 0.500739 0.052385
C9    C     C_R   0.490801 0.063997 0.625381 0.066450
C10   C     C_R   0.490281 0.129411 0.499609 -0.097856
C11   C     C_R   0.479006 0.063912 0.373590 -0.155382
C12   C     C_R   0.339853 0.499787 0.499929 0.820810
C13   C     C_R   0.479783 0.935131 0.373636 -0.181288
C14   C     C_R   0.491588 0.870816 0.499797 -0.066117
C15   C     C_R   0.491260 0.937021 0.625209 0.086869
C16   C     C_3   0.548121 0.930543 0.749787 -0.549005
C17   C     C_3   0.547334 0.071864 0.751736 -0.091062
C18   C     C_R   0.573132 0.519202 0.073758 0.260649
C19   C     C_R   0.429521 0.469792 0.074046 -0.086127
C20   C     C_R   0.429423 0.470348 0.925625 -0.047410
C21   C     C_R   0.573168 0.517908 0.926224 0.330955
C22   C     C_3   0.629531 0.627889 0.917955 -0.560422
C23   C     C_R   0.499087 0.737694 0.500076 0.804206
C24   C     C_3   0.627876 0.632281 0.077109 -0.291628
C25   C     C_R   0.660093 0.499747 0.500083 0.839486
C26   C     C_3   0.972988 0.467017 0.627225 0.009833
C27   C     C_3   0.028354 0.383974 0.533465 -0.229081
C28   C     C_1   0.250138 0.499226 0.499695 -0.167717
C29   C     C_1   0.749694 0.499098 0.500338 -0.080612
C30   C     C_3   0.028994 0.580400 0.595273 -0.184599
Cu1   Cu    Cu3+1 0.500000 0.499980 0.640670 0.989018
Cu2   Cu    Cu3+1 0.500000 0.500020 0.359330 0.979588
H1    H     H_    0.372058 0.446118 0.128525 0.153216
H2    H     H_    0.691741 0.604593 0.871372 0.237384
H3    H     H_    0.948138 0.704125 0.440910 0.180803
H4    H     H_    0.473497 0.111573 0.274614 0.197640
H5    H     H_    0.474818 0.886712 0.274562 0.170309
N1    N     N_R   0.500530 0.500930 0.147930 -0.206637
N2    N     N_R   0.500530 0.500890 0.852020 -0.191652
O1    O     O_R   0.500000 0.319640 0.618810 -0.556636
O2    O     O_R   0.500010 0.319680 0.381230 -0.571531
O3    O     O_R   0.379070 0.499970 0.618770 -0.581650
O4    O     O_R   0.379080 0.500010 0.381190 -0.590800
O5    O     O_R   0.499990 0.680320 0.618770 -0.582913
O6    O     O_R   0.500000 0.680360 0.381190 -0.591897
O7    O     O_R   0.620920 0.499990 0.618810 -0.569964
O8    O     O_R   0.620930 0.500030 0.381230 -0.569254
H6    H     H_    0.052167 0.290807 0.560153 0.166119
H7    H     H_    0.610156 0.888988 0.723705 0.219097
C31   C     C_2   0.503276 0.123017 0.879767 0.884853
O9    O     O_2   0.537375 0.116099 0.994280 -0.581600
O10   O     O_R   0.423338 0.175775 0.868099 -0.762086
H8    H     H_    0.399958 0.203071 0.961899 0.318007
C32   C     C_2   0.632390 0.131621 0.722344 0.856953
O11   O     O_2   0.676247 0.093852 0.626086 -0.569925
O12   O     O_R   0.660085 0.231622 0.803553 -0.720708
H9    H     H_    0.716842 0.264710 0.772006 0.360075
H10   H     H_    0.371849 0.447248 0.870922 0.165799
H11   H     H_    0.597953 0.707497 0.868852 0.201338
C33   C     C_2   0.712872 0.610936 0.142441 0.936702
O13   O     O_2   0.742656 0.688780 0.221378 -0.594531
O14   O     O_R   0.757420 0.502830 0.113446 -0.747560
H12   H     H_    0.813564 0.499938 0.163971 0.336572
H13   H     H_    0.594569 0.714635 0.119220 0.167163
C34   C     C_2   0.944389 0.431918 0.771157 0.871205
O15   O     O_2   0.996762 0.410564 0.861562 -0.549335
O16   O     O_R   0.858434 0.423321 0.801368 -0.764000
H14   H     H_    0.847384 0.396876 0.901355 0.375072
C35   C     C_2   0.938704 0.324104 0.304031 0.838193
O17   O     O_2   0.956782 0.333302 0.180177 -0.558905
O18   O     O_R   0.887011 0.227823 0.350382 -0.729909
H15   H     H_    0.868083 0.171545 0.271268 0.356173
H16   H     H_    0.051716 0.554304 0.266421 0.175254
H17   H     H_    0.053643 0.647669 0.673307 0.157210
H18   H     H_    0.515504 0.887104 0.840299 0.193291

loop_
_geom_bond_atom_site_label_1
_geom_bond_atom_site_label_2
_ccdc_geom_bond_type
C27   H6    S    
C6    C35   S    
C23   O6    A    
Cu1   O3    S    
C18   C21   A    
Cu2   O6    S    
C2    C7    S    
C4    C8    S    
O12   H9    S    
C26   C27   S    
C12   C28   S    
C18   C24   S    
C8    C29   T    
C11   H4    S    
C12   O4    A    
C5    C6    S    
C30   H17   S    
C15   C16   S    
C16   H18   S    
Cu1   O1    S    
C33   O14   S    
C35   O18   S    
C12   O3    A    
C1    O1    A    
Cu1   Cu2   S    
C16   C17   S    
C34   O16   S    
Cu1   O7    S    
C31   O10   S    
Cu2   O2    S    
C2    C27   S    
Cu2   N1    S    
C9    C10   A    
C25   O8    A    
C13   H5    S    
C24   H13   S    
C13   C14   A    
C25   C29   S    
C22   H2    S    
C32   O12   S    
Cu1   O5    S    
O16   H14   S    
C16   H7    S    
C4    C6    S    
C19   H1    S    
C22   H11   S    
C20   N2    A    
C7    C28   T    
C33   O13   D    
C14   C23   S    
C3    C30   S    
O14   H12   S    
C19   N1    A    
C6    C27   S    
C21   N2    A    
C3    H3    S    
C24   C33   S    
C31   O9    D    
C1    O2    A    
C26   C30   S    
Cu2   O8    S    
C22   C24   S    
C2    C5    S    
C20   H10   S    
C3    C4    S    
O10   H8    S    
C9    C17   S    
C32   O11   D    
C9    C15   A    
C26   C34   S    
C1    C10   S    
C3    C5    S    
C17   C31   S    
C4    C26   S    
C2    C30   S    
C19   C20   A    
C18   N1    A    
O18   H15   S    
C11   C13   A    
C25   O7    A    
Cu2   O4    S    
Cu1   N2    S    
C5    H16   S    
C35   O17   D    
C10   C11   A    
C23   O5    A    
C34   O15   D    
C14   C15   A    
C21   C22   S    
C17   C32   S    
