data_mof_unit_44571.cif
_audit_creation_date              2012-10-26T18:54:53-0400
_audit_creation_method            fapswitch 2.2
_symmetry_space_group_name_H-M    P1
_symmetry_Int_Tables_number       1
_space_group_crystal_system       monoclinic
_cell_length_a                    10.834095
_cell_length_b                    9.515975
_cell_length_c                    10.863316
_cell_angle_alpha                 90.0
_cell_angle_beta                  90.156472
_cell_angle_gamma                 90.0
_cell_volume                      1119.97086518

loop_
_atom_site_label
_atom_site_type_symbol
_atom_type_description
_atom_site_fract_x
_atom_site_fract_y
_atom_site_fract_z
_atom_type_partial_charge
C1    C     C_R   0.262053 0.499962 0.499910 0.550290
C2    C     C_R   0.500131 0.621436 0.938034 0.020601
C3    C     C_R   0.499823 0.498160 0.130041 0.009762
C4    C     C_R   0.500176 0.498160 0.869959 0.009762
C5    C     C_R   0.499903 0.369959 0.064557 -0.162876
C6    C     C_R   0.500097 0.369959 0.935443 -0.162876
C7    C     C_3   0.500184 0.777665 0.929094 -0.268568
C8    C     C_3   0.499816 0.777665 0.070906 -0.268568
C9    C     C_R   0.063847 0.372271 0.499933 -0.140131
C10   C     C_R   0.936153 0.372271 0.500067 -0.140131
C11   C     C_R   0.871788 0.499975 0.500103 0.020508
C12   C     C_R   0.737947 0.499962 0.500089 0.550290
C13   C     C_R   0.128212 0.499975 0.499897 0.020508
C14   C     C_R   0.936150 0.627683 0.500067 -0.140780
C15   C     C_R   0.063850 0.627683 0.499933 -0.140780
C16   C     C_R   0.424984 0.074424 0.421744 0.007288
C17   C     C_R   0.575016 0.074424 0.578256 0.007288
C18   C     C_R   0.424981 0.925568 0.421748 0.007080
C19   C     C_R   0.575019 0.925568 0.578252 0.007080
C20   C     C_R   0.499860 0.499869 0.262611 0.553165
C21   C     C_R   0.500140 0.499869 0.737389 0.553165
C22   C     C_R   0.499868 0.621436 0.061966 0.020601
Cu1   Cu    Cu3+1 0.500000 0.640660 0.500000 0.932633
Cu2   Cu    Cu3+1 0.500000 0.359340 0.500000 0.931102
H1    H     H_    0.499831 0.270032 0.112301 0.133261
H2    H     H_    0.111878 0.727528 0.499869 0.126899
H3    H     H_    0.364849 0.869439 0.359121 0.103472
H4    H     H_    0.635151 0.869439 0.640879 0.103472
H5    H     H_    0.364865 0.130537 0.359089 0.105054
H6    H     H_    0.635135 0.130537 0.640911 0.105054
H7    H     H_    0.500169 0.270032 0.887699 0.133261
H8    H     H_    0.587056 0.818958 0.888638 0.128681
H9    H     H_    0.412944 0.818958 0.111362 0.128681
H10   H     H_    0.413567 0.819012 0.887672 0.142849
H11   H     H_    0.586434 0.819011 0.112328 0.142849
H12   H     H_    0.111870 0.272423 0.499869 0.127221
H13   H     H_    0.888130 0.272423 0.500131 0.127221
H14   H     H_    0.888122 0.727528 0.500131 0.126899
N1    N     N_R   0.500000 0.852070 0.500000 -0.224183
N2    N     N_R   0.500000 0.147940 0.500000 -0.223882
O1    O     O_R   0.319640 0.618740 0.499990 -0.509621
O2    O     O_R   0.680360 0.618740 0.500010 -0.509621
O3    O     O_R   0.319620 0.381170 0.499990 -0.508556
O4    O     O_R   0.680380 0.381170 0.500010 -0.508556
O5    O     O_R   0.499990 0.618810 0.319660 -0.502327
O6    O     O_R   0.500010 0.618810 0.680340 -0.502327
O7    O     O_R   0.499960 0.381240 0.319650 -0.511107
O8    O     O_R   0.500040 0.381240 0.680350 -0.511107

loop_
_geom_bond_atom_site_label_1
_geom_bond_atom_site_label_2
_ccdc_geom_bond_type
C2    C22   A    
C9    H12   S    
C8    C22   S    
C11   C12   S    
C4    C21   S    
C14   H14   S    
C9    C10   A    
C8    H11   S    
C2    C4    A    
C20   O5    A    
Cu1   O1    S    
C18   N1    A    
C21   O8    A    
C6    H7    S    
C7    C8    S    
C12   O4    A    
Cu1   O6    S    
C17   H6    S    
Cu1   O2    S    
C19   N1    A    
Cu1   O5    S    
C16   N2    A    
C10   H13   S    
C5    H1    S    
C4    C6    A    
C17   C19   A    
C8    H9    S    
C13   C15   A    
C19   H4    S    
C5    C6    A    
Cu2   O4    S    
C11   C14   A    
Cu1   N1    S    
C20   O7    A    
C1    C13   S    
C10   C11   A    
Cu1   Cu2   S    
Cu2   O8    S    
C3    C5    A    
C3    C20   S    
C7    H10   S    
C16   C18   A    
C21   O6    A    
C1    O1    A    
Cu2   O3    S    
C9    C13   A    
C14   C15   A    
C15   H2    S    
C12   O2    A    
C7    H8    S    
Cu2   N2    S    
C16   H5    S    
Cu2   O7    S    
C1    O3    A    
C18   H3    S    
C2    C7    S    
C3    C22   A    
C17   N2    A    
