data_mof_unit_8532.cif
_audit_creation_date              2012-12-10T18:46:13-0500
_audit_creation_method            fapswitch 2.2
_symmetry_space_group_name_H-M    P1
_symmetry_Int_Tables_number       1
_space_group_crystal_system       triclinic
_cell_length_a                    9.86695
_cell_length_b                    10.714094
_cell_length_c                    12.927056
_cell_angle_alpha                 90.024998
_cell_angle_beta                  71.431225
_cell_angle_gamma                 90.048836
_cell_volume                      1295.44701642

loop_
_atom_site_label
_atom_site_type_symbol
_atom_type_description
_atom_site_fract_x
_atom_site_fract_y
_atom_site_fract_z
_atom_type_partial_charge
C1    C     C_R   0.500039 0.740054 0.500112 0.887485
C2    C     C_R   0.447296 0.617471 0.975001 -0.061940
C3    C     C_R   0.486442 0.611951 0.860753 -0.092439
C4    C     C_R   0.555420 0.597402 0.023261 0.081591
C5    C     C_R   0.700671 0.593517 0.956753 -0.048588
C6    C     C_R   0.736433 0.633446 0.847897 0.037614
C7    C     C_R   0.628549 0.643534 0.800351 0.616553
C8    C     C_R   0.521344 0.567322 0.133268 -0.235405
C9    C     C_R   0.766152 0.504875 0.107712 0.212895
C10   C     C_R   0.381920 0.574236 0.813002 -0.173847
C11   C     C_R   0.629598 0.936141 0.478699 -0.133194
C12   C     C_R   0.423625 0.520852 0.701968 0.941254
C13   C     C_R   0.629547 0.063999 0.478593 -0.180779
C14   C     C_R   0.499741 0.127441 0.500635 -0.024794
C15   C     C_R   0.369922 0.063789 0.523192 -0.177335
C16   C     C_R   0.369972 0.935902 0.523285 -0.176854
C17   C     C_R   0.499858 0.872500 0.500769 -0.016998
C18   C     C_R   0.902395 0.416006 0.561577 -0.038020
C19   C     C_R   0.046166 0.415910 0.561447 -0.053509
C20   C     C_R   0.097688 0.583665 0.438134 -0.048047
C21   C     C_R   0.953970 0.583629 0.438147 0.016512
C22   C     C_R   0.499853 0.259945 0.500189 0.877992
C23   C     C_R   0.578526 0.500588 0.294761 0.891818
C24   C     C_R   0.804039 0.545129 0.999311 -0.069978
C25   C     C_R   0.624713 0.522372 0.176704 -0.147353
C26   C     C_R   0.237222 0.585886 0.874517 -0.275710
C27   C     C_R   0.198657 0.627578 0.982204 0.714416
C28   C     C_R   0.301591 0.635616 0.034640 -0.221914
H1    H     H_    0.730702 0.112764 0.460483 0.166391
H2    H     H_    0.268770 0.112420 0.541279 0.160305
H3    H     H_    0.268836 0.887082 0.541421 0.177606
H4    H     H_    0.827427 0.349042 0.611137 0.127133
H5    H     H_    0.079748 0.348908 0.610930 0.129180
H6    H     H_    0.172645 0.650649 0.388566 0.122821
H7    H     H_    0.920404 0.650541 0.388572 0.133088
H8    H     H_    0.912189 0.530259 0.946742 0.185428
H9    H     H_    0.412073 0.573115 0.185640 0.168617
H10   H     H_    0.155092 0.564291 0.838823 0.187723
H11   H     H_    0.265755 0.659600 0.120232 0.150423
H12   H     H_    0.730765 0.887535 0.460663 0.168948
N1    N     N_R   0.142790 0.500030 0.500030 -0.076733
N2    N     N_R   0.857180 0.499940 0.500010 -0.064069
O1    O     O_R   0.385370 0.683250 0.500010 -0.633833
O2    O     O_R   0.614700 0.683220 0.500010 -0.573544
O3    O     O_R   0.328400 0.499990 0.653620 -0.614386
O4    O     O_R   0.557730 0.499960 0.653620 -0.574912
O5    O     O_R   0.385300 0.316780 0.499990 -0.624502
O6    O     O_R   0.614630 0.316750 0.499990 -0.626064
O7    O     O_R   0.442270 0.500040 0.346380 -0.622005
O8    O     O_R   0.671600 0.500010 0.346380 -0.587055
Zn1   Zn    Zn3+2 0.346870 0.500020 0.500000 0.964192
Zn2   Zn    Zn3+2 0.653130 0.499980 0.500000 1.016347
I1    I     I_    0.922702 0.404767 0.155852 -0.331663
I2    I     I_    0.946957 0.685361 0.752625 -0.323531
F1    F     F_    0.061155 0.656701 0.037291 -0.670871
F2    F     F_    0.660602 0.693674 0.699007 -0.636459

loop_
_geom_bond_atom_site_label_1
_geom_bond_atom_site_label_2
_ccdc_geom_bond_type
O2    Zn2   S    
C22   O6    A    
C9    C24   A    
C6    C7    A    
C21   H7    S    
O5    Zn1   S    
C1    O2    A    
O8    Zn2   S    
C4    C8    A    
C20   H6    S    
C10   C26   A    
C11   H12   S    
C18   N2    A    
C2    C3    A    
C9    C25   A    
C3    C10   A    
C13   C14   A    
C16   H3    S    
C8    C25   A    
C11   C13   A    
O1    Zn1   S    
C26   C27   A    
C24   H8    S    
C5    C24   A    
C10   C12   S    
C7    F2    S    
C6    I2    S    
C5    C6    A    
C2    C4    A    
C13   H1    S    
N1    Zn1   S    
C20   N1    A    
C3    C7    A    
C23   C25   S    
C14   C22   S    
C22   O5    A    
C23   O7    A    
C9    I1    S    
C8    H9    S    
C27   F1    S    
C15   C16   A    
O4    Zn2   S    
O6    Zn2   S    
C18   H4    S    
C20   C21   A    
C15   H2    S    
C12   O4    A    
C18   C19   A    
C19   H5    S    
C19   N1    A    
C27   C28   A    
C12   O3    A    
O3    Zn1   S    
C14   C15   A    
C26   H10   S    
C23   O8    A    
C2    C28   A    
C28   H11   S    
C4    C5    A    
C1    C17   S    
C1    O1    A    
C11   C17   A    
C21   N2    A    
N2    Zn2   S    
C16   C17   A    
O7    Zn1   S    
