data_mof_unit_47247.cif
_audit_creation_date              2012-12-10T16:58:29-0500
_audit_creation_method            fapswitch 2.2
_symmetry_space_group_name_H-M    P1
_symmetry_Int_Tables_number       1
_space_group_crystal_system       triclinic
_cell_length_a                    15.84437
_cell_length_b                    11.027262
_cell_length_c                    9.755292
_cell_angle_alpha                 88.812876
_cell_angle_beta                  92.62883
_cell_angle_gamma                 90.619161
_cell_volume                      1702.20273706

loop_
_atom_site_label
_atom_site_type_symbol
_atom_type_description
_atom_site_fract_x
_atom_site_fract_y
_atom_site_fract_z
_atom_type_partial_charge
C1    C     C_R   0.497428 0.265388 0.501453 0.791414
C2    C     C_3   0.083833 0.509786 0.500070 -0.195091
C3    C     C_3   0.974134 0.615407 0.551968 0.294813
C4    C     C_3   0.916953 0.505437 0.517212 -0.129310
C5    C     C_3   0.021295 0.596050 0.419300 0.252358
C6    C     C_3   0.964590 0.485876 0.384477 0.244873
C7    C     C_1   0.174935 0.506516 0.489509 0.065179
C8    C     C_1   0.825299 0.502991 0.516948 0.142287
C9    C     C_2   0.484045 0.935635 0.405568 0.082837
C10   C     C_2   0.527423 0.860498 0.493754 0.011628
C11   C     C_2   0.505667 0.065867 0.398265 0.312973
C12   C     C_R   0.340032 0.500441 0.496977 0.833915
C13   C     C_2   0.484770 0.133307 0.505332 0.176870
C14   C     C_2   0.438726 0.453824 0.918395 0.668867
C15   C     C_2   0.432336 0.494290 0.068264 0.251193
C16   C     C_R   0.504599 0.733336 0.498713 0.881637
C17   C     C_R   0.659989 0.500151 0.503051 0.798304
C18   C     C_3   0.978521 0.420634 0.599182 0.289689
C19   C     C_3   0.024901 0.399561 0.465936 0.258769
C20   C     C_1   0.250408 0.503361 0.489925 -0.189980
C21   C     C_1   0.749698 0.501414 0.511097 -0.168836
C22   C     C_3   0.035999 0.530981 0.633799 0.237758
Cu1   Cu    Cu3+1 0.500020 0.500020 0.638630 0.997974
Cu2   Cu    Cu3+1 0.499980 0.499980 0.361370 0.958099
N1    N     N_2   0.499090 0.498660 0.846910 -0.054551
N2    N     N_2   0.499070 0.498630 0.153040 -0.128514
O1    O     O_R   0.500010 0.321960 0.617040 -0.583535
O2    O     O_R   0.499990 0.321920 0.382900 -0.553352
O3    O     O_R   0.379090 0.500010 0.617050 -0.534102
O4    O     O_R   0.379060 0.499970 0.382910 -0.599515
O5    O     O_R   0.500010 0.678080 0.617100 -0.585543
O6    O     O_R   0.499990 0.678040 0.382960 -0.570143
O7    O     O_R   0.620940 0.500030 0.617090 -0.620608
O8    O     O_R   0.620910 0.499990 0.382950 -0.581714
O9    O     O_3   0.056389 0.289479 0.418827 -0.573102
C23   C     C_3   0.989047 0.206592 0.394827 0.075189
H1    H     H_    0.935662 0.247187 0.332662 0.180124
H2    H     H_    0.964547 0.172433 0.493197 0.173965
C24   C     C_3   0.020551 0.099924 0.316232 -0.834657
H3    H     H_    0.068859 0.049295 0.379829 0.261737
H4    H     H_    0.966643 0.038491 0.289878 0.201843
H5    H     H_    0.048571 0.132426 0.219660 0.253240
O10   O     O_3   0.438144 0.079324 0.608731 -0.592618
C25   C     C_3   0.481407 0.086254 0.738536 0.076973
H6    H     H_    0.463422 0.170057 0.790333 0.219491
H7    H     H_    0.551445 0.085251 0.732285 0.113995
C26   C     C_3   0.454756 0.979127 0.828444 -0.788537
H8    H     H_    0.468287 0.892129 0.779306 0.268893
H9    H     H_    0.489609 0.982112 0.929588 0.201304
H10   H     H_    0.386007 0.982468 0.844850 0.244152
O11   O     O_3   0.384107 0.370269 0.853765 -0.597991
C27   C     C_3   0.316465 0.331997 0.933509 -0.023093
H11   H     H_    0.274391 0.409137 0.951815 0.172587
H12   H     H_    0.339995 0.288896 0.031980 0.153930
C28   C     C_3   0.263065 0.239477 0.853854 -0.764920
H13   H     H_    0.301712 0.159930 0.830815 0.261909
H14   H     H_    0.209339 0.208700 0.915481 0.191978
H15   H     H_    0.237675 0.280817 0.755819 0.247520
O12   O     O_3   0.527862 0.606082 0.897448 -0.520504
C29   C     C_3   0.614679 0.619720 0.875106 0.233199
H16   H     H_    0.624046 0.659245 0.771936 0.187109
H17   H     H_    0.649233 0.532534 0.888983 0.137950
C30   C     C_3   0.652873 0.711544 0.975506 -0.897464
H18   H     H_    0.722003 0.719796 0.962646 0.214721
H19   H     H_    0.623746 0.801774 0.955321 0.243155
H20   H     H_    0.641799 0.683477 0.083038 0.263842
N3    N     N_3   0.356103 0.553031 0.102627 -0.645299
H21   H     H_    0.319718 0.492455 0.159088 0.223519
H22   H     H_    0.371058 0.629545 0.160822 0.271046
N4    N     N_3   0.567222 0.433139 0.109126 -0.530960
H23   H     H_    0.622339 0.481491 0.134865 0.249041
H24   H     H_    0.569851 0.351489 0.164845 0.279194
O13   O     O_3   0.949607 0.332397 0.693521 -0.571017
C31   C     C_3   0.018978 0.271373 0.758520 0.084242
H25   H     H_    0.064039 0.334969 0.810790 0.182501
H26   H     H_    0.053671 0.219084 0.683381 0.165072
C32   C     C_3   0.986865 0.183675 0.867311 -0.850965
H27   H     H_    0.934881 0.126607 0.823102 0.264672
H28   H     H_    0.039053 0.124598 0.907549 0.204169
H29   H     H_    0.962242 0.234212 0.953646 0.248374
O14   O     O_3   0.917278 0.465445 0.260936 -0.592449
C33   C     C_3   0.970741 0.455379 0.150380 0.065095
H30   H     H_    0.997832 0.363006 0.149842 0.164324
H31   H     H_    0.023583 0.522446 0.153114 0.196592
C34   C     C_3   0.918193 0.477149 0.017996 -0.746068
H32   H     H_    0.892034 0.570251 0.015575 0.244586
H33   H     H_    0.957992 0.467159 0.928940 0.277332
H34   H     H_    0.865221 0.410483 0.010282 0.247954
O15   O     O_3   0.048807 0.685551 0.325362 -0.578539
C35   C     C_3   0.979426 0.754946 0.273997 0.108209
H35   H     H_    0.966543 0.827339 0.346971 0.171879
H36   H     H_    0.920581 0.700221 0.256551 0.180775
C36   C     C_3   0.000771 0.813748 0.137328 -0.846602
H37   H     H_    0.008621 0.742766 0.060110 0.258339
H38   H     H_    0.948739 0.874430 0.100179 0.207011
H39   H     H_    0.060097 0.867858 0.149066 0.262599
O16   O     O_3   0.938401 0.724105 0.594455 -0.567900
C37   C     C_3   0.002684 0.805990 0.637054 0.096882
H40   H     H_    0.055806 0.809666 0.565992 0.152617
H41   H     H_    0.027115 0.781168 0.742197 0.192625
C38   C     C_3   0.965412 0.931724 0.641660 -0.840948
H42   H     H_    0.916953 0.933194 0.720272 0.255970
H43   H     H_    0.016360 0.998214 0.667690 0.211973
H44   H     H_    0.935187 0.956905 0.540404 0.248444
O17   O     O_3   0.063989 0.555986 0.770330 -0.596310
C39   C     C_3   0.149458 0.592307 0.777585 0.031404
H45   H     H_    0.162638 0.664774 0.700017 0.147150
H46   H     H_    0.190215 0.512584 0.763696 0.174499
C40   C     C_3   0.171401 0.642921 0.918652 -0.786613
H47   H     H_    0.239549 0.667424 0.926541 0.232620
H48   H     H_    0.134233 0.725757 0.934229 0.238198
H49   H     H_    0.157648 0.574313 0.999808 0.252056
N5    N     N_3   0.410136 0.893365 0.329051 -0.593190
H50   H     H_    0.358498 0.942809 0.359406 0.237118
H51   H     H_    0.417660 0.913151 0.225112 0.219622
N6    N     N_3   0.604800 0.895120 0.567677 -0.638488
H52   H     H_    0.596504 0.883673 0.672678 0.225771
H53   H     H_    0.622826 0.985052 0.549648 0.206219
O18   O     O_3   0.543312 0.119567 0.284908 -0.596523
C41   C     C_3   0.594557 0.037606 0.217424 0.067805
H54   H     H_    0.555601 0.965649 0.166571 0.154719
H55   H     H_    0.642138 0.995408 0.290710 0.158301
C42   C     C_3   0.641621 0.105957 0.106928 -0.823988
H56   H     H_    0.682888 0.177273 0.154123 0.251925
H57   H     H_    0.681394 0.042068 0.052265 0.206557
H58   H     H_    0.595915 0.149018 0.031564 0.244288

loop_
_geom_bond_atom_site_label_1
_geom_bond_atom_site_label_2
_ccdc_geom_bond_type
C28   H13   S    
C30   H19   S    
C36   H37   S    
C12   O3    A    
C11   C13   D    
O13   C31   S    
O9    C23   S    
C4    C8    S    
C11   O18   S    
O16   C37   S    
C42   H56   S    
C26   H9    S    
C32   H27   S    
C41   H54   S    
C16   O5    A    
C6    C19   S    
C38   H42   S    
C31   H26   S    
C29   C30   S    
Cu1   O3    S    
C23   H1    S    
C27   C28   S    
Cu2   N2    S    
C40   H48   S    
C5    C6    S    
C42   H57   S    
C39   H45   S    
C37   H40   S    
N6    H52   S    
C29   H17   S    
C18   C19   S    
C2    C7    S    
C14   O11   S    
C25   H7    S    
Cu1   O7    S    
C31   C32   S    
C2    C22   S    
C1    O2    A    
Cu1   Cu2   S    
N4    H23   S    
Cu1   O1    S    
C24   H5    S    
C9    C10   D    
C25   C26   S    
C4    C18   S    
C32   H28   S    
C30   H20   S    
O12   C29   S    
C38   H43   S    
C6    O14   S    
C17   O7    A    
C27   H12   S    
O14   C33   S    
C26   H10   S    
Cu2   O4    S    
C34   H33   S    
C31   H25   S    
N3    H21   S    
C4    C6    S    
C40   H49   S    
C24   H3    S    
C42   H58   S    
C3    C5    S    
C34   H32   S    
C17   C21   S    
O11   C27   S    
C29   H16   S    
N3    H22   S    
Cu1   O5    S    
O10   C25   S    
Cu2   O6    S    
C3    O16   S    
C35   H36   S    
C26   H8    S    
C15   N3    S    
C12   C20   S    
C8    C21   T    
C27   H11   S    
C9    C11   S    
C36   H39   S    
C33   H30   S    
C18   O13   S    
C33   H31   S    
C28   H14   S    
N2    N4    S    
C2    C5    S    
C1    C13   S    
C17   O8    A    
C3    C4    S    
C37   C38   S    
C13   O10   S    
C10   N6    S    
C25   H6    S    
C41   H55   S    
C35   C36   S    
N5    H50   S    
C34   H34   S    
C12   O4    A    
C2    C19   S    
C18   C22   S    
C23   C24   S    
Cu2   O2    S    
C15   N2    D    
N4    H24   S    
O18   C41   S    
C41   C42   S    
C16   O6    A    
C33   C34   S    
O17   C39   S    
C37   H41   S    
C9    N5    S    
C23   H2    S    
C10   C16   S    
C40   H47   S    
C32   H29   S    
C35   H35   S    
C39   H46   S    
N6    H53   S    
Cu1   N1    S    
C22   O17   S    
Cu2   O8    S    
C30   H18   S    
C14   N1    D    
C24   H4    S    
C36   H38   S    
C7    C20   T    
C28   H15   S    
C1    O1    A    
C14   C15   S    
C3    C22   S    
C19   O9    S    
C38   H44   S    
N1    O12   S    
O15   C35   S    
C5    O15   S    
N5    H51   S    
C39   C40   S    
