data_mof_unit_63604.cif
_audit_creation_date              2012-12-10T17:08:06-0500
_audit_creation_method            fapswitch 2.2
_symmetry_space_group_name_H-M    P1
_symmetry_Int_Tables_number       1
_space_group_crystal_system       triclinic
_cell_length_a                    30.242155
_cell_length_b                    30.242238
_cell_length_c                    29.361539
_cell_angle_alpha                 90.000661
_cell_angle_beta                  90.000619
_cell_angle_gamma                 90.0
_cell_volume                      26853.7831382

loop_
_atom_site_label
_atom_site_type_symbol
_atom_type_description
_atom_site_fract_x
_atom_site_fract_y
_atom_site_fract_z
_atom_type_partial_charge
C1    C     C_R   0.500000 0.914640 1.000000 0.885207
C2    C     C_R   0.085360 0.500000 1.000000 0.885202
C3    C     C_R   0.500000 0.085360 0.000000 0.885205
C4    C     C_R   0.914640 0.500000 0.000000 0.885219
C5    C     C_R   0.000000 0.414640 0.500000 0.885191
C6    C     C_R   0.585360 1.000000 0.500000 0.885198
C7    C     C_R   0.000000 0.585360 0.500000 0.885215
C8    C     C_R   0.414639 0.000000 0.500000 0.885221
C9    C     C_R   0.528775 0.727504 0.078017 0.200188
C10   C     C_R   0.272498 0.528826 0.077996 0.200184
C11   C     C_R   0.471231 0.272498 0.078018 0.200192
C12   C     C_R   0.727501 0.470945 0.077905 0.200166
C13   C     C_R   0.471225 0.727502 0.921984 0.200193
C14   C     C_R   0.727499 0.529049 0.922092 0.200166
C15   C     C_R   0.528775 0.272496 0.921984 0.200187
C16   C     C_R   0.272496 0.471175 0.922003 0.200183
C17   C     C_R   0.028757 0.227505 0.578024 0.200198
C18   C     C_R   0.772500 0.028946 0.577949 0.200186
C19   C     C_R   0.970917 0.772502 0.577894 0.200181
C20   C     C_R   0.227498 0.970724 0.577818 0.200156
C21   C     C_R   0.971250 0.227502 0.421974 0.200205
C22   C     C_R   0.227496 0.029279 0.422184 0.200161
C23   C     C_R   0.029083 0.772499 0.422105 0.200174
C24   C     C_R   0.772498 0.971050 0.422052 0.200180
C25   C     C_R   0.530182 0.773910 0.077574 0.285030
C26   C     C_R   0.226092 0.530234 0.077552 0.285026
C27   C     C_R   0.469824 0.226092 0.077575 0.285022
C28   C     C_R   0.773906 0.469533 0.077455 0.285024
C29   C     C_R   0.469817 0.773908 0.922427 0.285024
C30   C     C_R   0.773905 0.530462 0.922543 0.285022
C31   C     C_R   0.530181 0.226090 0.922426 0.285027
C32   C     C_R   0.226091 0.469766 0.922448 0.285028
C33   C     C_R   0.030162 0.273910 0.577581 0.285036
C34   C     C_R   0.726094 0.030357 0.577501 0.285028
C35   C     C_R   0.969504 0.726096 0.577442 0.285026
C36   C     C_R   0.273903 0.969308 0.577361 0.285030
C37   C     C_R   0.969843 0.273908 0.422416 0.285029
C38   C     C_R   0.273902 0.030694 0.422641 0.285024
C39   C     C_R   0.030496 0.726094 0.422557 0.285033
C40   C     C_R   0.726092 0.969640 0.422500 0.285035
C41   C     C_R   0.512242 0.797620 0.040178 -0.040533
C42   C     C_R   0.202381 0.512269 0.040169 -0.040543
C43   C     C_R   0.487762 0.202381 0.040179 -0.040538
C44   C     C_R   0.797618 0.487608 0.040129 -0.040553
C45   C     C_R   0.487758 0.797619 0.959823 -0.040537
C46   C     C_R   0.797617 0.512389 0.959870 -0.040558
C47   C     C_R   0.512241 0.202380 0.959822 -0.040534
C48   C     C_R   0.202380 0.487731 0.959831 -0.040537
C49   C     C_R   0.012231 0.297620 0.540181 -0.040530
C50   C     C_R   0.702382 0.012333 0.540148 -0.040544
C51   C     C_R   0.987592 0.702384 0.540123 -0.040555
C52   C     C_R   0.297616 0.987489 0.540090 -0.040569
C53   C     C_R   0.987772 0.297619 0.459817 -0.040532
C54   C     C_R   0.297615 0.012512 0.459911 -0.040568
C55   C     C_R   0.012407 0.702383 0.459876 -0.040553
C56   C     C_R   0.702381 0.987664 0.459852 -0.040546
C57   C     C_R   0.500000 0.774309 0.000000 -0.095923
C58   C     C_R   0.225692 0.500000 1.000000 -0.095929
C59   C     C_R   0.500002 0.225691 0.000000 -0.095922
C60   C     C_R   0.774306 0.499998 0.999999 -0.095938
C61   C     C_R   0.000002 0.274309 0.499999 -0.095916
C62   C     C_R   0.725693 0.999999 0.500000 -0.095929
C63   C     C_R   1.000000 0.725694 0.500000 -0.095930
C64   C     C_R   0.274304 0.000001 0.500001 -0.095944
C65   C     C_R   0.505939 0.843870 0.041071 0.221304
C66   C     C_R   0.156132 0.505968 0.041066 0.221311
C67   C     C_R   0.494064 0.156131 0.041072 0.221302
C68   C     C_R   0.843868 0.493903 0.041046 0.221364
C69   C     C_R   0.494060 0.843868 0.958929 0.221302
C70   C     C_R   0.843867 0.506095 0.958953 0.221361
C71   C     C_R   0.505937 0.156131 0.958929 0.221304
C72   C     C_R   0.156131 0.494032 0.958933 0.221314
C73   C     C_R   0.005927 0.343869 0.541073 0.221303
C74   C     C_R   0.656132 0.006036 0.541056 0.221346
C75   C     C_R   0.993886 0.656134 0.541044 0.221376
C76   C     C_R   0.343866 0.993777 0.541027 0.221414
C77   C     C_R   0.994075 0.343869 0.458926 0.221304
C78   C     C_R   0.343865 0.006224 0.458974 0.221418
C79   C     C_R   0.006113 0.656132 0.458956 0.221376
C80   C     C_R   0.656131 0.993962 0.458944 0.221342
C81   C     C_R   0.500000 0.866578 0.000000 -0.174515
C82   C     C_R   0.133422 0.500000 1.000000 -0.174524
C83   C     C_R   0.500000 0.133422 0.000000 -0.174514
C84   C     C_R   0.866576 0.500000 1.000000 -0.174571
C85   C     C_R   0.000000 0.366578 0.500000 -0.174508
C86   C     C_R   0.633423 1.000000 0.500000 -0.174547
C87   C     C_R   1.000000 0.633424 0.500000 -0.174579
C88   C     C_R   0.366575 0.000000 0.500000 -0.174617
C89   C     C_R   0.413368 0.500000 1.000000 0.833348
C90   C     C_R   0.500000 0.413368 1.000000 0.833346
C91   C     C_R   0.586631 0.500000 0.000000 0.833322
C92   C     C_R   0.500000 0.586632 0.000000 0.833343
C93   C     C_R   0.913368 1.000000 0.500000 0.833330
C94   C     C_R   0.000000 0.913369 0.500000 0.833306
C95   C     C_R   0.086631 0.000000 0.500000 0.833292
C96   C     C_R   0.000000 0.086632 0.500000 0.833341
C97   C     C_R   0.500000 0.000000 0.084615 0.832842
C98   C     C_R   0.000000 0.500000 0.084615 0.832845
C99   C     C_R   0.500000 0.000000 0.915385 0.832841
C100  C     C_R   0.000000 0.500000 0.915385 0.832847
C101  C     C_R   0.000000 0.500000 0.584615 0.832838
C102  C     C_R   0.500000 0.000000 0.584615 0.832846
C103  C     C_R   1.000000 0.500000 0.415385 0.832840
C104  C     C_R   0.500000 1.000000 0.415385 0.832845
C105  C     C_1   0.500001 0.000000 0.135888 -0.060552
C106  C     C_1   0.000000 0.500000 0.135888 -0.060546
C107  C     C_1   0.499999 0.000000 0.864111 -0.060553
C108  C     C_1   0.000000 0.499999 0.864111 -0.060545
C109  C     C_1   0.000001 0.499999 0.635888 -0.060544
C110  C     C_1   0.500000 0.000001 0.635888 -0.060538
C111  C     C_1   0.999999 0.500000 0.364111 -0.060543
C112  C     C_1   0.500000 0.999999 0.364111 -0.060539
C113  C     C_1   0.500001 1.000000 0.178369 0.085828
C114  C     C_1   0.000000 0.500000 0.178369 0.085822
C115  C     C_1   0.500000 0.000000 0.821631 0.085827
C116  C     C_1   0.000000 0.499999 0.821631 0.085823
C117  C     C_1   0.000000 0.499999 0.678369 0.085826
C118  C     C_1   0.500000 0.000001 0.678369 0.085815
C119  C     C_1   1.000000 0.500000 0.321631 0.085826
C120  C     C_1   0.500001 0.999999 0.321631 0.085815
C121  C     C_1   0.500001 1.000000 0.228758 0.077908
C122  C     C_1   0.000000 0.500000 0.228757 0.077905
C123  C     C_1   0.500000 0.000001 0.771242 0.077908
C124  C     C_1   0.000000 0.499999 0.771243 0.077905
C125  C     C_1   0.000000 0.499999 0.728757 0.077907
C126  C     C_1   0.500000 0.000001 0.728757 0.077897
C127  C     C_1   1.000000 0.500000 0.271242 0.077907
C128  C     C_1   0.500001 1.000000 0.271243 0.077897
C129  C     C_R   0.487677 0.658003 0.960887 -0.144451
C130  C     C_R   0.341997 0.487653 0.960894 -0.144471
C131  C     C_R   0.512323 0.341996 0.960886 -0.144463
C132  C     C_R   0.658000 0.512453 0.960931 -0.144469
C133  C     C_R   0.512323 0.658004 0.039114 -0.144463
C134  C     C_R   0.658001 0.487544 0.039069 -0.144474
C135  C     C_R   0.487680 0.341997 0.039114 -0.144449
C136  C     C_R   0.341997 0.512347 0.039105 -0.144468
C137  C     C_R   0.987689 0.158003 0.460883 -0.144436
C138  C     C_R   0.841998 0.987594 0.460914 -0.144470
C139  C     C_R   0.012468 0.841999 0.460935 -0.144454
C140  C     C_R   0.157997 0.012561 0.460968 -0.144455
C141  C     C_R   0.012315 0.158004 0.539117 -0.144454
C142  C     C_R   0.157998 0.987440 0.539033 -0.144472
C143  C     C_R   0.987532 0.842000 0.539064 -0.144438
C144  C     C_R   0.841999 0.012404 0.539086 -0.144452
C145  C     C_R   0.500000 0.635001 0.000001 -0.115342
C146  C     C_R   0.364999 0.500000 1.000000 -0.115334
C147  C     C_R   0.500001 0.364999 1.000000 -0.115343
C148  C     C_R   0.634999 0.499999 1.000000 -0.115276
C149  C     C_R   0.000001 0.135001 0.500000 -0.115342
C150  C     C_R   0.865001 0.999999 0.500000 -0.115298
C151  C     C_R   1.000000 0.865002 0.499999 -0.115258
C152  C     C_R   0.134997 0.000001 0.500000 -0.115213
C153  C     C_R   0.513317 0.704337 0.039538 0.016966
C154  C     C_R   0.295664 0.513343 0.039528 0.016962
C155  C     C_R   0.486686 0.295663 0.039538 0.016958
C156  C     C_R   0.704334 0.486543 0.039487 0.016987
C157  C     C_R   0.486682 0.704337 0.960463 0.016960
C158  C     C_R   0.704333 0.513453 0.960512 0.016983
C159  C     C_R   0.513318 0.295662 0.960463 0.016965
C160  C     C_R   0.295663 0.486658 0.960471 0.016966
C161  C     C_R   0.013309 0.204338 0.539541 0.016971
C162  C     C_R   0.795665 0.013402 0.539507 0.016979
C163  C     C_R   0.986530 0.795667 0.539482 0.016995
C164  C     C_R   0.204332 0.986434 0.539448 0.017014
C165  C     C_R   0.986696 0.204337 0.460458 0.016965
C166  C     C_R   0.204331 0.013568 0.460554 0.017011
C167  C     C_R   0.013470 0.795666 0.460517 0.017001
C168  C     C_R   0.795664 0.986595 0.460494 0.016984
C169  C     C_R   0.500000 0.727724 0.000000 0.021668
C170  C     C_R   0.272276 0.500000 1.000000 0.021665
C171  C     C_R   0.500002 0.272275 0.000000 0.021669
C172  C     C_R   0.727722 0.499998 0.999999 0.021660
C173  C     C_R   0.000002 0.227725 0.499999 0.021672
C174  C     C_R   0.772277 0.999999 0.500000 0.021666
C175  C     C_R   1.000000 0.772279 0.499999 0.021666
C176  C     C_R   0.227719 0.000001 0.500001 0.021659
Cu1   Cu    Cu3+1 0.544460 0.000000 0.000000 1.109380
Cu2   Cu    Cu3+1 0.000000 0.544460 0.000000 1.109355
Cu3   Cu    Cu3+1 0.455540 0.000000 0.000000 1.109328
Cu4   Cu    Cu3+1 0.000000 0.455540 0.000000 1.109394
Cu5   Cu    Cu3+1 0.044460 0.500000 0.500000 1.109419
Cu6   Cu    Cu3+1 0.500000 0.044460 0.500000 1.109405
Cu7   Cu    Cu3+1 0.955540 0.500000 0.500000 1.109372
Cu8   Cu    Cu3+1 0.500000 0.955540 0.500000 1.109424
Cu9   Cu    Cu3+1 0.500000 0.500000 0.042480 1.058486
Cu10  Cu    Cu3+1 0.500000 0.500000 0.957520 1.058486
Cu11  Cu    Cu3+1 0.000000 0.000000 0.542480 1.058466
Cu12  Cu    Cu3+1 0.000000 0.000000 0.457520 1.058465
O1    O     O_R   0.537560 0.935150 0.000030 -0.553503
O2    O     O_R   0.064850 0.537560 0.000030 -0.553514
O3    O     O_R   0.462440 0.064850 0.000030 -0.553516
O4    O     O_R   0.935150 0.462440 0.000030 -0.553505
O5    O     O_R   0.462440 0.935150 0.999970 -0.553516
O6    O     O_R   0.935150 0.537560 0.999970 -0.553514
O7    O     O_R   0.537560 0.064850 0.999970 -0.553503
O8    O     O_R   0.064850 0.462440 0.999970 -0.553506
O9    O     O_R   0.037560 0.435150 0.500030 -0.553500
O10   O     O_R   0.564850 0.037560 0.500030 -0.553510
O11   O     O_R   0.962440 0.564850 0.500030 -0.553513
O12   O     O_R   0.435150 0.962440 0.500030 -0.553503
O13   O     O_R   0.962440 0.435150 0.499970 -0.553512
O14   O     O_R   0.435150 0.037560 0.499970 -0.553510
O15   O     O_R   0.037560 0.564850 0.499970 -0.553501
O16   O     O_R   0.564850 0.962440 0.499970 -0.553504
O17   O     O_R   0.537550 0.000020 0.061980 -0.550971
O18   O     O_R   0.999980 0.537550 0.061980 -0.551065
O19   O     O_R   0.462450 0.999980 0.061980 -0.550987
O20   O     O_R   0.000020 0.462450 0.061980 -0.550889
O21   O     O_R   0.462450 0.000020 0.938020 -0.550987
O22   O     O_R   0.000020 0.537550 0.938020 -0.550902
O23   O     O_R   0.537550 0.999980 0.938020 -0.550971
O24   O     O_R   0.999980 0.462450 0.938020 -0.551051
O25   O     O_R   0.037550 0.500020 0.561980 -0.551085
O26   O     O_R   0.499980 0.037550 0.561980 -0.551092
O27   O     O_R   0.962450 0.499980 0.561980 -0.550864
O28   O     O_R   0.500020 0.962450 0.561980 -0.550853
O29   O     O_R   0.962450 0.500020 0.438020 -0.551099
O30   O     O_R   0.500020 0.037550 0.438020 -0.550857
O31   O     O_R   0.037550 0.499980 0.438020 -0.550850
O32   O     O_R   0.499980 0.962450 0.438020 -0.551088
O33   O     O_R   0.435100 0.500020 0.035870 -0.579113
O34   O     O_R   0.499980 0.435100 0.035870 -0.579122
O35   O     O_R   0.564900 0.499980 0.035870 -0.579092
O36   O     O_R   0.500020 0.564900 0.035870 -0.579120
O37   O     O_R   0.564900 0.500020 0.964130 -0.579091
O38   O     O_R   0.500020 0.435100 0.964130 -0.579120
O39   O     O_R   0.435100 0.499980 0.964130 -0.579114
O40   O     O_R   0.499980 0.564900 0.964130 -0.579121
O41   O     O_R   0.935100 0.000020 0.535870 -0.579109
O42   O     O_R   0.999980 0.935100 0.535870 -0.579098
O43   O     O_R   0.064900 0.999980 0.535870 -0.579072
O44   O     O_R   0.000020 0.064900 0.535870 -0.579126
O45   O     O_R   0.064900 0.000020 0.464130 -0.579076
O46   O     O_R   0.000020 0.935100 0.464130 -0.579095
O47   O     O_R   0.935100 0.999980 0.464130 -0.579104
O48   O     O_R   0.999980 0.064900 0.464130 -0.579130
H1    H     H_    0.478066 0.639104 0.931275 0.200048
H2    H     H_    0.360896 0.478024 0.931288 0.200038
H3    H     H_    0.521932 0.360895 0.931273 0.200048
H4    H     H_    0.639099 0.522164 0.931354 0.199990
H5    H     H_    0.521934 0.639105 0.068726 0.200047
H6    H     H_    0.639100 0.477834 0.068645 0.199989
H7    H     H_    0.478070 0.360897 0.068726 0.200049
H8    H     H_    0.360897 0.521976 0.068711 0.200038
H9    H     H_    0.978085 0.139103 0.431268 0.200051
H10   H     H_    0.860898 0.977921 0.431324 0.200008
H11   H     H_    0.022190 0.860901 0.431362 0.199978
H12   H     H_    0.139095 0.022353 0.431420 0.199939
H13   H     H_    0.021917 0.139105 0.568732 0.200049
H14   H     H_    0.139096 0.977648 0.568581 0.199937
H15   H     H_    0.977810 0.860902 0.568637 0.199980
H16   H     H_    0.860900 0.022077 0.568676 0.200010
Br1   Br    Br    0.549606 0.696173 0.131474 -0.342576
Br2   Br    Br    0.303830 0.549692 0.131439 -0.342527
Br3   Br    Br    0.450402 0.303830 0.131476 -0.342487
Br4   Br    Br    0.696169 0.449921 0.131281 -0.342599
Br5   Br    Br    0.450392 0.696170 0.868527 -0.342494
Br6   Br    Br    0.696166 0.550067 0.868713 -0.342558
Br7   Br    Br    0.549610 0.303827 0.868528 -0.342570
Br8   Br    Br    0.303828 0.450309 0.868560 -0.342567
Br9   Br    Br    0.049580 0.196174 0.631485 -0.342604
Br10  Br    Br    0.803832 0.049895 0.631358 -0.342563
Br11  Br    Br    0.949874 0.803835 0.631263 -0.342567
Br12  Br    Br    0.196165 0.949551 0.631131 -0.342674
Br13  Br    Br    0.950433 0.196170 0.368510 -0.342514
Br14  Br    Br    0.196163 0.050454 0.368872 -0.342613
Br15  Br    Br    0.050125 0.803831 0.368736 -0.342656
Br16  Br    Br    0.803830 0.950098 0.368645 -0.342626
Br17  Br    Br    0.566632 0.802352 0.123204 -0.266462
Br18  Br    Br    0.197652 0.566714 0.123156 -0.266419
Br19  Br    Br    0.433377 0.197651 0.123207 -0.266417
Br20  Br    Br    0.802346 0.432915 0.122942 -0.266337
Br21  Br    Br    0.433368 0.802348 0.876797 -0.266422
Br22  Br    Br    0.802342 0.567079 0.877055 -0.266301
Br23  Br    Br    0.566628 0.197646 0.876796 -0.266456
Br24  Br    Br    0.197650 0.433286 0.876843 -0.266455
Br25  Br    Br    0.066598 0.302354 0.623223 -0.266473
Br26  Br    Br    0.697655 0.066912 0.623043 -0.266384
Br27  Br    Br    0.932864 0.697658 0.622912 -0.266283
Br28  Br    Br    0.302339 0.932552 0.622732 -0.266223
Br29  Br    Br    0.933408 0.302349 0.376774 -0.266443
Br30  Br    Br    0.302338 0.067450 0.377270 -0.266218
Br31  Br    Br    0.067136 0.697655 0.377087 -0.266314
Br32  Br    Br    0.697652 0.933085 0.376959 -0.266388
Br33  Br    Br    0.496041 0.876488 0.096975 -0.410537
Br34  Br    Br    0.123514 0.496107 0.096977 -0.410483
Br35  Br    Br    0.503967 0.123514 0.096975 -0.410481
Br36  Br    Br    0.876485 0.503598 0.096988 -0.410597
Br37  Br    Br    0.503959 0.876485 0.903025 -0.410475
Br38  Br    Br    0.876485 0.496400 0.903012 -0.410550
Br39  Br    Br    0.496034 0.123513 0.903025 -0.410541
Br40  Br    Br    0.123512 0.503892 0.903022 -0.410530
Br41  Br    Br    0.996010 0.376487 0.596974 -0.410503
Br42  Br    Br    0.623515 0.996265 0.596983 -0.410504
Br43  Br    Br    0.003557 0.623517 0.596990 -0.410537
Br44  Br    Br    0.376485 0.003305 0.596999 -0.410620
Br45  Br    Br    0.003991 0.376486 0.403026 -0.410449
Br46  Br    Br    0.376482 0.996695 0.403002 -0.410594
Br47  Br    Br    0.996442 0.623514 0.403009 -0.410592
Br48  Br    Br    0.623514 0.003734 0.403016 -0.410530

loop_
_geom_bond_atom_site_label_1
_geom_bond_atom_site_label_2
_ccdc_geom_bond_type
C12   Br4   S    
C130  C146  A    
C141  H13   S    
C139  H11   S    
C110  C118  T    
C79   C87   A    
C4    O6    A    
C45   C57   A    
C143  H15   S    
C14   C158  A    
Cu8   O16   S    
C48   C72   A    
C18   Br10  S    
C22   C38   A    
C154  C170  A    
C65   Br33  S    
C135  H7    S    
C7    O15   A    
C157  C169  A    
C101  O25   A    
C70   C84   A    
C140  C152  A    
C129  C145  A    
Cu4   O8    S    
C97   C105  S    
C143  C151  A    
C34   Br26  S    
Cu9   O33   S    
C42   C58   A    
C93   C150  S    
C59   C171  A    
C143  C163  A    
Cu5   Cu7   S    
Cu7   O27   S    
Cu3   O19   S    
C115  C123  S    
C45   C69   A    
Cu7   O13   S    
C92   O36   A    
C121  C128  T    
C25   C41   A    
C112  C120  T    
C94   O46   A    
C123  C126  T    
C161  C173  A    
C28   C44   A    
C3    O7    A    
C29   C45   A    
C132  C148  A    
C1    O5    A    
C32   Br24  S    
C66   C82   A    
C22   Br14  S    
C4    C84   S    
C11   C27   A    
C139  C167  A    
C47   C71   A    
C23   C167  A    
C3    C83   S    
C49   C73   A    
C133  C145  A    
C77   Br45  S    
Cu3   O5    S    
Cu1   O7    S    
C46   C60   A    
C90   O38   A    
C9    Br1   S    
C2    O2    A    
C98   C106  S    
C19   C35   A    
C20   Br12  S    
C158  C172  A    
C101  O27   A    
Cu2   O18   S    
C23   Br15  S    
C46   C70   A    
C47   C59   A    
C22   C166  A    
Cu8   O32   S    
Cu3   O3    S    
Cu9   O35   S    
C98   O18   A    
C95   C152  S    
C1    C81   S    
C136  C146  A    
Cu12  O45   S    
C27   Br19  S    
C67   C83   A    
C28   Br20  S    
C16   C160  A    
C163  C175  A    
C99   O23   A    
C168  C174  A    
C70   Br38  S    
C105  C113  T    
C50   C74   A    
C89   O33   A    
C16   Br8   S    
Cu2   O22   S    
C138  C168  A    
C122  C127  T    
Cu4   O24   S    
C13   Br5   S    
C144  C150  A    
C53   C61   A    
C134  H6    S    
Cu10  O39   S    
Cu1   Cu3   S    
C55   C63   A    
C80   C86   A    
C131  C147  A    
C64   C176  A    
C36   C52   A    
C43   C59   A    
C5    C85   S    
C9    C153  A    
Cu7   O29   S    
Cu5   O15   S    
C12   C156  A    
C13   C157  A    
C71   C83   A    
C29   Br21  S    
C134  C156  A    
C100  C108  S    
C66   Br34  S    
C79   Br47  S    
C104  C112  S    
C5    O9    A    
C156  C172  A    
C97   O19   A    
C8    C88   S    
Cu11  O41   S    
C90   C147  S    
C130  C160  A    
C137  H9    S    
Cu10  O40   S    
C19   C163  A    
C131  C159  A    
C73   C85   A    
Cu12  O47   S    
C17   C161  A    
C75   C87   A    
C135  C147  A    
C93   O47   A    
C8    O12   A    
C37   Br29  S    
C94   O42   A    
C167  C175  A    
C99   O21   A    
C102  O28   A    
C40   Br32  S    
C140  H12   S    
C30   C46   A    
C52   C76   A    
C48   C58   A    
C15   C31   A    
C118  C126  S    
C16   C32   A    
C56   C80   A    
C132  H4    S    
Cu11  O43   S    
C10   C154  A    
Cu10  O37   S    
C54   C64   A    
C139  C151  A    
C2    O8    A    
Cu6   Cu8   S    
C78   Br46  S    
C113  C121  S    
C43   C67   A    
C33   C49   A    
Cu5   O25   S    
C117  C125  S    
C119  C127  S    
C4    O4    A    
C31   Br23  S    
C137  C165  A    
C9    C25   A    
Cu2   O6    S    
C26   C42   A    
C159  C171  A    
C12   C28   A    
C13   C29   A    
C95   O43   A    
C142  C164  A    
Cu2   O2    S    
Cu8   O28   S    
C101  C109  S    
C20   C164  A    
C21   C165  A    
C103  C111  S    
C142  C152  A    
C36   Br28  S    
C75   Br43  S    
C26   Br18  S    
C102  O26   A    
C39   C55   A    
C40   C56   A    
Cu5   O31   S    
C11   Br3   S    
Cu5   O9    S    
C31   C47   A    
C24   Br16  S    
C32   C48   A    
C17   C33   A    
C140  C166  A    
C98   O20   A    
C49   C61   A    
C68   C84   A    
C51   C63   A    
C52   C64   A    
C94   C151  S    
C132  C158  A    
C109  C117  T    
C53   C77   A    
C6    O16   A    
C55   C79   A    
C65   C81   A    
C38   C54   A    
C74   Br42  S    
C104  O30   A    
Cu11  O44   S    
C30   Br22  S    
Cu9   O34   S    
C14   Br6   S    
C102  C110  S    
C91   O35   A    
Cu12  O46   S    
C78   C88   A    
C116  C124  S    
C24   C168  A    
C10   Br2   S    
C6    C86   S    
Cu2   Cu4   S    
C120  C128  S    
C76   Br44  S    
C99   C107  S    
C108  C116  T    
C41   C57   A    
Cu11  Cu12  S    
C5    O13   A    
C18   C162  A    
Cu9   Cu10  S    
C44   C60   A    
C96   C149  S    
C100  O22   A    
Cu1   O17   S    
C164  C176  A    
C17   Br9   S    
C129  H1    S    
C69   C81   A    
C38   Br30  S    
C19   Br11  S    
C20   C36   A    
C27   C43   A    
C21   C37   A    
C138  H10   S    
C92   O40   A    
C153  C169  A    
C97   O17   A    
C103  O31   A    
C54   C78   A    
C141  C161  A    
C142  H14   S    
Cu6   O10   S    
C129  C157  A    
C141  C149  A    
C33   Br25  S    
C138  C150  A    
C15   C159  A    
C35   Br27  S    
C106  C114  T    
C133  C153  A    
C111  C119  T    
C58   C170  A    
C51   C75   A    
C90   O34   A    
C165  C173  A    
C62   C174  A    
C135  C155  A    
C73   Br41  S    
C104  O32   A    
C67   Br35  S    
C133  H5    S    
C68   Br36  S    
Cu11  O42   S    
C131  H3    S    
Cu9   O36   S    
C76   C88   A    
Cu12  O48   S    
C21   Br13  S    
C10   C26   A    
C144  H16   S    
C91   O37   A    
C137  C149  A    
C136  C154  A    
C71   Br39  S    
C89   O39   A    
C91   C148  S    
C57   C169  A    
C25   Br17  S    
C89   C146  S    
C34   C50   A    
Cu1   O1    S    
C136  H8    S    
C60   C172  A    
C61   C173  A    
Cu4   O4    S    
C39   Br31  S    
C6    O10   A    
C41   C65   A    
Cu8   O12   S    
C14   C30   A    
C100  O24   A    
Cu7   O11   S    
Cu6   O14   S    
C3    O3    A    
Cu10  O38   S    
C96   O48   A    
C74   C86   A    
C18   C34   A    
C107  C115  T    
C103  O29   A    
Cu6   O30   S    
C50   C62   A    
C44   C68   A    
C15   Br7   S    
Cu6   O26   S    
C93   O41   A    
C130  H2    S    
C144  C162  A    
C92   C145  S    
C63   C175  A    
C162  C174  A    
C11   C155  A    
C134  C148  A    
Cu3   O21   S    
C166  C176  A    
Cu1   O23   S    
C8    O14   A    
C37   C53   A    
C35   C51   A    
C23   C39   A    
C24   C40   A    
C69   Br37  S    
C72   Br40  S    
C56   C62   A    
C96   O44   A    
C7    O11   A    
C2    C82   S    
C80   Br48  S    
C77   C85   A    
C114  C122  S    
C155  C171  A    
C42   C66   A    
C160  C170  A    
C95   O45   A    
Cu4   O20   S    
C7    C87   S    
C72   C82   A    
C1    O1    A    
C124  C125  T    
