data_mof_unit_61848.cif
_audit_creation_date              2012-12-10T16:38:36-0500
_audit_creation_method            fapswitch 2.2
_symmetry_space_group_name_H-M    P1
_symmetry_Int_Tables_number       1
_space_group_crystal_system       triclinic
_cell_length_a                    19.035852
_cell_length_b                    18.652353
_cell_length_c                    19.328793
_cell_angle_alpha                 109.263754
_cell_angle_beta                  110.213498
_cell_angle_gamma                 108.909447
_cell_volume                      5284.30648768

loop_
_atom_site_label
_atom_site_type_symbol
_atom_type_description
_atom_site_fract_x
_atom_site_fract_y
_atom_site_fract_z
_atom_type_partial_charge
C1    C     C_R   0.384710 0.881579 0.001231 0.871602
C2    C     C_R   0.615221 0.118481 0.998635 0.875592
C3    C     C_2   0.323645 0.811652 0.002827 -0.410907
C4    C     C_2   0.676003 0.188475 0.996593 -0.404449
C5    C     C_R   0.000599 0.118978 0.616981 0.805096
C6    C     C_R   0.004683 0.881753 0.388439 0.814621
C7    C     C_R   0.882446 0.001992 0.384510 0.862187
C8    C     C_R   0.117565 0.997345 0.615035 0.850892
C9    C     C_R   0.998878 0.617287 0.116131 0.723046
C10   C     C_R   0.994156 0.376267 0.883970 0.744768
C11   C     C_R   0.117307 0.619403 0.001531 0.887509
C12   C     C_R   0.882659 0.380545 0.998453 0.852831
C13   C     C_2   0.930470 0.257484 0.739539 -0.275593
C14   C     C_2   0.064793 0.755533 0.241570 -0.247215
C15   C     C_2   0.979472 0.292986 0.823813 0.294575
C16   C     C_2   0.992203 0.681435 0.177661 0.326416
C17   C     C_2   0.930798 0.183549 0.680852 -0.126985
C18   C     C_2   0.061252 0.826367 0.300233 -0.103672
C19   C     C_2   0.003768 0.191276 0.681004 0.077974
C20   C     C_2   0.017942 0.812794 0.341085 0.078262
C21   C     C_R   0.619413 0.001215 0.116775 0.848929
C22   C     C_R   0.380752 0.998988 0.883402 0.838931
C23   C     C_2   0.816998 0.077806 0.324074 0.193429
C24   C     C_2   0.176602 0.921703 0.683329 0.193362
C25   C     C_2   0.814521 0.003759 0.321471 -0.312688
C26   C     C_2   0.185580 0.993357 0.676055 -0.326501
C27   C     C_2   0.741877 0.072435 0.260140 -0.159645
C28   C     C_2   0.252264 0.925377 0.744282 -0.157256
C29   C     C_2   0.691772 0.004872 0.180277 -0.366205
C30   C     C_2   0.309484 0.996951 0.820541 -0.355350
C31   C     C_2   0.260981 0.745140 0.072284 -0.242629
C32   C     C_2   0.738260 0.255914 0.927582 -0.275236
C33   C     C_2   0.181745 0.690235 0.003985 -0.375210
C34   C     C_2   0.818093 0.309060 0.995320 -0.394800
C35   C     C_2   0.324796 0.818633 0.074900 0.476293
C36   C     C_2   0.673634 0.181705 0.924117 0.506426
Cu1   Cu    Cu3+1 0.500010 0.938980 0.938990 0.969218
Cu2   Cu    Cu3+1 0.499990 0.061020 0.061010 0.956826
Cu3   Cu    Cu3+1 0.061010 0.061020 0.499990 0.941407
Cu4   Cu    Cu3+1 0.938990 0.938980 0.500010 0.941117
Cu5   Cu    Cu3+1 0.061030 0.500010 0.061020 0.945950
Cu6   Cu    Cu3+1 0.938970 0.499990 0.938980 0.933014
H1    H     H_    0.869502 0.124436 0.632991 0.124539
H2    H     H_    0.091201 0.890072 0.305974 0.138323
H3    H     H_    0.755939 0.941324 0.275849 0.117747
H4    H     H_    0.249008 0.050863 0.712179 0.132921
H5    H     H_    0.729726 0.126874 0.278311 0.169607
H6    H     H_    0.257822 0.866637 0.728514 0.166235
H7    H     H_    0.707385 0.953641 0.159094 0.156283
H8    H     H_    0.299706 0.052895 0.840154 0.156379
H9    H     H_    0.277812 0.739209 0.129070 0.165783
H10   H     H_    0.722270 0.265113 0.872809 0.167210
H11   H     H_    0.161060 0.700964 0.950254 0.155585
H12   H     H_    0.838883 0.296559 0.047823 0.159785
H13   H     H_    0.281761 0.749456 0.943926 0.118504
H14   H     H_    0.718174 0.250688 0.055479 0.113353
H15   H     H_    0.893970 0.285382 0.713118 0.142114
H16   H     H_    0.126851 0.766883 0.247520 0.120577
O1    O     O_R   0.410990 0.859440 0.948490 -0.603985
O2    O     O_R   0.589010 0.140560 0.051510 -0.605299
O3    O     O_R   0.948450 0.589020 0.037490 -0.577120
O4    O     O_R   0.051550 0.410980 0.962510 -0.558463
O5    O     O_R   0.140550 0.589040 0.051520 -0.579896
O6    O     O_R   0.859450 0.410960 0.948480 -0.586353
O7    O     O_R   0.037480 0.589020 0.948460 -0.582183
O8    O     O_R   0.962520 0.410980 0.051540 -0.592909
O9    O     O_R   0.410980 0.962500 0.051530 -0.535760
O10   O     O_R   0.589020 0.037500 0.948470 -0.531687
O11   O     O_R   0.589050 0.948480 0.037510 -0.590433
O12   O     O_R   0.410950 0.051520 0.962490 -0.590355
O13   O     O_R   0.589030 0.051540 0.140550 -0.594507
O14   O     O_R   0.410970 0.948460 0.859450 -0.579034
O15   O     O_R   0.051510 0.140560 0.589010 -0.587936
O16   O     O_R   0.948490 0.859440 0.410990 -0.581222
O17   O     O_R   0.948470 0.037500 0.589020 -0.594025
O18   O     O_R   0.051530 0.962500 0.410980 -0.602666
O19   O     O_R   0.962480 0.051520 0.410960 -0.573850
O20   O     O_R   0.037520 0.948480 0.589040 -0.577677
O21   O     O_R   0.859440 0.948460 0.410980 -0.589017
O22   O     O_R   0.140560 0.051540 0.589020 -0.591970
O23   O     O_R   0.051520 0.589040 0.140540 -0.606364
O24   O     O_R   0.948480 0.410960 0.859460 -0.612085
C37   C     C_3   0.891247 0.167172 0.394841 -0.810889
H17   H     H_    0.878146 0.219535 0.389502 0.211990
H18   H     H_    0.902105 0.173929 0.457489 0.217052
H19   H     H_    0.950555 0.177227 0.391686 0.247475
C38   C     C_3   0.093416 0.835800 0.628343 -0.799359
H20   H     H_    0.101830 0.783945 0.640134 0.209599
H21   H     H_    0.043580 0.842459 0.642872 0.246167
H22   H     H_    0.071112 0.814573 0.560362 0.218553
O25   O     O_3   0.018157 0.250872 0.855953 -0.596251
C39   C     C_3   0.964341 0.199628 0.875927 0.076026
H23   H     H_    0.899780 0.150361 0.818160 0.143293
H24   H     H_    0.956387 0.241590 0.925757 0.140353
C40   C     C_3   0.005347 0.151442 0.909661 -0.315894
H25   H     H_    0.013453 0.109131 0.860460 0.225981
H26   H     H_    0.069985 0.199742 0.967108 0.225692
C41   C     C_3   0.949967 0.095038 0.932655 -0.914403
H27   H     H_    0.942191 0.136284 0.982806 0.259449
H28   H     H_    0.981510 0.061028 0.956992 0.259446
H29   H     H_    0.885479 0.045183 0.875717 0.259846
O26   O     O_3   0.912447 0.675884 0.160677 -0.590561
C42   C     C_3   0.847919 0.590540 0.131326 0.075200
H30   H     H_    0.822995 0.595253 0.175803 0.150046
H31   H     H_    0.870931 0.542458 0.130023 0.102670
C43   C     C_3   0.772683 0.555786 0.043535 -0.303598
H32   H     H_    0.745774 0.600776 0.047623 0.217036
H33   H     H_    0.795359 0.553021 0.997503 0.242689
C44   C     C_3   0.701567 0.464525 0.010599 -0.935563
H34   H     H_    0.726694 0.418102 0.004792 0.268324
H35   H     H_    0.648097 0.441114 0.946931 0.256633
H36   H     H_    0.675974 0.465849 0.054401 0.253533
C45   C     C_3   0.087711 0.278276 0.736941 -0.797402
H37   H     H_    0.137927 0.276583 0.720835 0.225379
H38   H     H_    0.076593 0.330790 0.729334 0.222287
H39   H     H_    0.115587 0.295854 0.804588 0.268711
C46   C     C_3   0.987795 0.730529 0.347666 -0.792613
H40   H     H_    0.017154 0.748864 0.415589 0.200452
H41   H     H_    0.916867 0.696959 0.319032 0.232149
H42   H     H_    0.006586 0.683892 0.318084 0.228251
O27   O     O_3   0.385644 0.894383 0.152220 -0.582681
C47   C     C_3   0.454484 0.882506 0.194076 0.053114
H43   H     H_    0.481207 0.862182 0.152768 0.124627
H44   H     H_    0.432653 0.832255 0.212252 0.132983
C48   C     C_3   0.526218 0.968868 0.274673 -0.305165
H45   H     H_    0.549747 0.019144 0.257217 0.237646
H46   H     H_    0.500520 0.991339 0.316018 0.220427
C49   C     C_3   0.601393 0.959186 0.324037 -0.925167
H47   H     H_    0.580414 0.913158 0.346652 0.254717
H48   H     H_    0.654101 0.023724 0.379943 0.259107
H49   H     H_    0.626418 0.934275 0.283072 0.261001
O28   O     O_3   0.612122 0.104351 0.847676 -0.588023
C50   C     C_3   0.557800 0.118287 0.788184 0.060174
H50   H     H_    0.512272 0.053844 0.729154 0.177850
H51   H     H_    0.593675 0.160869 0.769656 0.118828
C51   C     C_3   0.504697 0.152750 0.818794 -0.379908
H52   H     H_    0.473739 0.111851 0.841485 0.224681
H53   H     H_    0.547539 0.221094 0.872460 0.207344
C52   C     C_3   0.435217 0.151063 0.747709 -0.902784
H54   H     H_    0.464825 0.191359 0.723711 0.255202
H55   H     H_    0.399535 0.178159 0.772441 0.253269
H56   H     H_    0.388919 0.082928 0.694554 0.258928

loop_
_geom_bond_atom_site_label_1
_geom_bond_atom_site_label_2
_ccdc_geom_bond_type
C38   H20   S    
C4    C36   D    
Cu1   O11   S    
C27   C29   D    
C8    C26   S    
Cu5   Cu6   S    
C14   C18   S    
C40   H25   S    
Cu6   O24   S    
C49   H47   S    
Cu2   O12   S    
C40   C41   S    
C29   H7    S    
C23   C37   S    
C21   O13   A    
C9    O3    A    
C32   C36   S    
C9    C16   S    
C24   C26   D    
C2    O10   A    
C10   C15   S    
C1    O1    A    
C12   O6    A    
C52   H56   S    
C2    O2    A    
C13   H15   S    
C43   H32   S    
C19   C45   S    
Cu1   O10   S    
C32   H10   S    
C44   H35   S    
C17   C19   D    
C38   H22   S    
C3    H13   S    
O28   C50   S    
C38   H21   S    
C48   C49   S    
C31   C33   D    
C8    O22   A    
C23   C27   S    
C18   C20   D    
C7    O19   A    
C35   O27   S    
C43   H33   S    
C23   C25   D    
C30   H8    S    
C4    H14   S    
C8    O20   A    
C10   O4    A    
Cu5   O4    S    
C51   C52   S    
C22   O14   A    
C20   C46   S    
C6    O16   A    
C33   H11   S    
C14   H16   S    
C11   C33   S    
C51   H53   S    
C44   H36   S    
Cu3   Cu4   S    
C21   C29   S    
C10   O24   A    
C39   C40   S    
C21   O11   A    
C1    C3    S    
C32   C34   D    
C5    O17   A    
C2    C4    S    
C17   H1    S    
Cu1   Cu2   S    
C18   H2    S    
C50   C51   S    
C37   H17   S    
C3    C35   D    
Cu5   O23   S    
C39   H24   S    
Cu4   O21   S    
C42   H31   S    
Cu3   O18   S    
Cu6   O3    S    
O27   C47   S    
Cu1   O1    S    
Cu2   O2    S    
C16   O26   S    
C37   H18   S    
C34   H12   S    
C41   H28   S    
C13   C15   D    
C50   H50   S    
C14   C16   D    
C46   H42   S    
Cu5   O5    S    
C47   H44   S    
C49   H49   S    
C25   H3    S    
O25   C39   S    
C7    O21   A    
C45   H37   S    
C27   H5    S    
Cu3   O19   S    
Cu6   O7    S    
Cu2   O13   S    
C28   H6    S    
C22   C30   S    
C36   O28   S    
C24   C28   S    
C31   H9    S    
C51   H52   S    
C49   H48   S    
Cu6   O6    S    
C52   H54   S    
C40   H26   S    
C6    O18   A    
Cu5   O8    S    
C5    C19   S    
C41   H29   S    
C6    C20   S    
C11   O5    A    
C7    C25   S    
Cu4   O17   S    
C13   C17   S    
Cu3   O22   S    
C45   H39   S    
C47   C48   S    
C46   H41   S    
C44   H34   S    
C52   H55   S    
C48   H45   S    
C12   O8    A    
C31   C35   S    
C28   C30   D    
C39   H23   S    
C1    O9    A    
Cu4   O16   S    
C42   C43   S    
Cu4   O20   S    
Cu3   O15   S    
C5    O15   A    
O26   C42   S    
C24   C38   S    
C26   H4    S    
C15   O25   S    
C37   H19   S    
Cu2   O9    S    
C41   H27   S    
Cu1   O14   S    
C42   H30   S    
C48   H46   S    
C50   H51   S    
C47   H43   S    
C46   H40   S    
C12   C34   S    
C22   O12   A    
C11   O7    A    
C9    O23   A    
C45   H38   S    
C43   C44   S    
