data_mof_unit_57658.cif
_audit_creation_date              2012-12-10T16:59:21-0500
_audit_creation_method            fapswitch 2.2
_symmetry_space_group_name_H-M    P1
_symmetry_Int_Tables_number       1
_space_group_crystal_system       triclinic
_cell_length_a                    19.358134
_cell_length_b                    10.936081
_cell_length_c                    9.677674
_cell_angle_alpha                 90.01837
_cell_angle_beta                  90.806531
_cell_angle_gamma                 90.142066
_cell_volume                      2048.57470826

loop_
_atom_site_label
_atom_site_type_symbol
_atom_type_description
_atom_site_fract_x
_atom_site_fract_y
_atom_site_fract_z
_atom_type_partial_charge
C1    C     C_R   0.498961 0.265308 0.500016 0.842500
C2    C     C_R   0.290905 0.500632 0.498372 -0.179674
C3    C     C_R   0.930198 0.479182 0.513516 0.398254
C4    C     C_R   0.070082 0.480289 0.511288 0.427665
C5    C     C_R   0.815829 0.472166 0.637412 0.010884
C6    C     C_R   0.743791 0.480893 0.631810 -0.225429
C7    C     C_R   0.708569 0.494093 0.504916 -0.044936
C8    C     C_R   0.746305 0.499047 0.382632 -0.185982
C9    C     C_R   0.818106 0.492212 0.387162 -0.178275
C10   C     C_R   0.853870 0.479951 0.513709 0.018886
C11   C     C_2   0.496806 0.932955 0.386621 -0.124042
C12   C     C_R   0.367284 0.502473 0.498952 0.850931
C13   C     C_2   0.503865 0.866696 0.502393 -0.312466
C14   C     C_2   0.499902 0.066906 0.386465 -0.156693
C15   C     C_2   0.495125 0.133367 0.502255 -0.309693
C16   C     C_2   0.461189 0.427573 0.921015 -0.043073
C17   C     C_2   0.464269 0.422772 0.076776 0.014085
C18   C     C_R   0.500684 0.734707 0.500115 0.871862
C19   C     C_R   0.632596 0.499067 0.501046 0.785138
C20   C     C_R   0.258376 0.453990 0.616286 -0.276331
C21   C     C_R   0.186506 0.444567 0.623336 0.026464
C22   C     C_R   0.145857 0.482571 0.509117 -0.054139
C23   C     C_R   0.177773 0.529793 0.391771 -0.250896
C24   C     C_R   0.249562 0.541655 0.385197 0.442425
Cu1   Cu    Cu3+1 0.500010 0.500020 0.638630 0.950212
Cu2   Cu    Cu3+1 0.499990 0.499980 0.361370 0.996718
H1    H     H_    0.289235 0.421390 0.703050 0.176872
H2    H     H_    0.513607 0.907804 0.602470 0.144079
H3    H     H_    0.505348 0.111530 0.286910 0.164646
H4    H     H_    0.486754 0.092443 0.602388 0.148890
H5    H     H_    0.425460 0.365993 0.868621 0.150635
H6    H     H_    0.535721 0.552553 0.895134 0.187508
H7    H     H_    0.434131 0.352449 0.127244 0.157419
H8    H     H_    0.525003 0.569259 0.106614 0.188556
H9    H     H_    0.145860 0.561309 0.306248 0.197406
H10   H     H_    0.715222 0.474424 0.727095 0.156024
H11   H     H_    0.720438 0.508777 0.283295 0.153709
H12   H     H_    0.845809 0.498304 0.291186 0.146898
H13   H     H_    0.489671 0.888122 0.287224 0.180680
N1    N     N_R   0.033363 0.442185 0.398842 -0.259485
N2    N     N_R   0.964665 0.441430 0.400111 -0.270512
N3    N     N_R   0.967177 0.519690 0.624645 -0.214525
N4    N     N_R   0.035817 0.519966 0.623826 -0.208473
N5    N     N_2   0.499250 0.498660 0.846910 -0.284179
N6    N     N_2   0.499230 0.498630 0.153040 -0.275161
O1    O     O_R   0.500010 0.321960 0.617040 -0.584102
O2    O     O_R   0.499990 0.321920 0.382900 -0.585645
O3    O     O_R   0.400160 0.500010 0.617110 -0.584591
O4    O     O_R   0.400130 0.499970 0.382960 -0.499380
O5    O     O_R   0.500010 0.678080 0.617100 -0.579973
O6    O     O_R   0.499990 0.678040 0.382960 -0.558538
O7    O     O_R   0.599870 0.500030 0.617040 -0.586310
O8    O     O_R   0.599840 0.499990 0.382890 -0.587651
C25   C     C_R   0.156007 0.390347 0.749124 0.099757
C26   C     C_R   0.171113 0.440578 0.879861 -0.105035
C27   C     C_R   0.142820 0.389066 0.998616 -0.079421
C28   C     C_R   0.099693 0.286772 0.987989 -0.122584
C29   C     C_R   0.085077 0.235377 0.858579 -0.122741
C30   C     C_R   0.113112 0.286698 0.739501 -0.114092
H14   H     H_    0.204373 0.519994 0.889627 0.161747
H15   H     H_    0.154443 0.428283 0.098875 0.165112
H16   H     H_    0.077755 0.247147 0.080033 0.136566
H17   H     H_    0.052073 0.155608 0.850485 0.128284
H18   H     H_    0.101669 0.245440 0.640006 0.129459
S1    S     S_3+6 0.283476 0.613900 0.236614 -0.017400
O9    O     O_2   0.337636 0.706040 0.278367 -0.282251
O10   O     O_2   0.314924 0.518590 0.145183 -0.325261
O11   O     O_3   0.220272 0.685823 0.147743 -0.562705
H19   H     H_    0.242297 0.714490 0.061806 0.372680
C31   C     C_R   0.849228 0.449005 0.773005 0.111044
C32   C     C_R   0.852070 0.541505 0.873481 -0.129846
C33   C     C_R   0.886150 0.520854 0.999620 -0.130599
C34   C     C_R   0.916395 0.407272 0.026914 -0.096367
C35   C     C_R   0.912591 0.314163 0.928194 -0.119244
C36   C     C_R   0.879473 0.334969 0.801144 -0.124544
H20   H     H_    0.829080 0.629972 0.853012 0.125734
H21   H     H_    0.889306 0.593073 0.075929 0.131492
H22   H     H_    0.942801 0.391275 0.124393 0.157001
H23   H     H_    0.935593 0.226058 0.949915 0.122045
H24   H     H_    0.877555 0.262705 0.724613 0.121976

loop_
_geom_bond_atom_site_label_1
_geom_bond_atom_site_label_2
_ccdc_geom_bond_type
C26   C27   A    
C3    N3    A    
C34   C35   A    
C12   O3    A    
C2    C12   S    
C12   O4    A    
C7    C8    A    
C16   H5    S    
C30   H18   S    
C5    C31   S    
C13   C18   S    
C17   N6    D    
C5    C6    A    
C11   C14   S    
C1    O1    A    
C27   C28   A    
Cu1   O5    S    
Cu2   N6    S    
O11   H19   S    
C19   O7    A    
C4    N1    A    
C16   C17   S    
S1    O10   D    
C23   C24   A    
C13   H2    S    
C31   C32   A    
C1    C15   S    
C9    C10   A    
C16   N5    D    
C19   O8    A    
C21   C22   A    
C17   H7    S    
Cu1   N5    S    
C18   O6    A    
C25   C30   A    
C35   C36   A    
C2    C20   A    
C28   H16   S    
Cu2   O4    S    
C8    C9    A    
Cu1   Cu2   S    
C33   H21   S    
C4    C22   S    
C34   H22   S    
S1    O11   S    
H6    N5    S    
C27   H15   S    
H8    N6    S    
C11   H13   S    
Cu1   O3    S    
C24   S1    S    
Cu2   O2    S    
N1    N2    A    
C4    N4    A    
C7    C19   S    
C35   H23   S    
C2    C24   A    
C8    H11   S    
C14   H3    S    
Cu2   O8    S    
C32   H20   S    
C18   O5    A    
C15   H4    S    
C36   H24   S    
C29   H17   S    
C25   C26   A    
C3    N2    A    
C14   C15   D    
C1    O2    A    
C33   C34   A    
C6    C7    A    
C20   H1    S    
C23   H9    S    
C29   C30   A    
Cu1   O7    S    
C5    C10   A    
C3    C10   S    
Cu2   O6    S    
C11   C13   D    
C28   C29   A    
C21   C25   S    
C9    H12   S    
C6    H10   S    
C32   C33   A    
C20   C21   A    
S1    O9    D    
N3    N4    A    
C31   C36   A    
C22   C23   A    
C26   H14   S    
Cu1   O1    S    
