data_mof_unit_49812.cif
_audit_creation_date              2013-03-05T16:19:18-0500
_audit_creation_method            fapswitch 2.2
_symmetry_space_group_name_H-M    P1
_symmetry_Int_Tables_number       1
_space_group_crystal_system       triclinic
_cell_length_a                    10.658106
_cell_length_b                    9.770598
_cell_length_c                    23.448337
_cell_angle_alpha                 89.860038
_cell_angle_beta                  91.888969
_cell_angle_gamma                 90.10339
_cell_volume                      2440.47980069

loop_
_atom_site_label
_atom_site_type_symbol
_atom_site_description
_atom_site_fract_x
_atom_site_fract_y
_atom_site_fract_z
_atom_type_partial_charge
O1    O     O_R   0.314910 0.616040 0.499990 -0.637367
O2    O     O_R   0.314910 0.383960 0.499990 -0.630694
C1    C     C_R   0.258378 0.499833 0.501169 0.870576
O3    O     O_R   0.500080 0.616070 0.416130 -0.629283
O4    O     O_R   0.500080 0.383930 0.416130 -0.622698
C2    C     C_R   0.499477 0.500250 0.389364 0.906895
Zn1   Zn    Zn3+2 0.500150 0.654960 0.499970 0.909400
Zn2   Zn    Zn3+2 0.500150 0.345040 0.499970 0.913511
O5    O     O_R   0.685320 0.616040 0.499970 -0.648956
O6    O     O_R   0.685320 0.383960 0.499970 -0.638968
O7    O     O_R   0.500150 0.616010 0.583820 -0.630979
O8    O     O_R   0.500150 0.383990 0.583820 -0.622852
C3    C     C_R   0.742035 0.499882 0.500654 0.861078
C4    C     C_R   0.499131 0.499851 0.610695 0.897862
C5    C     C_R   0.604564 0.499641 0.882707 0.509591
N1    N     N_R   0.496613 0.531524 0.852590 -0.355213
C6    C     C_R   0.387273 0.560372 0.878840 0.514465
C7    C     C_R   0.383020 0.555975 0.938331 -0.030078
C8    C     C_R   0.492994 0.523502 0.970263 -0.018497
C9    C     C_R   0.605403 0.496278 0.942246 -0.019896
C10   C     C_R   0.271287 0.581517 0.966143 -0.197705
C11   C     C_R   0.266957 0.574681 0.025492 -0.020773
C12   C     C_R   0.377471 0.542650 0.058460 -0.059486
C13   C     C_R   0.490677 0.517339 0.030189 -0.026599
C14   C     C_R   0.602134 0.485304 0.061600 -0.011451
C15   C     C_R   0.713633 0.459698 0.033269 -0.144916
C16   C     C_R   0.715183 0.464811 0.974106 -0.156013
C17   C     C_R   0.380769 0.535134 0.118555 0.511710
N2    N     N_R   0.490567 0.505649 0.147682 -0.359181
C18   C     C_R   0.599626 0.480328 0.120895 0.516251
O9    O     O_2   0.710117 0.470262 0.854927 -0.541377
O10   O     O_2   0.283135 0.592279 0.847279 -0.542048
H1    H     H_    0.186205 0.606084 0.941583 0.194289
O11   O     O_2   0.276390 0.557412 0.148151 -0.536488
O12   O     O_2   0.705376 0.451446 0.151864 -0.536247
H2    H     H_    0.800033 0.435231 0.056695 0.200761
H3    H     H_    0.802552 0.443919 0.953477 0.194239
C19   C     C_R   0.503766 0.628871 0.238571 0.052013
C20   C     C_R   0.506146 0.626558 0.297866 -0.251011
H4    H     H_    0.514987 0.722234 0.320986 0.152791
C21   C     C_R   0.497657 0.501556 0.327159 -0.045353
C22   C     C_R   0.486821 0.378587 0.296620 -0.188339
H5    H     H_    0.479964 0.281073 0.318370 0.154632
C23   C     C_R   0.484149 0.380712 0.237409 -0.099157
H6    H     H_    0.475678 0.285697 0.213895 0.149214
C24   C     C_R   0.492397 0.505332 0.208415 0.278636
C25   C     C_R   0.440162 0.412958 0.764957 -0.141587
H7    H     H_    0.397259 0.334816 0.790847 0.150774
C26   C     C_R   0.439653 0.399780 0.705758 0.181374
C27   C     C_R   0.498746 0.502228 0.673223 -0.079776
C28   C     C_R   0.554640 0.615318 0.700905 -0.262165
H8    H     H_    0.600445 0.693812 0.676554 0.169969
C29   C     C_R   0.552778 0.629218 0.759891 0.240515
C30   C     C_R   0.496028 0.525899 0.791899 0.269444
C31   C     C_3   0.069742 0.554640 0.442528 -0.213525
C32   C     C_3   0.076096 0.596919 0.549705 -0.201367
H9    H     H_    0.103200 0.661785 0.436975 0.121712
H10   H     H_    0.103130 0.703685 0.538605 0.119243
C33   C     C_3   0.923576 0.558516 0.442932 -0.213828
C34   C     C_3   0.930287 0.592268 0.550922 -0.208868
H11   H     H_    0.894319 0.667765 0.439921 0.122048
H12   H     H_    0.896068 0.698666 0.543658 0.123653
H13   H     H_    0.105801 0.280428 0.478917 0.185451
H14   H     H_    0.106957 0.313563 0.554077 0.177943
H15   H     H_    0.895841 0.284289 0.473888 0.186114
H16   H     H_    0.895743 0.306184 0.549680 0.181649
C35   C     C_3   0.072040 0.352460 0.511784 -0.404936
C36   C     C_3   0.121873 0.500051 0.501464 0.044462
C37   C     C_3   0.878660 0.499878 0.500991 0.054349
C38   C     C_3   0.929637 0.351597 0.509466 -0.398644
C39   C     C_3   0.397775 0.080010 0.533234 -0.244267
C40   C     C_3   0.397612 0.918815 0.533223 -0.232639
H17   H     H_    0.305246 0.117157 0.516284 0.147452
H18   H     H_    0.305188 0.882032 0.515914 0.145185
H19   H     H_    0.405544 0.117889 0.577493 0.160521
H20   H     H_    0.404429 0.879390 0.577615 0.164017
H21   H     H_    0.389475 0.119312 0.421257 0.174093
H22   H     H_    0.390006 0.880834 0.421093 0.172260
C41   C     C_3   0.479939 0.081336 0.440285 -0.312502
C42   C     C_3   0.480192 0.919274 0.440274 -0.315587
C43   C     C_3   0.622920 0.081871 0.521304 0.150863
C44   C     C_3   0.622770 0.918439 0.521451 0.159118
N3    N     N_3   0.499750 0.138610 0.498760 -0.046988
N4    N     N_3   0.499750 0.861390 0.498760 -0.046886
H23   H     H_    0.696758 0.114433 0.491529 0.108453
H24   H     H_    0.697055 0.885895 0.492011 0.107214
H25   H     H_    0.554400 0.119381 0.412089 0.157581
H26   H     H_    0.555037 0.882171 0.412221 0.152757
C45   C     C_3   0.374752 0.277285 0.679412 -0.868495
H27   H     H_    0.312879 0.307883 0.642603 0.246411
H28   H     H_    0.446617 0.203980 0.665863 0.230537
H29   H     H_    0.315118 0.223584 0.710392 0.237254
C46   C     C_3   0.610728 0.755180 0.786779 -0.825215
H30   H     H_    0.597767 0.759977 0.833445 0.241172
H31   H     H_    0.712899 0.757115 0.778956 0.256778
H32   H     H_    0.566737 0.847948 0.767385 0.226503
C47   C     C_1   0.120710 0.476638 0.394108 0.195429
N5    N     N_1   0.160800 0.416037 0.356476 -0.185308
C48   C     C_1   0.139134 0.569616 0.605956 0.177249
N6    N     N_1   0.187553 0.549561 0.650055 -0.181540
C49   C     C_1   0.861328 0.489570 0.393100 0.188257
N7    N     N_1   0.812781 0.435862 0.354338 -0.177972
C50   C     C_1   0.880551 0.548882 0.606680 0.157594
N8    N     N_1   0.841577 0.515030 0.650000 -0.189435
C51   C     C_1   0.146817 0.600958 0.050184 0.283332
N9    N     N_1   0.050366 0.621994 0.069677 -0.152877
C52   C     C_3   0.667280 0.143879 0.579587 -0.820971
H33   H     H_    0.676736 0.254783 0.579715 0.283475
H34   H     H_    0.605525 0.114569 0.614529 0.227708
H35   H     H_    0.764392 0.110699 0.590669 0.197226
C53   C     C_3   0.665595 0.856517 0.579960 -0.849811
H36   H     H_    0.677137 0.745938 0.579458 0.279892
H37   H     H_    0.761624 0.891388 0.592223 0.201961
H38   H     H_    0.601108 0.883101 0.614268 0.227732
C54   C     C_1   0.513863 0.758075 0.209111 0.186995
N10   N     N_1   0.521932 0.861634 0.185445 -0.184817

loop_
_geom_bond_atom_site_label_1
_geom_bond_atom_site_label_2
_geom_bond_distance
_ccdc_geom_bond_type
C39   H19   1.103163 S    
C43   C52   1.555225 S    
C40   H18   1.112347 S    
C46   H30   1.108559 S    
C31   C33   1.558727 S    
C7    C10   1.399575 A    
C21   C22   1.402830 A    
C1    C36   1.455132 S    
C40   H20   1.109205 S    
C41   H25   1.112395 S    
C31   C36   1.565175 S    
C25   C26   1.394233 A    
C4    C27   1.466548 S    
C29   C30   1.404355 A    
Zn1   O7    2.001720 S    
C15   C16   1.388700 A    
C49   N7    1.157381 T    
C18   O12   1.350364 S    
C17   N2    1.366191 A    
O4    C2    1.296876 A    
O7    C4    1.297022 A    
H22   C42   1.112786 S    
C10   H1    1.085030 S    
C5    N1    1.366085 A    
Zn2   N3    2.017209 S    
C34   H12   1.113167 S    
C7    C8    1.406232 A    
O5    C3    1.286653 A    
C8    C9    1.411253 A    
N1    C6    1.365915 A    
C2    C21   1.458118 S    
C52   H33   1.088105 S    
C45   H28   1.104413 S    
C34   C50   1.487369 S    
C42   N4    1.490590 S    
Zn1   N4    2.017086 S    
C17   O11   1.348758 S    
C46   H31   1.110361 S    
C10   C11   1.395339 A    
C52   H34   1.104652 S    
C22   C23   1.387872 A    
O3    Zn1   2.003181 S    
C43   N3    1.505176 S    
C23   C24   1.397149 A    
C47   N5    1.157643 T    
C39   N3    1.488608 S    
H21   C41   1.112872 S    
C5    C9    1.396129 A    
H13   C35   1.113822 S    
C33   H11   1.113998 S    
C29   C46   1.506333 S    
C28   H8    1.080494 S    
C33   C49   1.486741 S    
H14   C35   1.113893 S    
C19   C20   1.389908 A    
C13   C14   1.412138 A    
O3    C2    1.295263 A    
C20   H4    1.084174 S    
C39   H17   1.112207 S    
C27   C28   1.404558 A    
C14   C15   1.403592 A    
C32   C36   1.567375 S    
C43   C44   1.596824 S    
C35   C36   1.556976 S    
O1    C1    1.285084 A    
H15   C38   1.113655 S    
N2    C18   1.362622 A    
C25   H7    1.084126 S    
Zn2   O8    2.003545 S    
C31   C47   1.487069 S    
C6    C7    1.397733 A    
C53   H37   1.107301 S    
C12   C17   1.410138 A    
C45   H29   1.111006 S    
C40   N4    1.488392 S    
C33   C37   1.564919 S    
C25   C30   1.395554 A    
C15   H2    1.083354 S    
O8    C4    1.297198 A    
C46   H32   1.110694 S    
C44   N4    1.505237 S    
C31   H9    1.114048 S    
C52   H35   1.107681 S    
C22   H5    1.083064 S    
C23   H6    1.083004 S    
C14   C18   1.392235 A    
Zn1   O5    2.010538 S    
C53   H36   1.087758 S    
O1    Zn1   2.009936 S    
O2    Zn2   2.011284 S    
C26   C45   1.504987 S    
O6    C3    1.282756 A    
O4    Zn2   2.001358 S    
C5    O9    1.350084 S    
C9    C16   1.401502 A    
C11   C51   1.446207 S    
C51   N9    1.157641 T    
C48   N6    1.156794 T    
N2    C24   1.423572 S    
C35   C38   1.516937 S    
C44   C53   1.553154 S    
O2    C1    1.284240 A    
C39   C40   1.574969 S    
C42   H26   1.112311 S    
C44   H24   1.114687 S    
C41   N3    1.490648 S    
C19   C54   1.443109 S    
H16   C38   1.111924 S    
C3    C37   1.455929 S    
C34   C37   1.565023 S    
C16   H3    1.083340 S    
C32   H10   1.114233 S    
C8    C13   1.407328 A    
C53   H38   1.106856 S    
C37   C38   1.558207 S    
N1    C30   1.424106 S    
C19   C24   1.403436 A    
C12   C13   1.418097 A    
C41   C42   1.583450 S    
C32   C34   1.555839 S    
C20   C21   1.404009 A    
Zn2   O6    2.009190 S    
C26   C27   1.416442 A    
C50   N8    1.157348 T    
C6    O10   1.350091 S    
C11   C12   1.422342 A    
C32   C48   1.484178 S    
C28   C29   1.390890 A    
C45   H27   1.109579 S    
C43   H23   1.114551 S    
C54   N10   1.157258 T    
