data_mof_unit_18862.cif
_audit_creation_date              2012-12-10T18:59:17-0500
_audit_creation_method            fapswitch 2.2
_symmetry_space_group_name_H-M    P1
_symmetry_Int_Tables_number       1
_space_group_crystal_system       triclinic
_cell_length_a                    9.796693
_cell_length_b                    10.730189
_cell_length_c                    16.895715
_cell_angle_alpha                 89.471951
_cell_angle_beta                  92.581076
_cell_angle_gamma                 89.216378
_cell_volume                      1774.03004604

loop_
_atom_site_label
_atom_site_type_symbol
_atom_type_description
_atom_site_fract_x
_atom_site_fract_y
_atom_site_fract_z
_atom_type_partial_charge
C1    C     C_R   0.501151 0.259804 0.501091 0.971544
C2    C     C_R   0.077496 0.424998 0.551162 -0.308289
C3    C     C_R   0.515312 0.497060 0.653382 0.952332
C4    C     C_R   0.484572 0.499107 0.346572 0.915544
C5    C     C_R   0.520910 0.481731 0.739092 -0.279357
C6    C     C_R   0.477957 0.480901 0.261149 -0.291130
C7    C     C_R   0.410991 0.428649 0.777756 0.391219
C8    C     C_R   0.589697 0.428842 0.222468 0.410556
C9    C     C_R   0.427489 0.396323 0.857675 0.302939
C10   C     C_R   0.572132 0.391481 0.143926 0.336249
C11   C     C_R   0.543531 0.438132 0.902185 0.033251
C12   C     C_R   0.498986 0.740024 0.499170 0.992285
C13   C     C_R   0.450938 0.427602 0.100188 0.011033
C14   C     C_R   0.652648 0.491506 0.863769 0.483021
C15   C     C_R   0.338413 0.473355 0.139347 0.465734
C16   C     C_R   0.640086 0.513887 0.782225 -0.409748
C17   C     C_R   0.353422 0.502941 0.219317 -0.426797
C18   C     C_R   0.399301 0.064736 0.539867 0.373514
C19   C     C_R   0.600258 0.934903 0.458076 0.404821
C20   C     C_3   0.805069 0.498426 0.245452 -0.257718
C21   C     C_3   0.190196 0.488858 0.752895 -0.257952
C22   C     C_3   0.636265 0.206669 0.086313 0.099948
C23   C     C_R   0.393069 0.935968 0.535435 0.357338
C24   C     C_3   0.658560 0.112093 0.154098 -0.380971
C25   C     C_3   0.635856 0.979487 0.124850 -0.968227
C26   C     C_3   0.359281 0.198815 0.884681 0.108444
C27   C     C_3   0.227080 0.124580 0.881308 -0.333793
C28   C     C_3   0.255768 0.984927 0.875464 -0.966138
C29   C     C_3   0.886853 0.477801 0.887557 0.114036
C30   C     C_3   0.913452 0.355554 0.933934 -0.353065
C31   C     C_3   0.862439 0.241742 0.888562 -0.933630
C32   C     C_3   0.115598 0.409564 0.126599 0.100401
C33   C     C_3   0.151786 0.271682 0.112286 -0.391635
C34   C     C_R   0.607632 0.062688 0.464128 0.363874
C35   C     C_3   0.033304 0.186868 0.130017 -0.948821
C36   C     C_3   0.355898 0.132796 0.662950 -0.257730
C37   C     C_3   0.646787 0.835990 0.343481 -0.358928
C38   C     C_3   0.163737 0.901680 0.553087 -0.156645
C39   C     C_3   0.717798 0.155009 0.363150 -0.183771
C40   C     C_3   0.067187 0.749505 0.361699 0.038520
C41   C     C_3   0.166951 0.837360 0.323292 -0.310991
C42   C     C_3   0.094496 0.955600 0.291558 -0.978042
C43   C     C_3   0.913029 0.234004 0.617156 0.085245
C44   C     C_3   0.804612 0.156447 0.656447 -0.298365
C45   C     C_R   0.496231 0.872348 0.496449 -0.420135
C46   C     C_3   0.850587 0.020955 0.668232 -0.978834
C47   C     C_R   0.503185 0.127151 0.501720 -0.434826
C48   C     C_R   0.068386 0.575905 0.448093 0.529840
C49   C     C_R   0.932027 0.424024 0.551485 0.537409
C50   C     C_R   0.922216 0.573885 0.448148 -0.312778
H1    H     H_    0.721539 0.560293 0.752817 0.202163
H2    H     H_    0.092226 0.461961 0.722856 0.168956
H3    H     H_    0.699589 0.178471 0.036446 0.165740
H4    H     H_    0.528078 0.203022 0.063549 0.122535
H5    H     H_    0.764217 0.119196 0.180027 0.244020
H6    H     H_    0.585758 0.132690 0.200944 0.199405
H7    H     H_    0.529152 0.969229 0.100907 0.268043
H8    H     H_    0.654384 0.912358 0.174537 0.256634
H9    H     H_    0.707711 0.956693 0.077885 0.273065
H10   H     H_    0.423740 0.168204 0.937204 0.130412
H11   H     H_    0.415807 0.176865 0.830434 0.107584
H12   H     H_    0.267486 0.543121 0.248736 0.218898
H13   H     H_    0.169579 0.142084 0.935250 0.226202
H14   H     H_    0.162206 0.155601 0.828976 0.229218
H15   H     H_    0.310832 0.964119 0.820999 0.262586
H16   H     H_    0.157685 0.934145 0.872956 0.271213
H17   H     H_    0.318300 0.951499 0.928112 0.270338
H18   H     H_    0.970291 0.542541 0.904839 0.141556
H19   H     H_    0.895464 0.463808 0.822786 0.125349
H20   H     H_    0.025270 0.343620 0.945931 0.215889
H21   H     H_    0.863764 0.360179 0.991574 0.262025
H22   H     H_    0.750560 0.248169 0.875591 0.254082
H23   H     H_    0.859308 0.630066 0.407246 0.177975
H24   H     H_    0.884857 0.156416 0.924776 0.253832
H25   H     H_    0.915983 0.233317 0.832327 0.260701
H26   H     H_    0.017163 0.432617 0.094507 0.172958
H27   H     H_    0.098366 0.425008 0.190382 0.126542
H28   H     H_    0.179332 0.259728 0.049894 0.240864
H29   H     H_    0.241402 0.242681 0.151141 0.203236
H30   H     H_    0.004534 0.198210 0.192423 0.277173
H31   H     H_    0.063923 0.088258 0.120786 0.266276
H32   H     H_    0.943791 0.209194 0.089745 0.283086
H33   H     H_    0.443921 0.196855 0.669380 0.151397
H34   H     H_    0.138959 0.367761 0.592216 0.214925
H35   H     H_    0.385497 0.038716 0.686825 0.162072
H36   H     H_    0.272985 0.168369 0.699374 0.214553
H37   H     H_    0.733156 0.813593 0.305600 0.171286
H38   H     H_    0.584065 0.911054 0.312972 0.140955
H39   H     H_    0.584321 0.751150 0.348101 0.170574
H40   H     H_    0.120743 0.969580 0.594650 0.188458
H41   H     H_    0.153295 0.939943 0.491551 0.139916
H42   H     H_    0.101024 0.816518 0.555277 0.159363
H43   H     H_    0.798238 0.224169 0.352880 0.220628
H44   H     H_    0.617302 0.198443 0.344549 0.135958
H45   H     H_    0.765932 0.591405 0.263208 0.136010
H46   H     H_    0.740588 0.073540 0.326008 0.163684
H47   H     H_    0.012665 0.801954 0.407635 0.164453
H48   H     H_    0.993095 0.716763 0.314834 0.127361
H49   H     H_    0.248807 0.863389 0.367521 0.218754
H50   H     H_    0.215675 0.788877 0.273762 0.221500
H51   H     H_    0.047668 0.007052 0.340499 0.276235
H52   H     H_    0.013534 0.932050 0.246203 0.269940
H53   H     H_    0.169684 0.017022 0.263961 0.267522
H54   H     H_    0.006745 0.232821 0.656845 0.136821
H55   H     H_    0.935569 0.191169 0.559150 0.179653
H56   H     H_    0.827773 0.499796 0.181573 0.181964
H57   H     H_    0.782053 0.197141 0.714665 0.209734
H58   H     H_    0.708617 0.159331 0.619228 0.237540
H59   H     H_    0.866472 0.977049 0.610012 0.279124
H60   H     H_    0.770451 0.968675 0.698367 0.266502
H61   H     H_    0.946896 0.015295 0.705497 0.262997
H62   H     H_    0.902589 0.479933 0.279697 0.167400
H63   H     H_    0.217907 0.582041 0.729566 0.175159
H64   H     H_    0.172160 0.494476 0.817289 0.176159
N1    N     N_2   0.552515 0.434192 0.985691 -0.084734
N2    N     N_2   0.440379 0.424218 0.016776 -0.077294
N3    N     N_R   0.857210 0.499970 0.500020 -0.109708
N4    N     N_R   0.142790 0.500030 0.499980 -0.116540
O1    O     O_R   0.614620 0.316750 0.500010 -0.561472
O2    O     O_3   0.290891 0.398465 0.736601 -0.601437
O3    O     O_3   0.678385 0.327115 0.110167 -0.624676
O4    O     O_3   0.326909 0.327080 0.891686 -0.613093
O5    O     O_3   0.763085 0.535797 0.908752 -0.612003
O6    O     O_3   0.214773 0.491269 0.097474 -0.619363
O7    O     O_3   0.305846 0.129264 0.583503 -0.595719
O8    O     O_3   0.700833 0.871910 0.418702 -0.565674
O9    O     O_3   0.299445 0.869891 0.578266 -0.591707
O10   O     O_3   0.726268 0.121665 0.443955 -0.578355
O11   O     O_3   0.141396 0.646882 0.395369 -0.618210
O12   O     O_R   0.385380 0.683250 0.499990 -0.558266
O13   O     O_3   0.862427 0.357357 0.607383 -0.623262
O14   O     O_R   0.385290 0.316780 0.500000 -0.583482
O15   O     O_R   0.614710 0.683220 0.500000 -0.597555
O16   O     O_R   0.627460 0.498830 0.616130 -0.592269
O17   O     O_R   0.372540 0.501170 0.383870 -0.589514
O18   O     O_R   0.398130 0.498850 0.616130 -0.578094
O19   O     O_R   0.601870 0.501150 0.383870 -0.592134
O20   O     O_3   0.712711 0.403474 0.263019 -0.597749
Zn1   Zn    Zn3+2 0.653130 0.499980 0.500000 1.012585
Zn2   Zn    Zn3+2 0.346870 0.500020 0.500000 1.021793

loop_
_geom_bond_atom_site_label_1
_geom_bond_atom_site_label_2
_ccdc_geom_bond_type
C40   O11   S    
C23   C45   A    
C50   N3    A    
C41   C42   S    
C32   O6    S    
C37   H38   S    
C2    H34   S    
C36   O7    S    
C16   H1    S    
O18   Zn2   S    
C1    O14   A    
O12   Zn2   S    
C18   C47   A    
C38   O9    S    
C35   H31   S    
C22   H4    S    
C24   H5    S    
C49   O13   S    
C26   C27   S    
C12   O12   A    
C26   H11   S    
C21   O2    S    
C18   O7    S    
C40   H48   S    
C30   C31   S    
C11   C14   A    
C33   H28   S    
C36   H33   S    
N1    N2    D    
C38   H42   S    
C35   H30   S    
C8    O20   S    
C3    O18   A    
C1    O1    A    
C20   O20   S    
C43   H54   S    
C39   H43   S    
C5    C16   A    
C32   H27   S    
C20   H62   S    
C49   N3    A    
C41   H49   S    
C14   O5    S    
C11   N1    S    
C20   H56   S    
C10   O3    S    
C48   C50   A    
C4    O19   A    
C46   H61   S    
C42   H53   S    
N3    Zn1   S    
C25   H7    S    
N4    Zn2   S    
C42   H52   S    
C30   H20   S    
C35   H32   S    
C44   C46   S    
C30   H21   S    
C22   H3    S    
C29   H19   S    
C44   H58   S    
C2    N4    A    
O17   Zn2   S    
C15   O6    S    
C18   C23   A    
C28   H17   S    
C24   C25   S    
C21   H63   S    
C50   H23   S    
C40   H47   S    
C5    C7    A    
C1    C47   S    
C31   H24   S    
C6    C8    A    
C36   H36   S    
C38   H41   S    
C19   C34   A    
C28   H16   S    
C43   C44   S    
C39   H44   S    
C29   C30   S    
C2    C49   A    
C17   H12   S    
C29   H18   S    
O19   Zn1   S    
C31   H25   S    
C43   H55   S    
C9    O4    S    
C41   H50   S    
C9    C11   A    
C27   H13   S    
C4    O17   A    
C4    C6    S    
C40   C41   S    
C20   H45   S    
O15   Zn1   S    
C12   O15   A    
C13   C15   A    
C14   C16   A    
C48   O11   S    
C24   H6    S    
C25   H8    S    
C42   H51   S    
O16   Zn1   S    
C22   O3    S    
C23   O9    S    
C37   O8    S    
C44   H57   S    
C15   C17   A    
C6    C17   A    
C31   H22   S    
C39   O10   S    
C7    O2    S    
C37   H37   S    
C33   H29   S    
C21   H64   S    
C3    C5    S    
C10   C13   A    
C32   H26   S    
C48   N4    A    
C19   C45   A    
C34   O10   S    
C12   C45   S    
C36   H35   S    
O14   Zn2   S    
C25   H9    S    
C38   H40   S    
C19   O8    S    
C37   H39   S    
C3    O16   A    
O1    Zn1   S    
C32   C33   S    
C46   H60   S    
C28   H15   S    
C29   O5    S    
C43   O13   S    
C33   C35   S    
C22   C24   S    
C39   H46   S    
C13   N2    S    
C27   H14   S    
C7    C9    A    
C8    C10   A    
C46   H59   S    
C27   C28   S    
C34   C47   A    
C26   O4    S    
C26   H10   S    
C21   H2    S    
