data_mof_unit_25237.cif
_audit_creation_date              2012-12-10T18:47:08-0500
_audit_creation_method            fapswitch 2.2
_symmetry_space_group_name_H-M    P1
_symmetry_Int_Tables_number       1
_space_group_crystal_system       triclinic
_cell_length_a                    10.772777
_cell_length_b                    9.915333
_cell_length_c                    14.904415
_cell_angle_alpha                 89.95073
_cell_angle_beta                  91.951794
_cell_angle_gamma                 90.594327
_cell_volume                      1591.01565428

loop_
_atom_site_label
_atom_site_type_symbol
_atom_type_description
_atom_site_fract_x
_atom_site_fract_y
_atom_site_fract_z
_atom_type_partial_charge
Br1   Br    Br    0.133055 0.609863 0.872876 -0.358462
Br2   Br    Br    0.866941 0.390125 0.127124 -0.358461
Br3   Br    Br    0.141415 0.668671 0.087019 -0.300563
Br4   Br    Br    0.858580 0.331320 0.912980 -0.300560
Br5   Br    Br    0.685839 0.167424 0.641584 -0.369803
Br6   Br    Br    0.314161 0.832576 0.358416 -0.369803
Br7   Br    Br    0.317994 0.163839 0.355805 -0.374918
Br8   Br    Br    0.682006 0.836161 0.644195 -0.374918
C1    C     C_R   0.260704 0.499270 0.508023 0.874998
C2    C     C_R   0.127131 0.498012 0.515727 -0.149223
C3    C     C_R   0.575874 0.072488 0.558787 0.246778
C4    C     C_R   0.424126 0.927512 0.441213 0.246778
C5    C     C_R   0.424538 0.070985 0.440931 0.245823
C6    C     C_R   0.575461 0.929015 0.559069 0.245823
C7    C     C_R   0.498776 0.500071 0.327433 0.872206
C8    C     C_R   0.501224 0.499929 0.672567 0.872206
C9    C     C_R   0.616732 0.479421 0.816060 -0.035653
C10   C     C_R   0.383266 0.520578 0.183940 -0.035652
C11   C     C_R   0.505018 0.499405 0.767996 -0.090836
C12   C     C_R   0.739296 0.500730 0.491978 0.874998
C13   C     C_R   0.494981 0.500595 0.232004 -0.090836
C14   C     C_R   0.394508 0.520895 0.809345 -0.167088
C15   C     C_R   0.605491 0.479103 0.190654 -0.167088
C16   C     C_R   0.391720 0.527535 0.901979 0.024007
C17   C     C_R   0.608277 0.472461 0.098020 0.024007
C18   C     C_R   0.501718 0.498899 0.953148 -0.011833
C19   C     C_R   0.498279 0.501097 0.046852 -0.011833
C20   C     C_R   0.614610 0.467187 0.910252 -0.027985
C21   C     C_R   0.385388 0.532809 0.089748 -0.027984
C22   C     C_R   0.282000 0.565520 0.943506 0.242591
C23   C     C_R   0.280421 0.574974 0.037024 0.232990
C24   C     C_R   0.717997 0.434474 0.056494 0.242591
C25   C     C_1   0.731110 0.489734 0.767480 0.339475
C26   C     C_1   0.268889 0.510264 0.232521 0.339475
C27   C     C_1   0.115542 0.245677 0.528556 0.306801
C28   C     C_1   0.884458 0.754323 0.471444 0.306801
C29   C     C_1   0.876551 0.255167 0.447690 0.298366
C30   C     C_1   0.123449 0.744833 0.552310 0.298366
C31   C     C_R   0.719576 0.425019 0.962976 0.232990
C32   C     C_R   0.060713 0.375202 0.506045 -0.051490
C33   C     C_R   0.939287 0.624798 0.493955 -0.051490
C34   C     C_R   0.935940 0.378202 0.481722 -0.049160
C35   C     C_R   0.064060 0.621798 0.518279 -0.049160
C36   C     C_R   0.872869 0.501988 0.484274 -0.149224
H1    H     H_    0.312117 0.536701 0.767232 0.170538
H2    H     H_    0.687882 0.463297 0.232768 0.170538
N1    N     N_R   0.500000 0.857200 0.500000 -0.174103
N2    N     N_R   0.500000 0.142800 0.500000 -0.174103
N3    N     N_1   0.821341 0.499140 0.727762 -0.107123
N4    N     N_1   0.178659 0.500859 0.272240 -0.107125
N5    N     N_1   0.158441 0.142513 0.547310 -0.140021
N6    N     N_1   0.841559 0.857487 0.452690 -0.140021
N7    N     N_1   0.829370 0.157682 0.420013 -0.137386
N8    N     N_1   0.170630 0.842318 0.579987 -0.137387
O1    O     O_R   0.316770 0.614620 0.499990 -0.595384
O2    O     O_R   0.683230 0.385380 0.500010 -0.595384
O3    O     O_R   0.683230 0.614620 0.500010 -0.597913
O4    O     O_R   0.316770 0.385380 0.499990 -0.597914
O5    O     O_R   0.499980 0.614680 0.367850 -0.581578
O6    O     O_R   0.500020 0.385320 0.632150 -0.581578
O7    O     O_R   0.500020 0.614680 0.632150 -0.582407
O8    O     O_R   0.499980 0.385320 0.367850 -0.582407
Zn1   Zn    Zn3+2 0.500000 0.653120 0.500000 1.048355
Zn2   Zn    Zn3+2 0.500000 0.346880 0.500000 1.048355

loop_
_geom_bond_atom_site_label_1
_geom_bond_atom_site_label_2
_ccdc_geom_bond_type
C5    N2    A    
Br8   C6    S    
O2    Zn2   S    
O3    Zn1   S    
C6    N1    A    
C1    O1    A    
C28   C33   S    
C17   C19   A    
C10   C13   A    
C10   C26   S    
C1    C2    S    
C20   C31   A    
C18   C20   A    
C28   N6    T    
Br4   C31   S    
O6    Zn2   S    
C12   O2    A    
C29   N7    T    
C11   C14   A    
C17   C24   A    
C32   C34   A    
C27   C32   S    
C3    N2    A    
C30   C35   S    
C21   C23   A    
C15   H2    S    
O1    Zn1   S    
N1    Zn1   S    
Br3   C23   S    
C33   C35   A    
C18   C19   A    
C7    C13   S    
C34   C36   A    
C8    C11   S    
Br6   C4    S    
Br2   C24   S    
Br1   C22   S    
C12   C36   S    
C7    O8    A    
C16   C18   A    
Br5   C3    S    
C16   C22   A    
C15   C17   A    
C13   C15   A    
C27   N5    T    
C22   C23   A    
C33   C36   A    
C14   C16   A    
C26   N4    T    
C19   C21   A    
C8    O7    A    
C29   C34   S    
N2    Zn2   S    
C25   N3    T    
Br7   C5    S    
C14   H1    S    
C4    C5    A    
C2    C32   A    
C1    O4    A    
C8    O6    A    
C24   C31   A    
C3    C6    A    
C10   C21   A    
O8    Zn2   S    
O4    Zn2   S    
C9    C11   A    
C12   O3    A    
C9    C20   A    
O5    Zn1   S    
O7    Zn1   S    
C4    N1    A    
C2    C35   A    
C9    C25   S    
C7    O5    A    
C30   N8    T    
