data_mof_unit_11481.cif
_audit_creation_date              2012-12-10T18:33:42-0500
_audit_creation_method            fapswitch 2.2
_symmetry_space_group_name_H-M    P1
_symmetry_Int_Tables_number       1
_space_group_crystal_system       triclinic
_cell_length_a                    10.501746
_cell_length_b                    14.960424
_cell_length_c                    15.582003
_cell_angle_alpha                 82.179883
_cell_angle_beta                  89.220739
_cell_angle_gamma                 104.514887
_cell_volume                      2345.01412881

loop_
_atom_site_label
_atom_site_type_symbol
_atom_type_description
_atom_site_fract_x
_atom_site_fract_y
_atom_site_fract_z
_atom_type_partial_charge
C1    C     C_R   0.484192 0.441643 0.661753 0.867007
C2    C     C_R   0.522504 0.558424 0.338103 0.864220
C3    C     C_R   0.523630 0.467027 0.813059 -0.065015
C4    C     C_R   0.543290 0.532170 0.186127 -0.078890
C5    C     C_R   0.474655 0.445745 0.899331 0.041462
C6    C     C_R   0.512583 0.554349 0.100108 0.041115
C7    C     C_R   0.408705 0.352111 0.931505 0.164441
C8    C     C_R   0.518454 0.648580 0.068123 0.165222
C9    C     C_R   0.489939 0.514519 0.954697 0.065387
C10   C     C_R   0.477513 0.485865 0.044721 0.063837
C11   C     C_R   0.418869 0.391046 0.076799 -0.205444
C12   C     C_R   0.504696 0.609909 0.922687 -0.200836
C13   C     C_R   0.380641 0.325661 0.020424 -0.229177
C14   C     C_R   0.513799 0.675525 0.979178 -0.234660
C15   C     C_R   0.729217 0.850168 0.610655 -0.322971
C16   C     C_R   0.271893 0.148408 0.390360 -0.327636
C17   C     C_R   0.685429 0.758672 0.595548 0.037271
C18   C     C_R   0.321422 0.241861 0.398120 0.013368
C19   C     C_R   0.501271 0.791041 0.523994 -0.068513
C20   C     C_R   0.489309 0.207371 0.486580 -0.051532
C21   C     C_R   0.538342 0.884953 0.538908 -0.005517
C22   C     C_R   0.447557 0.111690 0.478538 -0.004683
C23   C     C_R   0.742529 0.500576 0.500059 0.859398
C24   C     C_R   0.257463 0.499422 0.499943 0.863167
C25   C     C_R   0.656924 0.915039 0.582079 0.100125
C26   C     C_R   0.330950 0.081443 0.433495 0.123194
C27   C     C_R   0.465347 0.949997 0.508055 0.062955
C28   C     C_R   0.516440 0.045954 0.514699 0.060746
C29   C     C_R   0.636247 0.073747 0.555604 -0.283032
C30   C     C_R   0.342245 0.921480 0.471311 -0.286157
C31   C     C_R   0.704440 0.009966 0.591027 -0.004689
C32   C     C_R   0.275723 0.985291 0.433370 0.003814
C33   C     C_3   0.929038 0.417429 0.481729 -0.130268
C34   C     C_3   0.070915 0.582557 0.518288 -0.128389
C35   C     C_3   0.015599 0.430777 0.560501 -0.185809
C36   C     C_3   0.984355 0.569206 0.439516 -0.177513
C37   C     C_3   0.122118 0.499326 0.499883 0.022394
C38   C     C_3   0.877844 0.500660 0.500132 0.029467
C39   C     C_3   0.038257 0.486210 0.421156 -0.181767
C40   C     C_3   0.961687 0.513776 0.578864 -0.176391
C41   C     C_R   0.471640 0.406045 0.754254 -0.103354
C42   C     C_R   0.535754 0.593648 0.245351 -0.107683
C43   C     C_R   0.371252 0.286978 0.873907 -0.205814
C44   C     C_R   0.527928 0.713779 0.125919 -0.207215
C45   C     C_R   0.397044 0.315246 0.785012 -0.220537
C46   C     C_R   0.529652 0.685113 0.214809 -0.227992
H1    H     H_    0.032944 0.374311 0.609405 0.142014
H2    H     H_    0.967011 0.625650 0.390587 0.138808
H3    H     H_    0.567395 0.235611 0.526696 0.129165
H4    H     H_    0.419528 0.763852 0.486046 0.127530
H5    H     H_    0.272853 0.293168 0.368337 0.133103
H6    H     H_    0.743115 0.709526 0.614962 0.157306
H7    H     H_    0.821682 0.869707 0.641524 0.165615
H8    H     H_    0.186993 0.129357 0.351847 0.158324
H9    H     H_    0.681072 0.145609 0.561089 0.142546
H10   H     H_    0.292434 0.848812 0.473472 0.140399
H11   H     H_    0.867569 0.349810 0.466906 0.143907
H12   H     H_    0.132398 0.650170 0.533110 0.143294
H13   H     H_    0.074068 0.474767 0.357189 0.135962
H14   H     H_    0.925790 0.525221 0.642812 0.147227
H15   H     H_    0.330729 0.254321 0.046482 0.145876
H16   H     H_    0.518950 0.747391 0.953193 0.145032
H17   H     H_    0.526836 0.734279 0.259363 0.160646
H18   H     H_    0.358968 0.266525 0.740485 0.157711
H19   H     H_    0.317379 0.215745 0.897188 0.135447
H20   H     H_    0.528468 0.785538 0.102767 0.138112
H21   H     H_    0.393478 0.367917 0.145130 0.156755
H22   H     H_    0.499629 0.633513 0.854350 0.162939
N1    N     N_R   0.574200 0.731700 0.552740 -0.104297
N2    N     N_R   0.425800 0.268300 0.447260 -0.098950
O1    O     O_R   0.462600 0.383110 0.605620 -0.623616
O2    O     O_R   0.537400 0.616890 0.394380 -0.620771
O3    O     O_R   0.510210 0.531900 0.639510 -0.603993
O4    O     O_R   0.489790 0.468100 0.360490 -0.605989
O5    O     O_R   0.662240 0.425610 0.483080 -0.625926
O6    O     O_R   0.337760 0.574390 0.516920 -0.628251
O7    O     O_R   0.709860 0.574400 0.516970 -0.626889
O8    O     O_R   0.290140 0.425600 0.483030 -0.629950
Zn1   Zn    Zn3+2 0.468210 0.400660 0.477370 0.937526
Zn2   Zn    Zn3+2 0.531790 0.599340 0.522630 0.940524
C47   C     C_1   0.602851 0.454835 0.209903 0.185800
N3    N     N_1   0.650501 0.393494 0.228846 -0.200399
C48   C     C_1   0.641942 0.541812 0.788647 0.171665
N4    N     N_1   0.736681 0.600938 0.769714 -0.235054
C49   C     C_R   0.828130 0.046639 0.634242 0.125989
C50   C     C_R   0.932635 0.114529 0.587853 -0.189106
C51   C     C_R   0.048260 0.150358 0.628727 -0.141418
C52   C     C_R   0.059760 0.119543 0.716366 -0.103815
C53   C     C_R   0.955546 0.053248 0.763329 -0.133303
C54   C     C_R   0.839793 0.017196 0.722670 -0.160724
H23   H     H_    0.924863 0.139091 0.519921 0.127088
H24   H     H_    0.128820 0.202043 0.592493 0.145139
H25   H     H_    0.149135 0.147173 0.748058 0.117814
H26   H     H_    0.964355 0.029937 0.831337 0.129030
H27   H     H_    0.759334 0.966387 0.759925 0.132239
C55   C     C_R   0.144815 0.947493 0.398762 0.121662
C56   C     C_R   0.131704 0.886272 0.336604 -0.164986
C57   C     C_R   0.007581 0.846660 0.307566 -0.148965
C58   C     C_R   0.895689 0.867746 0.340248 -0.096182
C59   C     C_R   0.907715 0.928235 0.402236 -0.131423
C60   C     C_R   0.031424 0.967147 0.432160 -0.173894
H28   H     H_    0.217505 0.869008 0.310955 0.127407
H29   H     H_    0.998120 0.799445 0.259843 0.130532
H30   H     H_    0.799684 0.837064 0.317703 0.129687
H31   H     H_    0.821081 0.944628 0.427334 0.145497
H32   H     H_    0.039068 0.012048 0.481684 0.145477

loop_
_geom_bond_atom_site_label_1
_geom_bond_atom_site_label_2
_ccdc_geom_bond_type
C18   N2    A    
C38   C40   S    
C51   C52   A    
C17   N1    A    
C40   H14   S    
C34   C37   S    
C44   H20   S    
C35   H1    S    
O1    Zn1   S    
C56   C57   A    
C54   H27   S    
C49   C50   A    
C26   C32   A    
C12   H22   S    
C59   H31   S    
C1    O1    A    
C31   C49   S    
C15   H7    S    
C28   C29   A    
C35   C37   S    
C50   H23   S    
C15   C25   A    
C57   H29   S    
C14   H16   S    
C42   C46   A    
C53   H26   S    
C4    C47   S    
C48   N4    T    
C44   C46   A    
C33   H11   S    
C7    C43   A    
C9    C10   A    
C56   H28   S    
C2    O4    A    
C58   H30   S    
C21   C27   A    
C22   C28   A    
C51   H24   S    
C27   C30   A    
C29   C31   A    
C20   N2    A    
C2    O2    A    
C17   H6    S    
C11   H21   S    
C18   H5    S    
C47   N3    T    
C16   C26   A    
C8    C44   A    
C4    C6    A    
C23   O5    A    
C5    C7    A    
O8    Zn1   S    
C24   O6    A    
C6    C8    A    
C29   H9    S    
C30   H10   S    
C5    C9    A    
C20   H3    S    
C58   C59   A    
C43   H19   S    
C39   H13   S    
C55   C56   A    
C24   C37   S    
C16   C18   A    
C33   C39   S    
C23   O7    A    
C43   C45   A    
C24   O8    A    
C32   C55   S    
C12   C14   A    
O4    Zn1   S    
C3    C48   S    
C34   C40   S    
C19   N1    A    
O7    Zn2   S    
C1    C41   S    
C60   H32   S    
C15   C17   A    
C21   C25   A    
C52   H25   S    
C3    C41   A    
C8    C14   A    
C19   C21   A    
N2    Zn1   S    
C50   C51   A    
C25   C31   A    
C36   C39   S    
O6    Zn2   S    
C20   C22   A    
C3    C5    A    
C6    C10   A    
C49   C54   A    
C23   C38   S    
C45   H18   S    
C33   C38   S    
C46   H17   S    
C1    O3    A    
C36   C38   S    
C35   C40   S    
C37   C39   S    
C30   C32   A    
C11   C13   A    
C19   H4    S    
C4    C42   A    
C2    C42   S    
C59   C60   A    
C33   C35   S    
O3    Zn2   S    
C36   H2    S    
C34   C36   S    
C9    C12   A    
C16   H8    S    
C10   C11   A    
C7    C13   A    
C13   H15   S    
C52   C53   A    
O2    Zn2   S    
C57   C58   A    
C22   C26   A    
C27   C28   A    
C34   H12   S    
C41   C45   A    
N1    Zn2   S    
C53   C54   A    
C55   C60   A    
O5    Zn1   S    
