data_mof_unit_18598.cif
_audit_creation_date              2012-12-11T15:07:34-0500
_audit_creation_method            fapswitch 2.2
_symmetry_space_group_name_H-M    P1
_symmetry_Int_Tables_number       1
_space_group_crystal_system       triclinic
_cell_length_a                    21.440675
_cell_length_b                    7.205367
_cell_length_c                    19.003139
_cell_angle_alpha                 89.99973
_cell_angle_beta                  95.850685
_cell_angle_gamma                 89.999987
_cell_volume                      2920.4630707

loop_
_atom_site_label
_atom_site_type_symbol
_atom_type_description
_atom_site_fract_x
_atom_site_fract_y
_atom_site_fract_z
_atom_type_partial_charge
O1    O     O_R   0.449650 0.506500 0.414480 -0.529462
O2    O     O_R   0.550350 0.006500 0.585520 -0.529461
O3    O     O_R   0.432010 0.173150 0.560250 -0.538613
O4    O     O_R   0.567990 0.673150 0.439750 -0.538613
C1    C     C_R   0.416518 0.344809 0.582002 0.713022
C2    C     C_R   0.583482 0.844809 0.417998 0.713023
O5    O     O_R   0.442320 0.176650 0.413480 -0.535840
O6    O     O_R   0.557680 0.676650 0.586520 -0.535841
O7    O     O_R   0.560730 0.008380 0.437700 -0.518368
O8    O     O_R   0.439270 0.508380 0.562300 -0.518367
C3    C     C_R   0.426573 0.344666 0.389189 0.707897
C4    C     C_R   0.573427 0.844665 0.610811 0.707898
O9    O     O_3   0.538840 0.339860 0.508120 -0.358384
O10   O     O_3   0.461160 0.839860 0.491880 -0.358384
V1    V     V_3+5 0.492800 0.064220 0.498490 1.491084
V2    V     V_3+5 0.507200 0.564220 0.501510 1.491083
C5    C     C_R   0.879713 0.945739 0.690336 0.182983
C6    C     C_R   0.120283 0.445723 0.309662 0.182999
C7    C     C_R   0.889208 0.937834 0.819264 -0.056896
C8    C     C_R   0.110793 0.437826 0.180735 -0.056905
C9    C     C_R   0.591195 0.846589 0.739598 -0.219650
C10   C     C_R   0.408805 0.346590 0.260402 -0.219650
C11   C     C_R   0.625909 0.801773 0.803226 0.234684
C12   C     C_R   0.374091 0.301774 0.196775 0.234683
C13   C     C_R   0.690824 0.774155 0.805483 0.118477
C14   C     C_R   0.309175 0.274156 0.194518 0.118477
C15   C     C_R   0.722282 0.822116 0.746141 0.001417
C16   C     C_R   0.277718 0.322120 0.253860 0.001418
C17   C     C_R   0.686236 0.827864 0.678250 0.011766
C18   C     C_R   0.313763 0.327869 0.321751 0.011766
C19   C     C_R   0.788370 0.859331 0.751443 0.054829
C20   C     C_R   0.211630 0.359332 0.248558 0.054830
C21   C     C_R   0.818310 0.870162 0.688697 0.025790
C22   C     C_R   0.181689 0.370160 0.311303 0.025780
C23   C     C_R   0.786138 0.802066 0.625922 0.157539
C24   C     C_R   0.213862 0.302074 0.374080 0.157544
C25   C     C_R   0.720020 0.800508 0.617889 0.092160
C26   C     C_R   0.279980 0.300517 0.382112 0.092160
C27   C     C_R   0.824839 0.896286 0.816529 -0.196062
C28   C     C_R   0.175162 0.396290 0.183471 -0.196066
C29   C     C_R   0.916410 0.969570 0.755849 0.163253
C30   C     C_R   0.083586 0.469536 0.244148 0.163263
C31   C     C_R   0.618735 0.846358 0.675915 -0.099590
C32   C     C_R   0.381264 0.346361 0.324085 -0.099590
H1    H     H_    0.803682 0.897145 0.865684 0.147236
H2    H     H_    0.196321 0.397158 0.134316 0.147236
H3    H     H_    0.540835 0.861636 0.738883 0.145516
H4    H     H_    0.459164 0.361635 0.261117 0.145516
C33   C     C_R   0.632225 0.743871 0.307364 0.098877
C34   C     C_R   0.367775 0.243869 0.692636 0.098878
C35   C     C_R   0.634264 0.857408 0.368831 -0.111300
C36   C     C_R   0.365736 0.357406 0.631169 -0.111297
C37   C     C_R   0.684365 0.987274 0.381262 0.062186
C38   C     C_R   0.315635 0.487273 0.618738 0.062184
C39   C     C_R   0.735650 0.979918 0.339371 0.049994
C40   C     C_R   0.264349 0.479915 0.660628 0.049994
C41   C     C_R   0.727105 0.892072 0.272472 -0.049938
C42   C     C_R   0.272894 0.392068 0.727528 -0.049936
C43   C     C_R   0.672437 0.785314 0.254114 0.028920
C44   C     C_R   0.327562 0.285312 0.745886 0.028919
C45   C     C_R   0.793447 0.070152 0.359672 0.152825
C46   C     C_R   0.206552 0.570150 0.640327 0.152822
C47   C     C_R   0.834297 0.111784 0.308613 0.158616
C48   C     C_R   0.165702 0.611778 0.691386 0.158616
C49   C     C_R   0.828612 0.015563 0.243339 0.040740
C50   C     C_R   0.171386 0.515557 0.756660 0.040737
C51   C     C_R   0.772990 0.912592 0.223751 -0.063189
C52   C     C_R   0.227010 0.412588 0.776249 -0.063189
C53   C     C_R   0.762984 0.831992 0.155264 0.078868
C54   C     C_R   0.237016 0.331990 0.844737 0.078869
C55   C     C_R   0.708818 0.720200 0.138652 0.080640
C56   C     C_R   0.291182 0.220199 0.861348 0.080640
C57   C     C_R   0.660910 0.719146 0.183848 0.155232
C58   C     C_R   0.339090 0.219144 0.816152 0.155232
C59   C     C_R   0.877930 0.009657 0.198707 0.067044
C60   C     C_R   0.122069 0.509651 0.801293 0.067046
C61   C     C_R   0.866041 0.943794 0.129116 -0.111897
C62   C     C_R   0.133960 0.443793 0.870885 -0.111897
C63   C     C_R   0.806430 0.872955 0.105283 0.078347
C64   C     C_R   0.193571 0.372956 0.894718 0.078345
O11   O     O_R   0.060820 0.290050 0.937800 -0.537726
O12   O     O_R   0.939180 0.790050 0.062200 -0.537719
O13   O     O_R   0.057690 0.616620 0.086540 -0.534485
O14   O     O_R   0.942310 0.116620 0.913460 -0.534491
C65   C     C_R   0.072261 0.448270 0.111554 0.703086
C66   C     C_R   0.927740 0.948272 0.888445 0.703086
O15   O     O_R   0.068010 0.619890 0.939770 -0.532699
O16   O     O_R   0.931990 0.119890 0.060230 -0.532703
O17   O     O_R   0.949640 0.787940 0.914460 -0.520899
O18   O     O_R   0.050360 0.287940 0.085540 -0.520906
C67   C     C_R   0.084089 0.451692 0.919482 0.755766
C68   C     C_R   0.915912 0.951692 0.080519 0.755766
O19   O     O_3   0.961210 0.453080 0.991940 -0.372159
O20   O     O_3   0.038790 0.953080 0.008060 -0.372161
V3    V     V_3+5 0.007200 0.728820 0.001500 1.497956
V4    V     V_3+5 0.992800 0.228820 0.998500 1.497946
C69   C     C_3   0.983588 0.035387 0.756850 -0.706968
H5    H     H_    0.011621 0.019453 0.808780 0.208408
H6    H     H_    0.007951 0.956796 0.717773 0.226540
H7    H     H_    0.983532 0.183050 0.741887 0.237110
C70   C     C_3   0.016406 0.535340 0.243140 -0.707008
H8    H     H_    0.988363 0.519208 0.191228 0.208403
H9    H     H_    0.992056 0.456887 0.282263 0.226545
H10   H     H_    0.016460 0.683049 0.258024 0.237114
I1    I     I_    0.677974 0.222483 0.451156 -0.427091
I2    I     I_    0.322027 0.722487 0.548845 -0.427095
C71   C     C_3   0.818664 0.094462 0.436405 -0.687638
H11   H     H_    0.867737 0.043179 0.444616 0.220859
H12   H     H_    0.818275 0.242895 0.451902 0.251802
H13   H     H_    0.792006 0.010658 0.471976 0.230873
C72   C     C_3   0.181337 0.594473 0.563594 -0.687620
H14   H     H_    0.132261 0.543207 0.555381 0.220861
H15   H     H_    0.181732 0.742909 0.548099 0.251801
H16   H     H_    0.207992 0.510662 0.528023 0.230876
C73   C     C_3   0.875246 0.281953 0.321058 -0.714390
H17   H     H_    0.849541 0.392769 0.346752 0.220449
H18   H     H_    0.918450 0.248303 0.355975 0.237890
H19   H     H_    0.886660 0.342848 0.270329 0.219205
C74   C     C_3   0.124752 0.781944 0.678942 -0.714401
H20   H     H_    0.150456 0.892762 0.653247 0.220454
H21   H     H_    0.081546 0.748293 0.644026 0.237886
H22   H     H_    0.113339 0.842839 0.729671 0.219199
I3    I     I_    0.974350 0.056577 0.237259 -0.467636
I4    I     I_    0.025648 0.556564 0.762744 -0.467631
C75   C     C_3   0.788276 0.869346 0.026257 -0.741267
H23   H     H_    0.736858 0.869881 0.012621 0.253551
H24   H     H_    0.804919 0.997556 0.001593 0.192061
H25   H     H_    0.810454 0.748459 0.002691 0.222270
C76   C     C_3   0.211725 0.369350 0.973743 -0.741271
H26   H     H_    0.263143 0.369883 0.987379 0.253552
H27   H     H_    0.195083 0.497561 0.998406 0.192061
H28   H     H_    0.189547 0.248465 0.997311 0.222269
C77   C     C_3   0.704681 0.576349 0.080327 -0.650081
H29   H     H_    0.684849 0.445159 0.099273 0.222920
H30   H     H_    0.673734 0.625296 0.033702 0.262467
H31   H     H_    0.751543 0.538516 0.065019 0.216092
C78   C     C_3   0.295320 0.076350 0.919674 -0.650079
H32   H     H_    0.315151 0.945159 0.900730 0.222920
H33   H     H_    0.326267 0.125298 0.966299 0.262467
H34   H     H_    0.248458 0.038518 0.934983 0.216092
I5    I     I_    0.567410 0.673743 0.134215 -0.279124
I6    I     I_    0.432590 0.173741 0.865785 -0.279126
I7    I     I_    0.838034 0.640925 0.555900 -0.452523
I8    I     I_    0.161965 0.140952 0.444108 -0.452524
C79   C     C_3   0.903708 0.023358 0.623916 -0.689929
H35   H     H_    0.866024 0.036244 0.579926 0.224084
H36   H     H_    0.921536 0.166702 0.633438 0.230138
H37   H     H_    0.941930 0.934771 0.607251 0.234186
C80   C     C_3   0.096288 0.523361 0.376078 -0.689942
H38   H     H_    0.133976 0.536301 0.420062 0.224087
H39   H     H_    0.078443 0.666683 0.366543 0.230155
H40   H     H_    0.058078 0.434753 0.392758 0.234185
I9    I     I_    0.732173 0.574393 0.879345 -0.423412
I10   I     I_    0.267827 0.074395 0.120657 -0.423416
I11   I     I_    0.575985 0.762229 0.892964 -0.215235
I12   I     I_    0.424015 0.262228 0.107037 -0.215237
C81   C     C_3   0.687790 0.761827 0.545818 -0.666638
H41   H     H_    0.719689 0.753962 0.503812 0.225347
H42   H     H_    0.662080 0.628492 0.545856 0.239587
H43   H     H_    0.657062 0.880082 0.530788 0.184039
C82   C     C_3   0.312210 0.261840 0.454183 -0.666645
H44   H     H_    0.280312 0.253978 0.496190 0.225347
H45   H     H_    0.337920 0.128504 0.454146 0.239585
H46   H     H_    0.342938 0.380095 0.469212 0.184043
C83   C     C_3   0.591777 0.570907 0.302094 -0.667290
H47   H     H_    0.602830 0.477002 0.258986 0.218373
H48   H     H_    0.602074 0.484304 0.349845 0.233313
H49   H     H_    0.541335 0.608844 0.295616 0.208090
C84   C     C_3   0.408223 0.070905 0.697907 -0.667291
H50   H     H_    0.397170 0.977000 0.741015 0.218374
H51   H     H_    0.397927 0.984303 0.650156 0.233314
H52   H     H_    0.458665 0.108844 0.704385 0.208090

loop_
_geom_bond_atom_site_label_1
_geom_bond_atom_site_label_2
_ccdc_geom_bond_type
C10   H4    S    
O16   V4    S    
C61   C68   S    
O4    V2    S    
C81   H41   S    
C11   I11   S    
C15   C17   A    
C39   C41   A    
C84   H51   S    
C84   H50   S    
C37   C39   A    
C50   C52   A    
C72   H14   S    
O1    C3    A    
C7    C66   S    
O2    C4    A    
C69   H7    S    
C2    O7    A    
C47   C49   A    
C79   H35   S    
C57   I5    S    
O5    C3    A    
C78   H33   S    
C83   H47   S    
C48   C74   S    
C59   I3    S    
C60   C62   A    
O19   V4    S    
C23   C25   A    
O14   C66   A    
C4    C31   S    
O15   C67   A    
C80   H39   S    
C8    C28   A    
C62   C64   A    
C41   C43   A    
C49   C51   A    
C42   C44   A    
C73   H17   S    
O12   C68   A    
C18   C26   A    
C45   C47   A    
O14   V4    S    
C25   C81   S    
C53   C55   A    
C46   C48   A    
C79   H36   S    
C9    C31   A    
C26   C82   S    
C10   C32   A    
C46   C72   S    
O16   C68   A    
C40   C42   A    
C73   H18   S    
O15   V3    S    
C75   H25   S    
C34   C36   A    
C71   H11   S    
C19   C21   A    
C1    C36   S    
O12   V3    S    
C2    C35   S    
C34   C84   S    
C6    C80   S    
C43   C57   A    
C22   C24   A    
C27   H1    S    
C76   H28   S    
C47   C73   S    
O5    V1    S    
C58   I6    S    
C50   C60   A    
O6    V2    S    
C17   C31   A    
C71   H12   S    
C18   C32   A    
C5    C21   A    
C41   C51   A    
C63   C75   S    
C82   H45   S    
C36   C38   A    
C69   H5    S    
C74   H21   S    
C78   H34   S    
C38   C40   A    
C54   C56   A    
C38   I2    S    
C54   C64   A    
C60   I4    S    
C70   H8    S    
C16   C20   A    
C56   C58   A    
C69   H6    S    
C80   H40   S    
C55   C57   A    
O11   V4    S    
C33   C35   A    
C13   I9    S    
C35   C37   A    
C20   C22   A    
O17   V3    S    
C5    C79   S    
C33   C83   S    
C77   H31   S    
C6    C22   A    
O6    C4    A    
C73   H19   S    
O13   V3    S    
C8    C65   S    
C23   I7    S    
C61   C63   A    
C7    C29   A    
C3    C32   S    
C72   H15   S    
O1    V2    S    
C76   H27   S    
C74   H20   S    
O2    V1    S    
C59   C61   A    
C40   C46   A    
C7    C27   A    
C42   C52   A    
C56   C78   S    
O13   C65   A    
C70   H10   S    
C9    C11   A    
C15   C19   A    
C77   H29   S    
C71   H13   S    
C10   C12   A    
C53   C63   A    
O4    C2    A    
C28   H2    S    
C81   H42   S    
C24   C26   A    
C30   C70   S    
C82   H46   S    
O3    V1    S    
C79   H37   S    
C77   H30   S    
C76   H26   S    
C70   H9    S    
C74   H22   S    
C64   C76   S    
C12   C14   A    
O3    C1    A    
C66   O17   A    
C33   C43   A    
C55   C77   S    
C8    C30   A    
C65   O18   A    
O18   V4    S    
C83   H49   S    
C62   C67   S    
C13   C15   A    
C78   H32   S    
C14   C16   A    
C49   C59   A    
C34   C44   A    
C6    C30   A    
O7    V1    S    
C16   C18   A    
C82   H44   S    
C80   H38   S    
C81   H43   S    
C75   H23   S    
C39   C45   A    
C44   C58   A    
C21   C23   A    
C19   C27   A    
C72   H16   S    
C29   C69   S    
C20   C28   A    
C24   I8    S    
O20   V3    S    
C45   C71   S    
C5    C29   A    
C14   I10   S    
O11   C67   A    
C37   I1    S    
C1    O8    A    
C11   C13   A    
C83   H48   S    
O9    V2    S    
C17   C25   A    
C75   H24   S    
C52   C54   A    
O10   V1    S    
O8    V2    S    
C84   H52   S    
C51   C53   A    
C12   I12   S    
C48   C50   A    
C9    H3    S    
