data_mof_unit_21492.cif
_audit_creation_date              2013-03-05T15:42:48-0500
_audit_creation_method            fapswitch 2.2
_symmetry_space_group_name_H-M    P1
_symmetry_Int_Tables_number       1
_space_group_crystal_system       triclinic
_cell_length_a                    6.937052
_cell_length_b                    14.730044
_cell_length_c                    16.269848
_cell_angle_alpha                 90.505503
_cell_angle_beta                  89.978771
_cell_angle_gamma                 89.73422
_cell_volume                      1662.42046826

loop_
_atom_site_label
_atom_site_type_symbol
_atom_site_description
_atom_site_fract_x
_atom_site_fract_y
_atom_site_fract_z
_atom_type_partial_charge
O1    O     O_R   0.494400 0.416610 0.413880 -0.543737
O2    O     O_R   0.823920 0.406790 0.585520 -0.530207
O3    O     O_R   0.994250 0.583390 0.586120 -0.565724
C1    C     C_R   0.655507 0.385841 0.613890 0.829427
O4    O     O_R   0.824110 0.405730 0.414490 -0.514264
O5    O     O_R   0.994440 0.582310 0.413870 -0.566702
C2    C     C_R   0.655621 0.382139 0.387423 0.880048
O6    O     O_R   0.494210 0.417690 0.586130 -0.572541
O7    O     O_3   0.660810 0.557940 0.500000 -0.292987
V1    V     V_3+5 0.935650 0.489250 0.500000 1.218605
O8    O     O_R   0.324160 0.593210 0.414480 -0.566475
C3    C     C_R   0.155274 0.615015 0.386381 0.840292
O9    O     O_R   0.323970 0.594270 0.585510 -0.567003
C4    C     C_R   0.154712 0.617251 0.612879 0.798273
V2    V     V_3+5 0.435660 0.510750 0.500000 1.171283
O10   O     O_3   0.160630 0.442060 0.500000 -0.236864
C5    C     C_R   0.113285 0.557977 0.778795 -0.202069
C6    C     C_R   0.094972 0.523129 0.857653 0.295019
C7    C     C_R   0.083376 0.582891 0.924971 0.295127
C8    C     C_R   0.093225 0.677712 0.912779 0.006023
C9    C     C_R   0.111644 0.714345 0.831870 0.007402
C10   C     C_R   0.122205 0.652119 0.764137 -0.053709
C11   C     C_R   0.121635 0.810060 0.816232 -0.091824
C12   C     C_R   0.145597 0.840936 0.734236 0.001744
C13   C     C_R   0.156790 0.777836 0.667670 0.004750
C14   C     C_R   0.144356 0.683613 0.682540 -0.085247
C15   C     C_R   0.158230 0.934809 0.716910 -0.122884
C16   C     C_R   0.181587 0.965395 0.636785 -0.051691
C17   C     C_R   0.191186 0.903992 0.571286 0.168487
C18   C     C_R   0.179057 0.810729 0.586735 -0.071101
H1    H     H_    0.124530 0.509489 0.728695 0.125426
H2    H     H_    0.150487 0.985948 0.764943 0.081658
H3    H     H_    0.192157 0.037558 0.625586 0.085006
H4    H     H_    0.186882 0.764402 0.534833 0.032690
C19   C     C_2   0.985366 0.710239 0.283096 -0.057318
C20   C     C_2   0.150122 0.682835 0.319643 -0.191303
H5    H     H_    0.849351 0.682136 0.303675 0.100737
H6    H     H_    0.287876 0.709854 0.300748 0.072189
C21   C     C_2   0.973335 0.777646 0.215103 -0.070502
C22   C     C_2   0.126362 0.817380 0.179406 -0.202455
H7    H     H_    0.829529 0.794482 0.193517 0.097428
H8    H     H_    0.271417 0.801419 0.199261 0.078611
C23   C     C_2   0.772479 0.195395 0.768063 0.164585
C24   C     C_2   0.611559 0.168880 0.808383 -0.172909
H9    H     H_    0.471599 0.187581 0.783571 0.070540
C25   C     C_2   0.755981 0.249101 0.690392 0.151010
C26   C     C_2   0.648438 0.326361 0.686676 0.007222
C27   C     C_2   0.776588 0.199612 0.220101 -0.114053
C28   C     C_2   0.612081 0.177573 0.180810 -0.241228
H10   H     H_    0.910373 0.168662 0.199034 0.146735
H11   H     H_    0.474169 0.203205 0.202178 0.125710
C29   C     C_2   0.789325 0.258490 0.295299 0.332905
C30   C     C_2   0.644251 0.315568 0.318664 -0.237405
H12   H     H_    0.511434 0.317648 0.283819 0.104116
O11   O     O_R   0.770210 0.079270 0.910680 -0.550096
O12   O     O_R   0.440150 0.091160 0.082270 -0.550936
O13   O     O_R   0.269970 0.914530 0.082860 -0.560996
C31   C     C_R   0.608251 0.112566 0.111045 0.872967
O14   O     O_R   0.440480 0.090100 0.911240 -0.558997
O15   O     O_R   0.270310 0.913460 0.910610 -0.561879
C32   C     C_R   0.608750 0.109506 0.881409 0.860674
O16   O     O_R   0.769870 0.080340 0.082930 -0.561552
O17   O     O_3   0.603660 0.938980 0.996790 -0.281469
V3    V     V_3+5 0.328750 0.007610 0.996740 1.174042
O18   O     O_R   0.940600 0.902510 0.911180 -0.552810
C33   C     C_R   0.110050 0.879231 0.883845 0.866952
O19   O     O_R   0.940270 0.903570 0.082200 -0.562301
C34   C     C_R   0.109432 0.883841 0.111897 0.844474
V4    V     V_3+5 0.828770 0.986010 0.996670 1.161447
O20   O     O_3   0.103730 0.054750 0.996710 -0.264332
N1    N     N_3   0.214949 0.937482 0.489333 -0.482677
H13   H     H_    0.090319 0.973995 0.474475 0.193212
H14   H     H_    0.224225 0.883558 0.447246 0.166426
N2    N     N_3   0.960889 0.168265 0.796400 -0.475313
H15   H     H_    0.067148 0.192347 0.756717 0.195022
H16   H     H_    0.985552 0.201206 0.852580 0.255522
N3    N     N_3   0.862324 0.219191 0.618867 -0.454820
H17   H     H_    0.930802 0.157356 0.630693 0.172633
H18   H     H_    0.762066 0.204966 0.572572 0.181943
N4    N     N_3   0.536514 0.356147 0.756225 -0.471261
H19   H     H_    0.583794 0.420924 0.773410 0.199033
H20   H     H_    0.392885 0.361935 0.737437 0.210912
N5    N     N_R   0.963218 0.251759 0.343099 0.100357
O21   O     O_R   0.129613 0.247247 0.306341 -0.379254
O22   O     O_R   0.953360 0.232444 0.420878 -0.364733
N6    N     N_R   0.092429 0.426327 0.868393 0.105873
O23   O     O_R   0.175988 0.389345 0.931485 -0.287190
O24   O     O_R   0.025945 0.374041 0.810271 -0.414390
N7    N     N_R   0.050758 0.547820 0.005849 0.112073
O25   O     O_R   0.899977 0.498211 0.020282 -0.298207
O26   O     O_R   0.175131 0.562094 0.064320 -0.342793
N8    N     N_3   0.081941 0.736016 0.983329 -0.485865
H21   H     H_    0.956202 0.721394 0.016038 0.208777
H22   H     H_    0.201889 0.723719 0.020472 0.208686

loop_
_geom_bond_atom_site_label_1
_geom_bond_atom_site_label_2
_geom_bond_distance
_ccdc_geom_bond_type
C31   O16   1.297083 A    
O2    C1    1.295622 A    
C7    C8    1.414409 A    
C12   C15   1.416732 A    
C1    O6    1.294341 A    
C21   H7    1.086063 S    
N3    H17   1.044708 S    
C29   C30   1.360304 D    
C8    N8    1.429382 S    
O14   V3    2.012462 S    
C6    N6    1.438279 S    
N2    H16   1.045570 S    
C11   C33   1.494703 S    
C16   C17   1.393016 A    
C19   H5    1.086078 S    
O5    C3    1.298209 A    
N6    O24   1.300328 A    
V2    O10   2.163732 S    
C6    C7    1.401166 A    
O8    V2    2.007862 S    
O17   V4    1.711304 S    
C28   H11   1.082954 S    
C11   C12   1.423175 A    
O12   V3    2.006901 S    
O1    V2    2.003057 S    
V3    O20   1.705505 S    
C3    C20   1.482254 S    
O7    V1    2.154274 S    
C23   N2    1.442002 S    
C22   H8    1.082386 S    
O15   C33   1.296719 A    
O9    C4    1.297986 A    
C26   N4    1.436362 S    
O4    V1    2.006787 S    
N3    H18   1.045905 S    
O14   C32   1.298067 A    
N2    H15   1.045062 S    
C18   H4    1.082203 S    
O19   C34   1.301807 A    
C12   C13   1.422802 A    
N4    H20   1.045627 S    
C21   C22   1.348357 D    
O4    C2    1.297021 A    
N6    O23   1.301471 A    
C13   C14   1.413964 A    
C30   H12   1.082432 S    
C28   C31   1.478869 S    
O16   V4    2.006776 S    
O19   V4    2.007797 S    
C19   C20   1.350274 D    
C29   N5    1.439017 S    
C19   C21   1.495092 S    
C23   C24   1.355382 D    
C17   C18   1.401656 A    
C7    N7    1.436136 S    
N5    O21   1.300967 A    
N8    H22   1.044647 S    
C5    C6    1.392057 A    
C4    C14   1.491634 S    
C27   H10   1.086153 S    
O11   V4    2.009632 S    
O3    C4    1.295785 A    
C27   C28   1.347846 D    
N5    O22   1.301337 A    
C16   H3    1.082873 S    
O6    V2    2.009193 S    
O9    V2    2.002378 S    
C22   C34   1.482086 S    
C5    H1    1.081573 S    
N7    O26   1.300905 A    
C2    C30   1.483480 S    
O13   C34   1.294533 A    
O2    V1    2.012420 S    
C24   H9    1.086864 S    
O13   V3    2.011971 S    
N1    H14   1.045859 S    
C13   C18   1.415769 A    
C25   C26   1.359675 D    
C15   H2    1.081788 S    
O1    C2    1.297865 A    
N4    H19   1.046154 S    
O5    V1    2.011894 S    
C25   N3    1.442158 S    
O8    C3    1.297782 A    
C24   C32   1.481685 S    
C5    C10   1.410783 A    
O15   V3    2.005668 S    
C9    C11   1.436848 A    
O7    V2    1.712516 S    
N1    H13   1.045620 S    
O3    V1    2.005683 S    
V1    O10   1.705547 S    
O18   V4    2.002350 S    
O11   C32   1.295837 A    
C20   H6    1.082385 S    
N8    H21   1.045877 S    
O12   C31   1.296018 A    
V4    O20   2.163648 S    
C23   C25   1.500927 S    
O17   V3    2.154297 S    
C27   C29   1.496285 S    
C8    C9    1.432970 A    
O18   C33   1.300119 A    
C10   C14   1.418680 A    
C15   C16   1.392670 A    
N7    O25   1.301197 A    
C9    C10   1.428777 A    
C17   N1    1.435478 S    
C1    C26   1.480227 S    
