data_mof_unit_21282.cif
_audit_creation_date              2012-12-10T17:38:16-0500
_audit_creation_method            fapswitch 2.2
_symmetry_space_group_name_H-M    P1
_symmetry_Int_Tables_number       1
_space_group_crystal_system       triclinic
_cell_length_a                    12.327202
_cell_length_b                    13.399755
_cell_length_c                    19.358303
_cell_angle_alpha                 77.073497
_cell_angle_beta                  101.182464
_cell_angle_gamma                 116.897393
_cell_volume                      2763.57596539

loop_
_atom_site_label
_atom_site_type_symbol
_atom_type_description
_atom_site_fract_x
_atom_site_fract_y
_atom_site_fract_z
_atom_type_partial_charge
C1    C     C_R   0.854344 0.286117 0.510541 0.796242
C2    C     C_R   0.995251 0.496708 0.708135 -0.078366
C3    C     C_R   0.991391 0.492036 0.070579 0.393965
C4    C     C_R   0.986436 0.490574 0.929958 0.439321
C5    C     C_R   0.085619 0.476735 0.196855 -0.164057
C6    C     C_R   0.087651 0.478522 0.268842 -0.199479
C7    C     C_R   0.999054 0.498588 0.291823 -0.023232
C8    C     C_R   0.908371 0.516645 0.241631 -0.187601
C9    C     C_R   0.905939 0.514271 0.169840 -0.160999
C10   C     C_R   0.994441 0.494258 0.146693 0.066196
C11   C     C_R   0.270977 0.016122 0.515445 0.438078
C12   C     C_R   0.999182 0.499331 0.632306 0.799816
C13   C     C_R   0.229451 0.831640 0.492393 -0.154180
C14   C     C_R   0.820734 0.089907 0.505160 -0.279080
C15   C     C_R   0.747968 0.973982 0.509041 -0.203285
C16   C     C_R   0.624165 0.928456 0.518774 0.457425
C17   C     C_R   0.569868 0.002336 0.518718 -0.026605
C18   C     C_R   0.649451 0.115278 0.528451 0.035375
C19   C     C_R   0.441133 0.968442 0.513421 0.022546
C20   C     C_R   0.397297 0.043083 0.526880 0.038241
C21   C     C_R   0.479998 0.140820 0.554403 -0.227604
C22   C     C_R   0.604508 0.174680 0.556406 -0.175081
C23   C     C_R   0.145573 0.712650 0.490533 0.827670
C24   C     C_R   0.354817 0.864978 0.492957 -0.228447
C25   C     C_R   0.187685 0.908602 0.501156 -0.245743
C26   C     C_R   0.773704 0.162310 0.516054 -0.105971
C27   C     C_R   0.360507 0.354367 0.625859 0.359895
C28   C     C_R   0.761287 0.642317 0.402127 0.001490
C29   C     C_R   0.671149 0.681457 0.382636 -0.366111
C30   C     C_R   0.566490 0.633115 0.419309 0.470181
C31   C     C_R   0.555228 0.544362 0.478099 -0.060996
C32   C     C_R   0.655992 0.514594 0.498847 0.238334
C33   C     C_R   0.451114 0.485181 0.518922 -0.070346
C34   C     C_R   0.000086 0.499919 0.367699 0.779616
C35   C     C_R   0.458954 0.412605 0.583921 0.067890
C36   C     C_R   0.564084 0.395706 0.605545 -0.308973
C37   C     C_R   0.655764 0.440209 0.561730 -0.207455
C38   C     C_R   0.338236 0.492071 0.498111 0.032174
C39   C     C_R   0.254978 0.371647 0.603420 -0.072270
C40   C     C_R   0.077990 0.470198 0.760323 -0.191738
C41   C     C_R   0.073617 0.468246 0.831874 -0.232847
C42   C     C_R   0.985434 0.491296 0.853186 -0.025064
C43   C     C_R   0.898622 0.514669 0.800903 0.466369
C44   C     C_R   0.907192 0.520165 0.728629 -0.305754
Cu1   Cu    Cu3+1 0.098280 0.475420 0.516260 0.925102
Cu2   Cu    Cu3+1 0.901720 0.524580 0.483740 0.931724
H1    H     H_    0.146812 0.451581 0.745949 0.161725
H2    H     H_    0.447843 0.189691 0.575185 0.187855
H3    H     H_    0.915443 0.122200 0.496352 0.186044
H4    H     H_    0.788929 0.918346 0.507051 0.172128
H5    H     H_    0.666879 0.242455 0.584253 0.134202
H6    H     H_    0.180269 0.333882 0.636199 0.135110
H7    H     H_    0.572742 0.340544 0.654514 0.189995
H8    H     H_    0.139964 0.448410 0.870652 0.174601
H9    H     H_    0.319865 0.538557 0.448307 0.190175
H10   H     H_    0.725347 0.412967 0.578577 0.199858
H11   H     H_    0.155113 0.461076 0.180665 0.148388
H12   H     H_    0.158564 0.464218 0.306392 0.140926
H13   H     H_    0.838771 0.532314 0.257719 0.151465
H14   H     H_    0.834719 0.528466 0.132522 0.152881
H15   H     H_    0.090623 0.885083 0.498059 0.177981
N1    N     N_R   0.895160 0.498633 0.954370 -0.164971
N2    N     N_R   0.897590 0.499477 0.023189 -0.246896
N3    N     N_R   0.082415 0.483205 0.046431 -0.246014
N4    N     N_R   0.079959 0.482543 0.977541 -0.253759
N5    N     N_R   0.246290 0.438200 0.540910 -0.226351
N6    N     N_R   0.754310 0.561190 0.459520 -0.199610
O1    O     O_R   0.972510 0.318130 0.520450 -0.583621
O2    O     O_R   0.806530 0.359650 0.492990 -0.582027
O3    O     O_R   0.083010 0.479220 0.613590 -0.583515
O4    O     O_R   0.917030 0.520740 0.586130 -0.604915
O5    O     O_R   0.193470 0.640350 0.507010 -0.569753
O6    O     O_R   0.027490 0.681870 0.479550 -0.585315
O7    O     O_R   0.082970 0.479260 0.413870 -0.596301
O8    O     O_R   0.916990 0.520780 0.386410 -0.586382
O9    O     O_3   0.226390 0.092467 0.519420 -0.611778
C45   C     C_3   0.252934 0.177797 0.458593 0.033440
H16   H     H_    0.260900 0.149027 0.410638 0.141619
H17   H     H_    0.339980 0.251597 0.471023 0.159367
C46   C     C_3   0.151280 0.216845 0.438841 -0.773338
H18   H     H_    0.135694 0.241016 0.485909 0.266684
H19   H     H_    0.176787 0.291200 0.395781 0.197881
H20   H     H_    0.065522 0.147386 0.419742 0.234543
H21   H     H_    0.382961 0.808194 0.477903 0.241176
O10   O     O_3   0.564539 0.812579 0.539043 -0.565484
C47   C     C_3   0.565022 0.790633 0.614108 0.053227
H22   H     H_    0.506165 0.822382 0.630627 0.151128
H23   H     H_    0.659606 0.830674 0.641201 0.141445
C48   C     C_3   0.515057 0.663957 0.639670 -0.741303
H24   H     H_    0.574076 0.630417 0.625712 0.248632
H25   H     H_    0.514360 0.646477 0.698463 0.192004
H26   H     H_    0.420108 0.621189 0.614666 0.266152
O11   O     O_3   0.373617 0.288839 0.690753 -0.606655
C49   C     C_3   0.274807 0.179855 0.696314 0.035495
H27   H     H_    0.239820 0.148219 0.644131 0.190330
H28   H     H_    0.199026 0.181265 0.718623 0.147823
C50   C     C_3   0.317527 0.096834 0.746694 -0.766562
H29   H     H_    0.351191 0.124062 0.799953 0.250305
H30   H     H_    0.240380 0.011028 0.752430 0.210288
H31   H     H_    0.392616 0.093120 0.725123 0.242575
H32   H     H_    0.840859 0.681130 0.373110 0.152755
O12   O     O_3   0.490254 0.687402 0.406977 -0.561735
C51   C     C_3   0.433611 0.686016 0.336007 0.031644
H33   H     H_    0.386502 0.598090 0.323232 0.120143
H34   H     H_    0.500758 0.740625 0.297158 0.154426
C52   C     C_3   0.338937 0.732720 0.327000 -0.790482
H35   H     H_    0.292208 0.730184 0.271839 0.211820
H36   H     H_    0.269508 0.681516 0.364939 0.243797
H37   H     H_    0.384239 0.821793 0.337101 0.248627
H38   H     H_    0.686171 0.753170 0.340533 0.150542
O13   O     O_3   0.814052 0.542057 0.820795 -0.571836
C53   C     C_3   0.694604 0.480787 0.788855 0.072489
H39   H     H_    0.675719 0.391621 0.787172 0.141445
H40   H     H_    0.681039 0.524043 0.733997 0.153181
C54   C     C_3   0.601695 0.477366 0.831846 -0.734552
H41   H     H_    0.616129 0.564857 0.833573 0.242033
H42   H     H_    0.507642 0.430658 0.806695 0.222874
H43   H     H_    0.611495 0.433794 0.887092 0.253511
H44   H     H_    0.845767 0.544306 0.688199 0.160056

loop_
_geom_bond_atom_site_label_1
_geom_bond_atom_site_label_2
_ccdc_geom_bond_type
C40   H1    S    
O11   C49   S    
C41   C42   A    
C6    H12   S    
C35   C36   A    
C18   C26   A    
C2    C12   S    
C53   H40   S    
C50   H29   S    
C7    C8    A    
C45   H16   S    
N1    N2    A    
C52   H36   S    
C28   C29   A    
C11   O9    S    
C8    H13   S    
C30   C31   A    
C47   H23   S    
C14   H3    S    
C52   H35   S    
C11   C25   A    
C54   H41   S    
C4    N1    A    
C1    O1    A    
C13   C23   S    
C15   H4    S    
C4    N4    A    
C53   H39   S    
Cu2   O2    S    
C36   H7    S    
C17   C19   A    
C37   H10   S    
C28   H32   S    
C38   H9    S    
C38   N5    A    
C2    C44   A    
C8    C9    A    
C54   H42   S    
C31   C33   A    
C48   H25   S    
C9    C10   A    
C34   O8    A    
C21   H2    S    
C39   H6    S    
C21   C22   A    
Cu1   O5    S    
C13   C25   A    
O12   C51   S    
C43   O13   S    
C23   O6    A    
C46   H20   S    
Cu2   O8    S    
C50   H30   S    
C45   H17   S    
C11   C20   A    
C1    C26   S    
C29   H38   S    
C28   N6    A    
O9    C45   S    
C46   H19   S    
C27   C39   A    
C47   H22   S    
C16   C17   A    
C49   C50   S    
C27   C35   A    
O10   C47   S    
C1    O2    A    
C13   C24   A    
Cu1   O7    S    
C43   C44   A    
C29   C30   A    
C2    C40   A    
C31   C32   A    
C54   H43   S    
C30   O12   S    
Cu1   O1    S    
C17   C18   A    
C51   H34   S    
C25   H15   S    
C32   C37   A    
C14   C26   A    
C48   H26   S    
C49   H28   S    
Cu2   O4    S    
C34   O7    A    
C32   N6    A    
C40   C41   A    
C12   O4    A    
C16   O10   S    
C39   N5    A    
C27   O11   S    
C42   C43   A    
C51   H33   S    
C50   H31   S    
C7    C34   S    
C45   C46   S    
C12   O3    A    
C36   C37   A    
O13   C53   S    
Cu1   O3    S    
C18   C22   A    
C23   O5    A    
C46   H18   S    
C47   C48   S    
C6    C7    A    
C3    N2    A    
C33   C38   A    
C44   H44   S    
C5    H11   S    
C9    H14   S    
N3    N4    A    
C19   C20   A    
C19   C24   A    
C24   H21   S    
C5    C10   A    
C3    C10   S    
C5    C6    A    
C4    C42   S    
C33   C35   A    
C51   C52   S    
C53   C54   S    
C3    N3    A    
C49   H27   S    
C41   H8    S    
Cu1   Cu2   S    
Cu2   N6    S    
C20   C21   A    
Cu1   N5    S    
C14   C15   A    
C48   H24   S    
Cu2   O6    S    
C15   C16   A    
C22   H5    S    
C52   H37   S    
