data_mof_unit_63016.cif
_audit_creation_date              2012-12-10T17:26:31-0500
_audit_creation_method            fapswitch 2.2
_symmetry_space_group_name_H-M    P1
_symmetry_Int_Tables_number       1
_space_group_crystal_system       triclinic
_cell_length_a                    42.539498
_cell_length_b                    29.421848
_cell_length_c                    30.740653
_cell_angle_alpha                 90.002481
_cell_angle_beta                  136.236991
_cell_angle_gamma                 89.998299
_cell_volume                      26612.0764631

loop_
_atom_site_label
_atom_site_type_symbol
_atom_type_description
_atom_site_fract_x
_atom_site_fract_y
_atom_site_fract_z
_atom_type_partial_charge
C1    C     C_R   0.585494 0.500000 0.585946 0.825236
C2    C     C_R   0.085494 1.000000 0.585946 0.825246
C3    C     C_3   0.454139 0.528097 0.176222 0.241643
C4    C     C_3   0.957528 0.966982 0.179631 0.241561
C5    C     C_3   0.458796 0.531001 0.231531 -0.395571
C6    C     C_3   0.962492 0.964634 0.235247 -0.395358
C7    C     C_1   0.498953 0.500048 0.157196 -0.126599
C8    C     C_1   0.998984 0.999743 0.157226 -0.126585
C9    C     C_1   0.499154 0.500367 0.334473 -0.101952
C10   C     C_1   0.999257 0.999551 0.334574 -0.101950
C11   C     C_1   0.499669 0.500100 0.373329 -0.192033
C12   C     C_1   0.999724 0.999877 0.373383 -0.192048
C13   C     C_1   0.636539 0.500000 0.636913 -0.207182
C14   C     C_1   0.136539 1.000000 0.636913 -0.207195
C15   C     C_1   0.678860 0.500000 0.679170 0.001736
C16   C     C_1   0.178860 1.000000 0.679170 0.001724
C17   C     C_1   0.729024 0.500000 0.729260 0.003374
C18   C     C_1   0.229024 1.000000 0.729260 0.003365
C19   C     C_1   0.771344 0.500000 0.771522 0.003357
C20   C     C_1   0.271344 1.000000 0.771522 0.003351
C21   C     C_1   0.821508 0.500000 0.821620 0.002702
C22   C     C_1   0.321508 1.000000 0.821620 0.002700
C23   C     C_R   0.500133 0.500010 0.418943 0.867104
C24   C     C_R   0.000134 0.999987 0.418945 0.867126
C25   C     C_1   0.863829 0.500000 0.863893 -0.199888
C26   C     C_1   0.363829 1.000000 0.863893 -0.199885
C27   C     C_1   0.499992 0.500002 0.635297 -0.204576
C28   C     C_1   0.999992 0.000002 0.635297 -0.204578
C29   C     C_1   0.500008 0.500002 0.676696 0.012462
C30   C     C_1   0.000008 0.000002 0.676696 0.012462
C31   C     C_1   0.500029 0.500002 0.726140 0.001661
C32   C     C_1   0.000029 0.000002 0.726140 0.001664
C33   C     C_1   0.500045 0.500002 0.767540 0.001652
C34   C     C_1   0.000045 0.000001 0.767540 0.001656
C35   C     C_1   0.500060 0.500001 0.816979 0.012253
C36   C     C_1   0.000060 0.000001 0.816979 0.012259
C37   C     C_1   0.500065 0.500001 0.858366 -0.203820
C38   C     C_1   0.000065 0.000000 0.858366 -0.203809
C39   C     C_1   0.363416 0.500000 0.363754 -0.207658
C40   C     C_1   0.863416 1.000000 0.363755 -0.207629
C41   C     C_1   0.321096 0.500000 0.321357 0.001455
C42   C     C_1   0.821096 0.999999 0.321358 0.001492
C43   C     C_1   0.270936 0.500000 0.271110 0.003136
C44   C     C_1   0.770936 0.999999 0.271110 0.003170
C45   C     C_R   0.414458 0.500000 0.414893 0.825786
C46   C     C_R   0.914458 1.000000 0.414893 0.825801
C47   C     C_1   0.228617 0.500000 0.228725 0.003159
C48   C     C_1   0.728617 0.999999 0.228725 0.003189
C49   C     C_1   0.178456 0.500000 0.178499 0.002554
C50   C     C_1   0.678456 0.999999 0.178499 0.002583
C51   C     C_1   0.136137 0.500000 0.136144 -0.200009
C52   C     C_1   0.636137 1.000000 0.136144 -0.199983
C53   C     C_R   0.500032 0.585445 0.994593 0.825240
C54   C     C_R   0.500033 0.414554 0.994563 0.825285
C55   C     C_R   0.000033 0.085446 0.994563 0.825285
C56   C     C_R   0.000032 0.914555 0.994595 0.825215
C57   C     C_R   0.499988 0.499825 0.074778 0.870552
C58   C     C_R   0.999988 0.000195 0.074778 0.870528
C59   C     C_R   0.500045 0.500000 0.908683 0.813088
C60   C     C_R   0.000045 1.000000 0.908683 0.813084
C61   C     C_R   0.000015 0.414863 0.999129 0.816251
C62   C     C_R   0.000015 0.585137 0.999132 0.816116
C63   C     C_R   0.500014 0.914863 0.999130 0.816116
C64   C     C_R   0.500015 0.085137 0.999131 0.816244
C65   C     C_R   0.914874 0.500000 0.914898 0.816340
C66   C     C_R   0.414874 1.000000 0.914898 0.816332
C67   C     C_R   0.085095 0.500000 0.085105 0.816388
C68   C     C_R   0.585094 1.000000 0.085105 0.816388
C69   C     C_1   0.500043 0.636495 0.995451 -0.208423
C70   C     C_1   0.500045 0.363503 0.995400 -0.207600
C71   C     C_1   0.000046 0.136497 0.995398 -0.207527
C72   C     C_1   0.000044 0.863505 0.995457 -0.208527
C73   C     C_R   0.499975 0.500001 0.584944 0.812775
C74   C     C_R   0.999975 0.000001 0.584944 0.812778
C75   C     C_1   0.500042 0.678817 0.996184 0.001025
C76   C     C_1   0.500047 0.321180 0.996123 0.001744
C77   C     C_1   0.000048 0.178820 0.996120 0.001782
C78   C     C_1   0.000044 0.821183 0.996194 0.000799
C79   C     C_1   0.500037 0.728984 0.997038 0.002638
C80   C     C_1   0.500044 0.271013 0.996981 0.003342
C81   C     C_1   0.000044 0.228987 0.996977 0.003367
C82   C     C_1   0.000040 0.771016 0.997050 0.002477
C83   C     C_1   0.000039 0.271310 0.997672 0.003388
C84   C     C_1   0.000035 0.728693 0.997732 0.002775
C85   C     C_1   0.500032 0.771307 0.997720 0.002821
C86   C     C_1   0.500039 0.228690 0.997677 0.003371
C87   C     C_1   0.000032 0.321480 0.998421 0.002857
C88   C     C_1   0.000029 0.678523 0.998456 0.002422
C89   C     C_1   0.500027 0.821478 0.998446 0.002443
C90   C     C_1   0.500032 0.178520 0.998426 0.002850
C91   C     C_1   0.000025 0.363806 0.998905 -0.199769
C92   C     C_1   0.000023 0.636196 0.998920 -0.200101
C93   C     C_1   0.500022 0.863805 0.998914 -0.200076
C94   C     C_1   0.500025 0.136194 0.998910 -0.199769
C95   C     C_3   0.543623 0.520688 0.315497 -0.395111
C96   C     C_3   0.492801 0.451381 0.264626 -0.387380
C97   C     C_3   0.987563 0.047504 0.259369 -0.387472
C98   C     C_3   0.045677 0.984186 0.317546 -0.395318
C99   C     C_3   0.495848 0.450740 0.217556 -0.435274
C100  C     C_3   0.543823 0.519339 0.265773 -0.398418
C101  C     C_3   0.045713 0.985512 0.267657 -0.398245
C102  C     C_3   0.990512 0.048442 0.212201 -0.435237
C103  C     C_1   0.499756 0.499865 0.119677 -0.202265
C104  C     C_1   0.999759 0.000045 0.119678 -0.202212
C105  C     C_3   0.498512 0.500736 0.287383 0.290290
C106  C     C_3   0.998654 0.999084 0.287524 0.290305
C107  C     C_3   0.497547 0.500577 0.202256 0.308110
C108  C     C_3   0.997656 0.999081 0.202364 0.308094
Cu1   Cu    Cu3+1 0.499970 0.542470 0.500570 0.956001
Cu2   Cu    Cu3+1 0.499970 0.457530 0.500570 0.956794
Cu3   Cu    Cu3+1 0.999970 0.042470 0.500570 0.956814
Cu4   Cu    Cu3+1 0.999970 0.957530 0.500570 0.955927
Cu5   Cu    Cu3+1 0.542500 0.500000 0.035600 0.956529
Cu6   Cu    Cu3+1 0.042500 1.000000 0.035600 0.956451
Cu7   Cu    Cu3+1 0.457550 0.500000 0.950640 0.952855
Cu8   Cu    Cu3+1 0.957550 1.000000 0.950640 0.953062
Cu9   Cu    Cu3+1 0.999990 0.500000 0.958110 0.961575
Cu10  Cu    Cu3+1 0.499990 1.000000 0.958110 0.961615
Cu11  Cu    Cu3+1 0.999980 0.500000 0.041890 0.958138
Cu12  Cu    Cu3+1 0.499980 1.000000 0.041890 0.958167
H1    H     H_    0.571950 0.496588 0.283148 0.172048
H2    H     H_    0.527059 0.431963 0.238841 0.179625
H3    H     H_    0.019477 0.070519 0.231224 0.179488
H4    H     H_    0.071177 0.011199 0.282347 0.171956
H5    H     H_    0.572918 0.500744 0.357513 0.173964
H6    H     H_    0.519799 0.429068 0.305331 0.175760
H7    H     H_    0.011955 0.072651 0.297452 0.175894
H8    H     H_    0.072611 0.007232 0.357182 0.174063
H9    H     H_    0.459510 0.437316 0.241997 0.164759
H10   H     H_    0.547889 0.556354 0.331141 0.163083
H11   H     H_    0.053830 0.949212 0.337093 0.162946
H12   H     H_    0.952933 0.057840 0.235403 0.164598
H13   H     H_    0.467376 0.430955 0.174815 0.161532
H14   H     H_    0.553719 0.552606 0.262349 0.157182
H15   H     H_    0.059188 0.953518 0.267827 0.157306
H16   H     H_    0.960042 0.064980 0.167461 0.161690
H17   H     H_    0.464652 0.566627 0.248130 0.156660
H18   H     H_    0.426983 0.520200 0.216348 0.155188
H19   H     H_    0.929692 0.971887 0.219084 0.155233
H20   H     H_    0.972226 0.929871 0.255732 0.156710
O1    O     O_R   0.561950 0.535860 0.562460 -0.561976
O2    O     O_R   0.561950 0.464140 0.562460 -0.561818
O3    O     O_R   0.061950 0.035860 0.562460 -0.561814
O4    O     O_R   0.061950 0.964140 0.562460 -0.561986
O5    O     O_R   0.464160 0.500000 0.896130 -0.558410
O6    O     O_R   0.964160 1.000000 0.896130 -0.558402
O7    O     O_R   0.000010 0.438010 0.963800 -0.558140
O8    O     O_R   0.000010 0.561990 0.963800 -0.558150
O9    O     O_R   0.500010 0.938010 0.963800 -0.558153
O10   O     O_R   0.500010 0.061990 0.963800 -0.558131
O11   O     O_R   0.000000 0.438000 0.034540 -0.559195
O12   O     O_R   1.000000 0.562000 0.034540 -0.559363
O13   O     O_R   0.500000 0.938000 0.034540 -0.559348
O14   O     O_R   0.500000 0.062000 0.034540 -0.559205
O15   O     O_R   0.938010 0.500000 0.902650 -0.558248
O16   O     O_R   0.438010 1.000000 0.902650 -0.558252
O17   O     O_R   0.938010 0.500000 0.973390 -0.559213
O18   O     O_R   0.438010 1.000000 0.973390 -0.559208
O19   O     O_R   0.061960 0.500000 0.026610 -0.558365
O20   O     O_R   0.561960 1.000000 0.026610 -0.558349
O21   O     O_R   0.061960 0.500000 0.097350 -0.559068
O22   O     O_R   0.561960 1.000000 0.097350 -0.559069
O23   O     O_R   0.499980 0.535870 0.439370 -0.577919
O24   O     O_R   0.499980 0.464130 0.439370 -0.577531
O25   O     O_R   0.999980 0.035870 0.439370 -0.577506
O26   O     O_R   0.999980 0.964130 0.439370 -0.577971
O27   O     O_R   0.438000 0.535860 0.438500 -0.561928
O28   O     O_R   0.438000 0.464140 0.438500 -0.561613
O29   O     O_R   0.938000 0.035860 0.438500 -0.561602
O30   O     O_R   0.938000 0.964140 0.438500 -0.561943
O31   O     O_R   0.499970 0.535850 0.561590 -0.557507
O32   O     O_R   0.499970 0.464150 0.561590 -0.557381
O33   O     O_R   0.999970 0.035850 0.561590 -0.557383
O34   O     O_R   0.999970 0.964150 0.561590 -0.557509
O35   O     O_R   0.535890 0.561890 0.029840 -0.561300
O36   O     O_R   0.535890 0.438110 0.029840 -0.561381
O37   O     O_R   0.035890 0.061890 0.029840 -0.561428
O38   O     O_R   0.035890 0.938110 0.029840 -0.561261
O39   O     O_R   0.464160 0.561920 0.958100 -0.562316
O40   O     O_R   0.464160 0.438080 0.958100 -0.562006
O41   O     O_R   0.964160 0.061920 0.958100 -0.561948
O42   O     O_R   0.964160 0.938080 0.958100 -0.562328
O43   O     O_R   0.535890 0.500000 0.090110 -0.575134
O44   O     O_R   0.035890 1.000000 0.090110 -0.575272
O45   O     O_R   0.464150 0.500000 0.018360 -0.579860
O46   O     O_R   0.964150 1.000000 0.018360 -0.579688
O47   O     O_R   0.535900 0.500000 0.967880 -0.558438
O48   O     O_R   0.035900 1.000000 0.967880 -0.558443
C109  C     C_3   0.448008 0.576943 0.149575 -0.389874
C110  C     C_3   0.488596 0.609767 0.189983 -0.379252
C111  C     C_3   0.473333 0.658552 0.165965 -0.849115
H21   H     H_    0.454883 0.660594 0.116050 0.257590
H22   H     H_    0.450805 0.670740 0.170004 0.252300
H23   H     H_    0.503525 0.681138 0.194529 0.247475
H24   H     H_    0.506490 0.609219 0.239611 0.224247
H25   H     H_    0.512039 0.600324 0.186615 0.223562
H26   H     H_    0.436333 0.573393 0.103634 0.195603
H27   H     H_    0.420273 0.594364 0.139889 0.201188
C112  C     C_3   0.409287 0.500579 0.120260 -0.427830
C113  C     C_3   0.363818 0.525622 0.082568 -0.385257
C114  C     C_3   0.323531 0.493089 0.038955 -0.827893
H28   H     H_    0.322924 0.476581 0.005850 0.255205
H29   H     H_    0.325712 0.466540 0.066743 0.250581
H30   H     H_    0.291356 0.512246 0.011300 0.243977
H31   H     H_    0.363268 0.541735 0.114664 0.219105
H32   H     H_    0.359062 0.552523 0.052868 0.219001
H33   H     H_    0.409999 0.489911 0.086283 0.199332
H34   H     H_    0.407876 0.469112 0.138667 0.208304
C115  C     C_3   0.909930 0.989417 0.120931 -0.427854
C116  C     C_3   0.867480 0.959548 0.086281 -0.385318
C117  C     C_3   0.823872 0.987469 0.039352 -0.827866
H35   H     H_    0.823140 0.014110 0.064219 0.250575
H36   H     H_    0.821450 0.003796 0.004428 0.255210
H37   H     H_    0.793990 0.964905 0.014006 0.243987
H38   H     H_    0.865692 0.932275 0.059558 0.219018
H39   H     H_    0.868708 0.943488 0.120160 0.219121
H40   H     H_    0.905087 0.020550 0.135898 0.208318
H41   H     H_    0.909458 0.000082 0.085767 0.199452
C118  C     C_3   0.956775 0.917749 0.158377 -0.389998
C119  C     C_3   0.000714 0.889571 0.202120 -0.379327
C120  C     C_3   0.990882 0.839407 0.183531 -0.849002
H42   H     H_    0.969830 0.824827 0.189048 0.252312
H43   H     H_    0.972761 0.835355 0.133947 0.257606
H44   H     H_    0.023365 0.820263 0.214378 0.247448
H45   H     H_    0.022973 0.901523 0.197562 0.223829
H46   H     H_    0.018450 0.892078 0.251585 0.224223
H47   H     H_    0.931125 0.897403 0.150795 0.201277
H48   H     H_    0.944764 0.919983 0.112105 0.195087

loop_
_geom_bond_atom_site_label_1
_geom_bond_atom_site_label_2
_ccdc_geom_bond_type
C109  H27   S    
Cu4   O34   S    
C96   C105  S    
C59   O47   A    
C61   O11   A    
C110  C111  S    
C87   C91   T    
Cu9   O19   S    
C71   C77   T    
C2    O4    A    
C114  H28   S    
C83   C87   S    
Cu3   Cu4   S    
C99   H2    S    
C79   C85   T    
C97   H7    S    
C53   C69   S    
Cu11  O21   S    
C114  H29   S    
C5    H18   S    
C39   C41   T    
C5    C105  S    
C40   C46   S    
C4    C108  S    
C113  H31   S    
C75   C79   S    
C42   C44   S    
Cu9   O8    S    
C115  H41   S    
C35   C37   T    
Cu6   O38   S    
C74   O34   A    
C120  H44   S    
C3    C109  S    
Cu7   O45   S    
C116  H39   S    
Cu12  O22   S    
C7    C103  T    
C58   O46   A    
C9    C105  S    
C116  H38   S    
Cu5   O47   S    
C96   C99   S    
C64   O14   A    
Cu6   O48   S    
C27   C29   T    
C99   H13   S    
C11   C23   S    
C58   O44   A    
C100  H1    S    
C54   O36   A    
C6    H19   S    
Cu2   O2    S    
C95   H5    S    
C63   O9    A    
C80   C86   T    
C1    O2    A    
C95   C105  S    
C33   C35   S    
C10   C12   T    
Cu2   O28   S    
Cu4   O30   S    
C88   C92   T    
C113  C114  S    
C56   C72   S    
Cu8   O42   S    
C98   H11   S    
Cu9   O15   S    
C95   H10   S    
C3    C112  S    
C31   C33   T    
Cu10  O16   S    
Cu3   O25   S    
C118  H48   S    
C73   O31   A    
Cu1   O27   S    
C41   C43   S    
C57   O45   A    
C97   C102  S    
C52   C68   S    
Cu3   O3    S    
C39   C45   S    
Cu6   O37   S    
C101  C108  S    
C48   C50   S    
C28   C74   S    
C112  C113  S    
C60   O48   A    
C62   O8    A    
Cu12  O18   S    
C2    O3    A    
C55   O37   A    
Cu10  O20   S    
C60   O6    A    
C29   C31   S    
C53   O39   A    
Cu12  O14   S    
C119  C120  S    
C81   C83   T    
C102  H16   S    
C100  H14   S    
C90   C94   T    
C23   O23   A    
C101  H15   S    
Cu11  O11   S    
C57   C103  S    
C101  H4    S    
C119  H46   S    
C111  H21   S    
C26   C66   S    
C84   C88   S    
C25   C65   S    
C63   O13   A    
C74   O33   A    
C4    C6    S    
Cu1   O23   S    
C118  C119  S    
C85   C89   S    
C95   C100  S    
Cu1   O1    S    
C56   O38   A    
C67   O21   A    
C49   C51   T    
Cu8   O46   S    
Cu7   O39   S    
C4    C115  S    
C46   O30   A    
C62   C92   S    
Cu3   O29   S    
C32   C34   T    
Cu10  O9    S    
C24   O26   A    
C111  H22   S    
C120  H42   S    
C64   O10   A    
C8    C104  T    
C78   C82   S    
C50   C52   T    
C117  H35   S    
C54   C70   S    
C77   C81   S    
Cu11  O17   S    
C4    C118  S    
Cu4   O26   S    
Cu8   O41   S    
C96   H9    S    
C112  H33   S    
C115  C116  S    
C55   O41   A    
C96   H6    S    
C16   C18   S    
C51   C67   S    
C73   O32   A    
C102  C108  S    
C45   O27   A    
C37   C59   S    
C62   O12   A    
C110  H24   S    
Cu5   O36   S    
C38   C60   S    
C97   C106  S    
C59   O5    A    
C65   O17   A    
C117  H36   S    
C20   C22   S    
C82   C84   T    
C13   C15   T    
C6    H20   S    
C86   C90   S    
C114  H30   S    
C7    C107  S    
C10   C106  S    
C1    C13   S    
C70   C76   T    
C102  H3    S    
C66   O18   A    
C53   O35   A    
C23   O24   A    
C109  H26   S    
Cu11  O12   S    
C15   C17   S    
C21   C25   T    
C100  C107  S    
Cu2   O24   S    
C19   C21   S    
Cu3   O33   S    
C76   C80   S    
C97   H12   S    
C115  H40   S    
C40   C42   T    
C3    C5    S    
C113  H32   S    
Cu7   O40   S    
Cu6   Cu8   S    
C5    H17   S    
C18   C20   T    
C68   O22   A    
C47   C49   S    
C98   C101  S    
C99   C107  S    
Cu7   O5    S    
C98   C106  S    
C46   O29   A    
Cu5   O35   S    
Cu9   O7    S    
C3    C107  S    
Cu4   O4    S    
Cu9   Cu11  S    
C24   O25   A    
C61   O7    A    
C111  H23   S    
Cu10  O10   S    
C28   C30   T    
C65   O15   A    
C44   C48   T    
C27   C73   S    
Cu1   Cu2   S    
C36   C38   T    
C30   C32   S    
C110  H25   S    
Cu8   O6    S    
C57   O43   A    
Cu5   O43   S    
C112  H34   S    
C56   O42   A    
Cu6   O44   S    
C9    C11   T    
C98   H8    S    
Cu12  O13   S    
C17   C19   T    
C34   C36   S    
C54   O40   A    
C119  H45   S    
C69   C75   T    
C14   C16   T    
C89   C93   T    
C109  C110  S    
C2    C14   S    
C45   O28   A    
Cu10  Cu12  S    
C1    O1    A    
C64   C94   S    
C61   C91   S    
C117  H37   S    
C58   C104  S    
C120  H43   S    
C116  C117  S    
C22   C26   T    
C72   C78   T    
C8    C108  S    
C67   O19   A    
C12   C24   S    
C66   O16   A    
C118  H47   S    
C63   C93   S    
C68   O20   A    
C43   C47   T    
C55   C71   S    
Cu1   O31   S    
C6    C106  S    
Cu5   Cu7   S    
Cu2   O32   S    
