data_mof_unit_68404.cif
_audit_creation_date              2012-12-11T17:40:57-0500
_audit_creation_method            fapswitch 2.2
_symmetry_space_group_name_H-M    P1
_symmetry_Int_Tables_number       1
_space_group_crystal_system       triclinic
_cell_length_a                    8.201885
_cell_length_b                    12.698055
_cell_length_c                    14.197695
_cell_angle_alpha                 92.680797
_cell_angle_beta                  90.853321
_cell_angle_gamma                 98.534669
_cell_volume                      1460.32986402

loop_
_atom_site_label
_atom_site_type_symbol
_atom_type_description
_atom_site_fract_x
_atom_site_fract_y
_atom_site_fract_z
_atom_type_partial_charge
Ba1   Ba    Ba6+2 0.855630 0.555280 0.454520 1.638704
Ba2   Ba    Ba6+2 0.334200 0.444810 0.545490 1.654760
C1    C     C_3   0.600334 0.945852 0.176026 -0.412175
C2    C     C_R   0.183329 0.498125 0.195821 0.037980
C3    C     C_R   0.339268 0.548763 0.225804 -0.293813
C4    C     C_3   0.142174 0.804230 0.194052 0.362683
C5    C     C_R   0.451467 0.596306 0.162219 0.019536
C6    C     C_R   0.405977 0.600038 0.067497 -0.150217
C7    C     C_R   0.248216 0.552755 0.034871 -0.003105
C8    C     C_R   0.136369 0.498372 0.098259 -0.025276
C9    C     C_R   0.049718 0.506606 0.902694 -0.016939
C10   C     C_R   0.936519 0.454245 0.966459 0.004679
C11   C     C_R   0.004378 0.504358 0.804777 0.040363
C12   C     C_3   0.645911 0.855761 0.233210 0.342619
C13   C     C_R   0.847711 0.454434 0.775069 -0.254507
C14   C     C_R   0.731889 0.412654 0.839465 0.032606
C15   C     C_R   0.776887 0.409940 0.934436 -0.171453
C16   C     C_3   0.126642 0.841860 0.094560 -0.368607
C17   C     C_R   0.203397 0.557964 0.939156 -0.038843
C18   C     C_R   0.758657 0.176345 0.542431 -0.201680
C19   C     C_R   0.431436 0.812940 0.458914 -0.284701
C20   C     C_R   0.406280 0.994611 0.427666 -0.105087
C21   C     C_R   0.342607 0.887060 0.421268 -0.015167
C22   C     C_R   0.576855 0.846006 0.511631 0.074318
C23   C     C_3   0.474856 0.307677 0.258435 0.306054
C24   C     C_R   0.639435 0.956689 0.523508 -0.056247
C25   C     C_R   0.553819 0.031337 0.478923 -0.066770
C26   C     C_R   0.616395 0.141129 0.488246 0.020691
C27   C     C_R   0.847695 0.104326 0.583008 0.036632
C28   C     C_3   0.218328 0.760777 0.650234 0.278585
C29   C     C_R   0.786550 0.995301 0.575985 -0.102776
C30   C     C_3   0.218384 0.879507 0.666360 -0.345473
C31   C     C_3   0.967977 0.238413 0.346509 0.285055
C32   C     C_3   0.941498 0.118803 0.324872 -0.360386
C33   C     C_3   0.719159 0.678071 0.739671 0.307520
C34   C     C_3   0.457593 0.285101 0.152293 -0.390301
C35   C     C_3   0.736103 0.705148 0.845327 -0.396940
C36   C     C_3   0.039753 0.113428 0.797971 0.285007
C37   C     C_3   0.103531 0.064450 0.884340 -0.400129
C38   C     C_3   0.555397 0.148329 0.776095 0.669259
C39   C     C_3   0.550177 0.044072 0.826452 -0.378688
C40   C     C_R   0.982257 0.447652 0.061819 -0.031484
H1    H     H_    0.736900 0.889245 0.289556 0.078039
H2    H     H_    0.837976 0.658788 0.713535 0.007893
H3    H     H_    0.620666 0.608569 0.726938 0.051772
H4    H     H_    0.547264 0.004022 0.222753 0.103006
H5    H     H_    0.838316 0.772049 0.859926 0.123406
H6    H     H_    0.762682 0.635386 0.883565 0.061918
H7    H     H_    0.619551 0.728899 0.871997 0.119705
H8    H     H_    0.532255 0.818385 0.267362 -0.051773
H9    H     H_    0.507715 0.913255 0.120328 0.113799
H10   H     H_    0.355938 0.327382 0.284969 0.015865
H11   H     H_    0.573489 0.376902 0.272382 0.058178
H12   H     H_    0.318596 0.912440 0.716732 0.105646
H13   H     H_    0.356070 0.218273 0.135850 0.128155
H14   H     H_    0.429486 0.356895 0.117365 0.063002
H15   H     H_    0.574478 0.263398 0.124179 0.117346
H16   H     H_    0.711244 0.987075 0.141816 0.128786
H17   H     H_    0.165056 0.782478 0.042820 0.067282
H18   H     H_    0.032057 0.198361 0.817099 0.053170
H19   H     H_    0.917936 0.066052 0.778667 0.036695
H20   H     H_    0.220715 0.112207 0.910984 0.157821
H21   H     H_    0.011734 0.063686 0.941131 0.073684
H22   H     H_    0.122786 0.981095 0.866824 0.119006
H23   H     H_    0.238093 0.920441 0.599524 0.095628
H24   H     H_    0.489086 0.131118 0.706949 0.077540
H25   H     H_    0.625321 0.057406 0.892872 0.097631
H26   H     H_    0.600116 0.983975 0.780243 0.093301
H27   H     H_    0.059824 0.727070 0.198815 0.093501
H28   H     H_    0.422379 0.012523 0.844989 0.101739
H29   H     H_    0.376264 0.547692 0.299193 0.071128
H30   H     H_    0.493901 0.639327 0.019456 0.068896
H31   H     H_    0.687930 0.372442 0.982838 0.069224
H32   H     H_    0.812758 0.452232 0.701128 0.068580
H33   H     H_    0.895293 0.403032 0.106864 0.098237
H34   H     H_    0.098252 0.894182 0.695136 0.128831
H35   H     H_    0.290524 0.602037 0.893797 0.094040
H36   H     H_    0.335356 0.048420 0.394739 0.111978
H37   H     H_    0.858534 0.942376 0.609023 0.093925
H38   H     H_    0.807639 0.260447 0.546793 0.059107
H39   H     H_    0.271680 0.792053 0.206492 -0.069923
H40   H     H_    0.381264 0.729105 0.452464 0.069495
H41   H     H_    0.996911 0.851364 0.078482 0.153603
H42   H     H_    0.206517 0.919632 0.087621 0.109555
H43   H     H_    0.342428 0.745582 0.630492 0.000654
H44   H     H_    0.129144 0.733212 0.591733 0.088447
H45   H     H_    0.852599 0.263449 0.371825 -0.003185
H46   H     H_    0.770155 0.210884 0.823978 0.258772
H47   H     H_    0.064918 0.257094 0.402334 0.089034
H48   H     H_    0.840647 0.097755 0.271591 0.110659
H49   H     H_    0.907868 0.075753 0.389381 0.084696
H50   H     H_    0.056319 0.093627 0.297088 0.148800
O1    O     O_2   0.887370 0.460630 0.272300 -0.465735
O2    O     O_2   0.168324 0.114625 0.544432 -0.485768
O3    O     O_3   0.148140 0.108126 0.723426 -0.591744
O4    O     O_3   0.129410 0.451380 0.388510 -0.497101
O5    O     O_3   0.575400 0.626570 0.547370 -0.490851
O6    O     O_2   0.344320 0.238700 0.455090 -0.461128
O7    O     O_3   0.515358 0.216934 0.300591 -0.650074
O8    O     O_2   0.388247 0.407937 0.833233 -0.485499
O9    O     O_3   0.476454 0.219962 0.831736 -0.606273
O10   O     O_3   0.670210 0.653170 0.329170 -0.477879
O11   O     O_2   0.790536 0.592096 0.165388 -0.494574
O12   O     O_3   0.678829 0.767015 0.695588 -0.642750
O13   O     O_3   0.013944 0.289207 0.263664 -0.639530
O14   O     O_3   0.717491 0.784915 0.173104 -0.593689
O15   O     O_2   0.845380 0.761330 0.544970 -0.477826
O16   O     O_3   0.088930 0.704860 0.376040 -0.491419
O17   O     O_2   0.004601 0.889138 0.434530 -0.482113
O18   O     O_3   0.720204 0.189440 0.760679 -0.818297
O19   O     O_3   0.096439 0.880972 0.259025 -0.600892
O20   O     O_2   0.302330 0.539400 0.727760 -0.464751
O21   O     O_3   0.060300 0.548700 0.611500 -0.501303
O22   O     O_3   0.519500 0.346920 0.670840 -0.456253
O23   O     O_3   0.176079 0.711211 0.734304 -0.641764
O24   O     O_3   0.614310 0.373510 0.452640 -0.482195
O25   O     O_3   0.100780 0.295230 0.623970 -0.461887
P1    P     P_3+3 0.054400 0.427280 0.286870 0.967604
P2    P     P_3+3 0.668300 0.742890 0.573060 0.969116
P3    P     P_3+3 0.133545 0.842539 0.373329 0.947045
P4    P     P_3+3 0.135310 0.572810 0.713130 0.973125
P5    P     P_3+3 0.061657 0.154916 0.622587 0.978410
P6    P     P_3+3 0.657663 0.654213 0.206448 0.957965
P7    P     P_3+3 0.526893 0.241258 0.423078 0.932966
P8    P     P_3+3 0.527606 0.350226 0.794253 1.012484

loop_
_geom_bond_atom_site_label_1
_geom_bond_atom_site_label_2
_ccdc_geom_bond_type
C4    H27   S    
O5    P2    S    
O23   P4    S    
C8    C40   A    
C9    C11   A    
C4    O19   S    
O16   P3    S    
O11   P6    D    
Ba1   O16   S    
C5    C6    A    
C39   H25   S    
O6    P7    D    
C37   H22   S    
Ba2   O20   S    
C24   C25   A    
O4    P1    S    
C33   C35   S    
C23   H11   S    
C36   C37   S    
Ba2   O21   S    
C13   C14   A    
C11   P4    S    
Ba1   Ba2   S    
Ba1   P2    S    
C30   H12   S    
C17   H35   S    
C32   H49   S    
C10   C40   A    
C38   O9    S    
Ba2   O24   S    
C23   O7    S    
Ba2   O5    S    
C14   C15   A    
C39   H28   S    
O14   P6    S    
C16   H42   S    
Ba1   O24   S    
C35   H5    S    
C14   P8    S    
C28   O23   S    
O12   P2    S    
H46   O18   S    
C24   C29   A    
C4    H39   S    
C38   H24   S    
C15   H31   S    
C2    P1    S    
Ba1   O21   S    
O15   P2    D    
Ba2   O25   S    
C7    C17   A    
C16   H41   S    
C39   H26   S    
C18   C27   A    
C4    C16   S    
C6    H30   S    
C18   H38   S    
O8    P8    D    
C31   O13   S    
C20   H36   S    
C33   O12   S    
Ba1   O5    S    
C21   P3    S    
C3    C5    A    
O22   P8    S    
C1    H9    S    
C6    C7    A    
C38   O18   S    
C18   C26   A    
O19   P3    S    
C35   H6    S    
C36   O3    S    
O25   P5    S    
C32   H48   S    
C34   H14   S    
C31   H47   S    
C35   H7    S    
O9    P8    S    
C27   C29   A    
C9    C17   A    
C27   P5    S    
C31   C32   S    
C40   H33   S    
C28   H43   S    
C33   H2    S    
C1    C12   S    
Ba1   O15   S    
C36   H18   S    
O2    P5    D    
O3    P5    S    
C38   C39   S    
C34   H15   S    
C20   C25   A    
C11   C13   A    
O13   P1    S    
C28   H44   S    
O1    P1    D    
C2    C8    A    
O10   P6    S    
C33   H3    S    
C7    C8    A    
Ba2   P4    S    
C37   H20   S    
C22   P2    S    
O24   P7    S    
C22   C24   A    
C2    C3    A    
C30   H34   S    
C9    C10   A    
C26   P7    S    
C29   H37   S    
C37   H21   S    
C1    H4    S    
C36   H19   S    
C19   C21   A    
C31   H45   S    
C23   H10   S    
O20   P4    D    
C3    H29   S    
C34   H13   S    
C10   C15   A    
C28   C30   S    
Ba2   O22   S    
C12   H8    S    
Ba1   O4    S    
Ba2   O4    S    
Ba1   P1    S    
C32   H50   S    
C23   C34   S    
C1    H16   S    
C16   H17   S    
C12   O14   S    
C13   H32   S    
O21   P4    S    
C19   H40   S    
Ba2   O6    S    
Ba1   O1    S    
C19   C22   A    
C25   C26   A    
C20   C21   A    
C12   H1    S    
O7    P7    S    
Ba1   O10   S    
O17   P3    D    
C5    P6    S    
C30   H23   S    
