data_mof_unit_30284.cif
_audit_creation_date              2012-12-10T17:26:22-0500
_audit_creation_method            fapswitch 2.2
_symmetry_space_group_name_H-M    P1
_symmetry_Int_Tables_number       1
_space_group_crystal_system       triclinic
_cell_length_a                    10.157159
_cell_length_b                    10.951884
_cell_length_c                    27.265878
_cell_angle_alpha                 92.21872
_cell_angle_beta                  82.120513
_cell_angle_gamma                 93.476105
_cell_volume                      2997.47508533

loop_
_atom_site_label
_atom_site_type_symbol
_atom_type_description
_atom_site_fract_x
_atom_site_fract_y
_atom_site_fract_z
_atom_type_partial_charge
C1    C     C_R   0.553019 0.730647 0.495581 0.814356
C2    C     C_R   0.447241 0.267586 0.501006 0.808331
C3    C     C_R   0.459021 0.570874 0.905325 -0.154139
C4    C     C_R   0.566582 0.616212 0.102176 -0.140406
C5    C     C_R   0.469544 0.673481 0.875255 -0.266953
C6    C     C_R   0.609873 0.513659 0.124050 -0.267198
C7    C     C_R   0.501934 0.789874 0.895393 0.594146
C8    C     C_R   0.635224 0.406053 0.095439 0.603016
C9    C     C_R   0.424882 0.453459 0.885834 -0.045948
C10   C     C_R   0.539770 0.724712 0.130735 -0.033744
C11   C     C_R   0.496455 0.503037 0.648553 -0.245270
C12   C     C_R   0.510361 0.534785 0.353992 -0.208877
C13   C     C_R   0.517777 0.713269 0.027733 0.143468
C14   C     C_R   0.494087 0.479728 0.981904 0.151149
C15   C     C_R   0.545601 0.492234 0.027220 -0.188970
C16   C     C_R   0.507105 0.703213 0.976235 -0.168519
C17   C     C_R   0.545057 0.607888 0.052117 0.009866
C18   C     C_R   0.485507 0.584977 0.954700 0.009806
C19   C     C_R   0.498380 0.822950 0.055918 -0.158120
C20   C     C_R   0.441881 0.366642 0.964786 -0.148316
C21   C     C_R   0.508657 0.830006 0.106719 -0.025532
C22   C     C_R   0.399600 0.353922 0.918070 0.012334
C23   C     C_R   0.500689 0.501823 0.594443 0.917978
C24   C     C_R   0.500616 0.503741 0.405888 0.900134
C25   C     C_R   0.519470 0.804962 0.945173 0.461980
C26   C     C_R   0.599133 0.393810 0.048157 0.508757
C27   C     C_2   0.577878 0.859399 0.494251 0.398865
C28   C     C_2   0.424380 0.136028 0.495557 0.405587
C29   C     C_2   0.496889 0.930605 0.473929 -0.093239
C30   C     C_2   0.523974 0.062670 0.476744 -0.132900
C31   C     C_2   0.925859 0.505147 0.506108 0.621454
C32   C     C_2   0.072056 0.484704 0.497919 0.634854
C33   C     C_R   0.455056 0.655160 0.825035 0.701329
C34   C     C_R   0.619356 0.519513 0.174658 0.684120
C35   C     C_R   0.424782 0.439012 0.834391 0.600725
C36   C     C_R   0.534483 0.718858 0.182747 0.597684
C37   C     C_R   0.359310 0.468054 0.727738 0.648972
C38   C     C_R   0.626869 0.656095 0.287188 0.618761
C39   C     C_R   0.377926 0.457140 0.676364 -0.307036
C40   C     C_R   0.609578 0.623669 0.336479 -0.335671
C41   C     C_R   0.600124 0.556707 0.673474 -0.178670
C42   C     C_R   0.425586 0.479146 0.321837 -0.154114
C43   C     C_R   0.582453 0.561210 0.725429 0.579920
C44   C     C_R   0.439733 0.517273 0.272843 0.511520
C45   C     C_R   0.461081 0.521397 0.752408 0.019602
C46   C     C_R   0.543142 0.601452 0.255228 0.057286
H1    H     H_    0.675155 0.666796 0.361048 0.191245
H2    H     H_    0.297129 0.416021 0.658085 0.206199
H3    H     H_    0.467306 0.903052 0.039767 0.210489
H4    H     H_    0.423182 0.290680 0.989492 0.184027
N1    N     N_R   0.441770 0.538971 0.805242 -0.327630
N2    N     N_R   0.572577 0.616924 0.203046 -0.305848
N3    N     N_2   0.842700 0.448890 0.480020 0.086739
N4    N     N_2   0.157300 0.551110 0.519980 0.085941
O1    O     O_R   0.431060 0.692470 0.504020 -0.629128
O2    O     O_R   0.568940 0.307530 0.495980 -0.666842
O3    O     O_R   0.651120 0.659650 0.491200 -0.564406
O4    O     O_R   0.348880 0.340350 0.508800 -0.533546
O5    O     O_R   0.389980 0.516390 0.577660 -0.602344
O6    O     O_R   0.610020 0.483610 0.422340 -0.584788
O7    O     O_R   0.610040 0.483570 0.564830 -0.581777
O8    O     O_R   0.389960 0.516430 0.435170 -0.579638
O9    O     O_2   0.458159 0.751903 0.795626 -0.446464
O10   O     O_2   0.667266 0.425893 0.196294 -0.517593
O11   O     O_2   0.485020 0.809940 0.213152 -0.569616
O12   O     O_2   0.416559 0.325890 0.813201 -0.491959
Zn1   Zn    Zn3+2 0.353060 0.521910 0.508560 1.082920
Zn2   Zn    Zn3+2 0.646940 0.478090 0.491440 1.070304
C47   C     C_R   0.718051 0.626021 0.648204 0.191089
C48   C     C_R   0.846386 0.597566 0.656286 -0.024476
C49   C     C_R   0.955762 0.678267 0.642220 -0.006734
C50   C     C_R   0.938201 0.787413 0.619624 -0.005139
C51   C     C_R   0.811516 0.815287 0.610557 -0.045694
C52   C     C_R   0.701600 0.734972 0.624683 -0.048004
H5    H     H_    0.860747 0.515269 0.675238 0.151862
H6    H     H_    0.053955 0.656773 0.649284 0.158076
H7    H     H_    0.022815 0.850330 0.609093 0.157718
H8    H     H_    0.798308 0.900776 0.593787 0.185622
H9    H     H_    0.603183 0.760457 0.619457 0.129384
C53   C     C_R   0.342017 0.366582 0.334798 0.174304
C54   C     C_R   0.401487 0.263950 0.349619 -0.172789
C55   C     C_R   0.331340 0.150478 0.352697 -0.102358
C56   C     C_R   0.202152 0.137800 0.340481 -0.138684
C57   C     C_R   0.140628 0.240117 0.327217 -0.110554
C58   C     C_R   0.209762 0.354378 0.324754 0.028585
H10   H     H_    0.504247 0.270227 0.356504 0.131314
H11   H     H_    0.378855 0.071955 0.363184 0.156029
H12   H     H_    0.149667 0.048761 0.341624 0.138806
H13   H     H_    0.040345 0.230772 0.317858 0.148703
H14   H     H_    0.162239 0.432179 0.313083 0.160086
F1    F     F_    0.298744 0.088824 0.509691 -0.684314
F2    F     F_    0.676949 0.905794 0.519310 -0.708286
F3    F     F_    0.117055 0.389300 0.468226 -0.653766
F4    F     F_    0.876532 0.581078 0.543583 -0.660856
F5    F     F_    0.116227 0.653560 0.543856 -0.621867
F6    F     F_    0.893332 0.392085 0.437949 -0.582459
F7    F     F_    0.680490 0.612349 0.750236 -0.636398
F8    F     F_    0.361608 0.464257 0.240389 -0.692704
F9    F     F_    0.522114 0.889694 0.866672 -0.573486
F10   F     F_    0.689655 0.310016 0.113539 -0.604686
F11   F     F_    0.727656 0.736996 0.270134 -0.647014
F12   F     F_    0.240850 0.429949 0.753387 -0.631188
C59   C     C_R   0.489164 0.949930 0.132995 0.156921
C60   C     C_R   0.593365 0.010155 0.155053 -0.016871
C61   C     C_R   0.571677 0.118317 0.183129 0.005180
C62   C     C_R   0.447434 0.169044 0.188085 -0.065038
C63   C     C_R   0.344652 0.111903 0.164883 -0.131104
C64   C     C_R   0.365204 0.002579 0.137405 -0.130428
H15   H     H_    0.689858 0.971267 0.151704 0.137791
H16   H     H_    0.651218 0.162789 0.201064 0.182543
H17   H     H_    0.430905 0.252484 0.209928 0.210959
H18   H     H_    0.248588 0.151557 0.168689 0.163084
H19   H     H_    0.283988 0.957689 0.120467 0.139289
C65   C     C_R   0.314191 0.243491 0.907084 0.102915
C66   C     C_R   0.346725 0.125865 0.918639 -0.057247
C67   C     C_R   0.259845 0.024382 0.911865 -0.056071
C68   C     C_R   0.141013 0.038786 0.892914 -0.102744
C69   C     C_R   0.107664 0.155011 0.881303 -0.065671
C70   C     C_R   0.192902 0.257023 0.888788 -0.061770
H20   H     H_    0.438560 0.112837 0.933253 0.216316
H21   H     H_    0.283785 0.934491 0.921698 0.143246
H22   H     H_    0.074247 0.959992 0.887625 0.163276
H23   H     H_    0.014889 0.166327 0.867090 0.174179
H24   H     H_    0.163507 0.346830 0.880852 0.149632
F13   F     F_    0.562953 0.917612 0.960646 -0.642165
F14   F     F_    0.625226 0.287998 0.021934 -0.618092
C71   C     C_R   0.667091 0.103707 0.462162 0.155119
C72   C     C_R   0.748880 0.138157 0.498852 0.032285
C73   C     C_R   0.887023 0.148637 0.486905 -0.059005
C74   C     C_R   0.945154 0.124810 0.438402 0.027442
C75   C     C_R   0.865004 0.093091 0.401527 -0.119625
C76   C     C_R   0.726627 0.083132 0.413253 -0.149206
H25   H     H_    0.705517 0.150490 0.537171 0.130674
H26   H     H_    0.949114 0.172841 0.515440 0.150344
H27   H     H_    0.052284 0.130614 0.429777 0.175424
H28   H     H_    0.909607 0.072905 0.364037 0.126853
H29   H     H_    0.666230 0.054742 0.384644 0.122175
C77   C     C_R   0.394751 0.879534 0.443064 0.068452
C78   C     C_R   0.261971 0.854400 0.464112 0.083567
C79   C     C_R   0.167921 0.805137 0.434815 -0.152857
C80   C     C_R   0.205660 0.779864 0.384415 -0.136191
C81   C     C_R   0.337604 0.803254 0.363318 -0.104527
C82   C     C_R   0.432113 0.851984 0.392571 -0.244016
H30   H     H_    0.231808 0.870488 0.503342 0.207349
H31   H     H_    0.065967 0.785812 0.451278 0.170573
H32   H     H_    0.132853 0.741630 0.361764 0.158946
H33   H     H_    0.366738 0.783380 0.324292 0.171839
H34   H     H_    0.534130 0.868723 0.375797 0.147467

loop_
_geom_bond_atom_site_label_1
_geom_bond_atom_site_label_2
_ccdc_geom_bond_type
C40   H1    S    
C61   H16   S    
C42   C53   S    
C27   C29   D    
C8    C26   A    
C51   C52   A    
C14   C18   A    
C74   H27   S    
C72   C73   A    
C65   C66   A    
C70   H24   S    
C23   O5    A    
C29   C77   S    
C29   C30   S    
C7    F9    S    
O8    Zn1   S    
C19   C21   A    
C38   F11   S    
C77   C82   A    
C60   H15   S    
C9    C22   A    
C62   C63   A    
C45   N1    S    
C55   H11   S    
C46   N2    S    
C67   C68   A    
C3    C18   A    
C26   F14   S    
N3    Zn2   S    
C25   F13   S    
C69   C70   A    
C12   C42   A    
C50   H7    S    
O5    Zn1   S    
C71   C76   A    
C44   F8    S    
C56   C57   A    
C5    C33   A    
C20   H4    S    
C51   H8    S    
C11   C41   A    
C59   C64   A    
C54   H10   S    
C36   N2    A    
C24   O6    A    
C1    C27   S    
C56   H12   S    
N3    F6    S    
C41   C43   A    
C42   C44   A    
C32   N4    D    
C60   C61   A    
C44   C46   A    
C54   C55   A    
C62   H17   S    
C10   C21   A    
C82   H34   S    
C78   C79   A    
C67   H21   S    
C13   C19   A    
C14   C20   A    
C47   C52   A    
C79   C80   A    
C4    C6    A    
C75   H28   S    
C5    C7    A    
C36   O11   S    
C50   C51   A    
C15   C26   A    
C6    C8    A    
N4    Zn1   S    
C35   O12   S    
C76   H29   S    
O2    Zn2   S    
C31   N3    D    
C37   F12   S    
C6    C34   A    
C64   H19   S    
C12   C40   A    
C68   H22   S    
C72   H25   S    
C53   C58   A    
C3    C9    A    
C1    O3    A    
C78   H30   S    
C19   H3    S    
C31   C32   S    
C23   O7    A    
C33   O9    S    
C34   O10   S    
C27   F2    S    
C63   H18   S    
C57   C58   A    
C11   C39   A    
C43   C45   A    
N4    F5    S    
C48   C49   A    
C80   H32   S    
C4    C17   A    
C20   C22   A    
C66   H20   S    
C52   H9    S    
C35   N1    A    
C57   H13   S    
C63   C64   A    
C4    C10   A    
C71   C72   A    
C48   H5    S    
C41   C47   S    
C73   C74   A    
C16   C25   A    
C15   C17   A    
C30   C71   S    
C24   O8    A    
C14   C15   A    
C81   H33   S    
C43   F7    S    
C53   C54   A    
C3    C5    A    
C79   H31   S    
O1    Zn1   S    
C58   H14   S    
C2    O4    A    
C33   N1    A    
C31   F4    S    
C61   C62   A    
C12   C24   S    
C34   N2    A    
C7    C25   A    
C13   C17   A    
C28   C30   D    
C74   C75   A    
C8    F10   S    
C49   C50   A    
C37   C39   A    
C2    O2    A    
C68   C69   A    
C38   C40   A    
O7    Zn2   S    
C66   C67   A    
C49   H6    S    
C65   C70   A    
C11   C23   S    
C10   C36   A    
C32   F3    S    
C28   F1    S    
C69   H23   S    
C1    O1    A    
C47   C48   A    
C38   C46   A    
C77   C78   A    
C73   H26   S    
C21   C59   S    
O4    Zn1   S    
C22   C65   S    
O6    Zn2   S    
C16   C18   A    
C55   C56   A    
C13   C16   A    
C59   C60   A    
C9    C35   A    
C81   C82   A    
C2    C28   S    
O3    Zn2   S    
C80   C81   A    
C37   C45   A    
C75   C76   A    
C39   H2    S    
