data_mof_unit_54171.cif
_audit_creation_date              2012-12-10T18:22:20-0500
_audit_creation_method            fapswitch 2.2
_symmetry_space_group_name_H-M    P1
_symmetry_Int_Tables_number       1
_space_group_crystal_system       triclinic
_cell_length_a                    14.915819
_cell_length_b                    14.041001
_cell_length_c                    15.736354
_cell_angle_alpha                 90.310456
_cell_angle_beta                  89.738759
_cell_angle_gamma                 89.390961
_cell_volume                      3295.44259075

loop_
_atom_site_label
_atom_site_type_symbol
_atom_type_description
_atom_site_fract_x
_atom_site_fract_y
_atom_site_fract_z
_atom_type_partial_charge
C1    C     C_R   0.326895 0.500483 0.500275 0.879104
C2    C     C_3   0.601015 0.494546 0.950626 -0.364212
C3    C     C_3   0.600826 0.494134 0.048723 -0.533737
C4    C     C_1   0.503205 0.500636 0.825904 0.146291
C5    C     C_1   0.503059 0.499290 0.174078 0.209865
C6    C     C_1   0.502057 0.499319 0.249370 -0.080597
C7    C     C_R   0.813287 0.557879 0.443493 -0.173656
C8    C     C_R   0.768507 0.498259 0.499040 -0.067717
C9    C     C_R   0.814015 0.437798 0.553937 -0.187345
C10   C     C_R   0.906996 0.439154 0.556631 -0.034525
C11   C     C_R   0.953418 0.498367 0.499080 -0.054079
C12   C     C_R   0.500526 0.499772 0.338212 0.877995
C13   C     C_R   0.906231 0.556755 0.440980 -0.045150
C14   C     C_R   0.954111 0.383049 0.615981 0.381554
C15   C     C_R   0.047662 0.379365 0.612920 0.373994
C16   C     C_R   0.093933 0.439642 0.556731 -0.043907
C17   C     C_R   0.046669 0.499510 0.499833 -0.054408
C18   C     C_R   0.092952 0.560964 0.444021 -0.033741
C19   C     C_R   0.045663 0.620292 0.387344 0.377688
C20   C     C_R   0.952545 0.613584 0.382142 0.373668
C21   C     C_R   0.186890 0.442008 0.556771 -0.170909
C22   C     C_R   0.231534 0.501475 0.500990 -0.068455
C23   C     C_R   0.673137 0.499493 0.499842 0.858433
C24   C     C_R   0.185972 0.560908 0.445331 -0.174557
C25   C     C_R   0.559386 0.797177 0.449332 0.609598
C26   C     C_R   0.559437 0.200901 0.449393 0.609804
C27   C     C_R   0.440346 0.799090 0.550366 0.598917
C28   C     C_R   0.440386 0.202858 0.550418 0.599032
C29   C     C_R   0.438591 0.899815 0.551248 -0.104100
C30   C     C_R   0.438636 0.102212 0.551280 -0.096566
C31   C     C_R   0.499665 0.949395 0.499695 0.000915
C32   C     C_R   0.499681 0.050627 0.499703 0.002355
C33   C     C_R   0.560743 0.897824 0.448133 -0.104972
C34   C     C_R   0.560777 0.100198 0.448159 -0.106426
C35   C     C_R   0.377616 0.952026 0.602190 -0.115318
C36   C     C_R   0.377669 0.052043 0.602227 -0.126713
C37   C     C_R   0.621399 0.048012 0.396870 -0.110060
C38   C     C_R   0.621383 0.948010 0.396854 -0.109783
C39   C     C_R   0.500373 0.500217 0.661797 0.877440
C40   C     C_3   0.458466 0.593290 0.049960 1.031862
C41   C     C_3   0.450980 0.411867 0.048523 1.033969
C42   C     C_3   0.450383 0.413293 0.950067 0.321767
C43   C     C_3   0.457756 0.592755 0.951483 0.324530
C44   C     C_1   0.502008 0.500629 0.750624 -0.114432
C45   C     C_3   0.503002 0.499640 0.082569 -0.239119
C46   C     C_3   0.503444 0.500320 0.917363 -0.193360
H1    H     H_    0.387227 0.596132 0.928690 0.104784
H2    H     H_    0.379922 0.418217 0.927269 0.103912
H3    H     H_    0.225429 0.398537 0.600403 0.202197
H4    H     H_    0.223725 0.605317 0.402175 0.178958
H5    H     H_    0.329773 0.915715 0.642220 0.195164
H6    H     H_    0.329944 0.089990 0.642318 0.182065
H7    H     H_    0.669050 0.084348 0.356654 0.197151
H8    H     H_    0.669032 0.910104 0.356636 0.198221
H9    H     H_    0.640152 0.555508 0.072789 0.244061
H10   H     H_    0.634876 0.428297 0.071739 0.250849
H11   H     H_    0.640227 0.556255 0.927370 0.237794
H12   H     H_    0.635017 0.428834 0.926322 0.234372
H13   H     H_    0.775012 0.603817 0.401638 0.207155
H14   H     H_    0.776239 0.391957 0.595837 0.172801
N1    N     N_R   0.500070 0.750030 0.500040 -0.202325
N2    N     N_R   0.500070 0.249970 0.500040 -0.200077
O1    O     O_R   0.367860 0.580280 0.500020 -0.582484
O2    O     O_R   0.367860 0.419720 0.500020 -0.582588
O3    O     O_R   0.500020 0.580310 0.377140 -0.576646
O4    O     O_R   0.500020 0.419690 0.377140 -0.569441
O5    O     O_R   0.632160 0.580270 0.499980 -0.583448
O6    O     O_R   0.632160 0.419730 0.499980 -0.580128
O7    O     O_R   0.500010 0.580240 0.622850 -0.570601
O8    O     O_R   0.500010 0.419760 0.622850 -0.577336
Zn1   Zn    Zn3+2 0.500020 0.607200 0.499990 1.072112
Zn2   Zn    Zn3+2 0.500020 0.392800 0.499990 1.073771
O9    O     O_3   0.093123 0.323713 0.671442 -0.638112
C47   C     C_3   0.125856 0.239180 0.632193 0.094762
H15   H     H_    0.190594 0.220630 0.662952 0.204051
H16   H     H_    0.140550 0.246796 0.562915 0.129876
C48   C     C_3   0.060388 0.157492 0.646020 -0.300817
H17   H     H_    0.041803 0.153573 0.714395 0.251912
H18   H     H_    0.998579 0.170817 0.608596 0.242701
C49   C     C_3   0.101878 0.062525 0.618132 -0.967667
H19   H     H_    0.124789 0.066550 0.551029 0.269610
H20   H     H_    0.051316 0.005405 0.623738 0.278382
H21   H     H_    0.159975 0.044170 0.659031 0.269434
O10   O     O_3   0.090261 0.679852 0.331811 -0.628047
C50   C     C_3   0.113559 0.765353 0.374093 0.085786
H22   H     H_    0.177276 0.790448 0.345523 0.185221
H23   H     H_    0.126765 0.756101 0.443396 0.127811
C51   C     C_3   0.041195 0.841993 0.360942 -0.296746
H24   H     H_    0.028151 0.850487 0.291890 0.251196
H25   H     H_    0.978092 0.820231 0.392715 0.247310
C52   C     C_3   0.069811 0.937283 0.398322 -0.958089
H26   H     H_    0.082359 0.929642 0.467415 0.267700
H27   H     H_    0.015727 0.991140 0.389108 0.279117
H28   H     H_    0.131726 0.962509 0.366488 0.277642
O11   O     O_3   0.907042 0.668804 0.323312 -0.634683
C53   C     C_3   0.880487 0.611793 0.253412 0.071904
H29   H     H_    0.815121 0.640293 0.230720 0.187614
H30   H     H_    0.869132 0.535543 0.269792 0.125150
C54   C     C_3   0.949041 0.618390 0.181032 -0.280648
H31   H     H_    0.960992 0.694475 0.165952 0.248824
H32   H     H_    0.013475 0.585359 0.201136 0.254281
C55   C     C_3   0.916338 0.567305 0.101285 -0.946249
H33   H     H_    0.905380 0.490674 0.114589 0.270118
H34   H     H_    0.967495 0.573195 0.050158 0.283408
H35   H     H_    0.852680 0.600019 0.078712 0.270473
F1    F     F_    0.617160 0.746115 0.399721 -0.645943
F2    F     F_    0.617291 0.250134 0.399938 -0.635489
F3    F     F_    0.382496 0.749838 0.599808 -0.636320
F4    F     F_    0.382576 0.253944 0.599972 -0.660363
F5    F     F_    0.371182 0.601570 0.080180 -0.633549
F6    F     F_    0.363411 0.413485 0.078664 -0.634410
F7    F     F_    0.491406 0.328460 0.076915 -0.573196
F8    F     F_    0.505581 0.671385 0.079619 -0.576510
F9    F     F_    0.487085 0.329341 0.917581 -0.573159
F10   F     F_    0.501163 0.672347 0.920281 -0.572148
O12   O     O_3   0.909400 0.326458 0.673923 -0.635847
C56   C     C_3   0.878426 0.382397 0.743584 0.065086
H36   H     H_    0.811776 0.354810 0.762608 0.173806
H37   H     H_    0.868118 0.459391 0.728473 0.119463
C57   C     C_3   0.942415 0.372393 0.818851 -0.278057
H38   H     H_    0.953815 0.295658 0.832626 0.245429
H39   H     H_    0.007811 0.404873 0.802591 0.250981
C58   C     C_3   0.904588 0.421662 0.898173 -0.956502
H40   H     H_    0.894258 0.498921 0.886333 0.268806
H41   H     H_    0.952490 0.413102 0.951455 0.282884
H42   H     H_    0.839709 0.389557 0.916865 0.270585

loop_
_geom_bond_atom_site_label_1
_geom_bond_atom_site_label_2
_ccdc_geom_bond_type
C41   C42   S    
C16   C21   A    
C27   C29   A    
C34   C37   A    
C11   C13   A    
O9    C47   S    
C19   C20   A    
C21   H3    S    
C2    H11   S    
C58   H40   S    
C4    C46   S    
C48   H17   S    
C2    C46   S    
C42   H2    S    
C47   H16   S    
C18   C24   A    
C56   H37   S    
C6    C12   S    
C5    C6    T    
C58   H41   S    
C15   C16   A    
C53   C54   S    
C8    C23   S    
O12   C56   S    
C55   H35   S    
C18   C19   A    
C42   C46   S    
C23   O5    A    
O7    Zn1   S    
C27   N1    A    
C43   F10   S    
C3    H9    S    
C26   C34   A    
C40   C43   S    
O4    Zn2   S    
C40   F8    S    
C8    C9    A    
C47   C48   S    
C53   H30   S    
C31   C33   A    
C41   F7    S    
C9    C10   A    
C36   H6    S    
C57   C58   S    
C37   H7    S    
N1    Zn1   S    
C48   H18   S    
C1    C22   S    
C21   C22   A    
C49   H21   S    
C1    O1    A    
C7    H13   S    
C57   H39   S    
C25   F1    S    
C50   H23   S    
C24   H4    S    
C40   C45   S    
C42   F9    S    
C47   H15   S    
C7    C8    A    
O10   C50   S    
C49   H20   S    
C10   C14   A    
C56   C57   S    
C52   H26   S    
C16   C17   A    
C58   H42   S    
C40   F5    S    
C4    C44   T    
C50   H22   S    
C12   O4    A    
C3    C45   S    
C35   C36   A    
C32   C34   A    
C23   O6    A    
C37   C38   A    
C52   H27   S    
C3    H10   S    
C54   H31   S    
C38   H8    S    
C51   C52   S    
O6    Zn2   S    
C53   H29   S    
C17   C18   A    
C39   O7    A    
N2    Zn2   S    
C25   N1    A    
C55   H34   S    
C15   O9    S    
C20   O11   S    
O1    Zn1   S    
C35   H5    S    
C22   C24   A    
C19   O10   S    
C1    O2    A    
C57   H38   S    
C50   C51   S    
C11   C17   A    
C13   C20   A    
C54   H32   S    
C31   C32   A    
C51   H25   S    
C49   H19   S    
C26   F2    S    
C2    H12   S    
C39   C44   S    
C28   F4    S    
C12   O3    A    
C29   C35   A    
C33   C38   A    
C30   C36   A    
C9    H14   S    
C28   C30   A    
C2    C3    S    
C26   N2    A    
C29   C31   A    
O3    Zn1   S    
C56   H36   S    
C52   H28   S    
C30   C32   A    
C48   C49   S    
C5    C45   S    
C27   F3    S    
C14   O12   S    
C39   O8    A    
O5    Zn1   S    
O2    Zn2   S    
C55   H33   S    
C43   C46   S    
C10   C11   A    
C7    C13   A    
C54   C55   S    
C51   H24   S    
C41   F6    S    
O11   C53   S    
C41   C45   S    
C14   C15   A    
O8    Zn2   S    
C43   H1    S    
C25   C33   A    
C28   N2    A    
