data_mof_unit_9208.cif
_audit_creation_date              2012-12-11T14:17:35-0500
_audit_creation_method            fapswitch 2.2
_symmetry_space_group_name_H-M    P1
_symmetry_Int_Tables_number       1
_space_group_crystal_system       triclinic
_cell_length_a                    6.943051
_cell_length_b                    13.639199
_cell_length_c                    20.420281
_cell_angle_alpha                 102.033391
_cell_angle_beta                  90.633798
_cell_angle_gamma                 90.308114
_cell_volume                      1891.08686297

loop_
_atom_site_label
_atom_site_type_symbol
_atom_type_description
_atom_site_fract_x
_atom_site_fract_y
_atom_site_fract_z
_atom_type_partial_charge
O1    O     O_R   0.506860 0.599390 0.449240 -0.539247
O2    O     O_R   0.180220 0.594600 0.586780 -0.548138
O3    O     O_R   0.004500 0.400610 0.550760 -0.538336
C1    C     C_R   0.349458 0.611106 0.614948 0.700433
O4    O     O_R   0.177490 0.611290 0.451970 -0.541574
O5    O     O_R   0.001750 0.417420 0.414990 -0.544971
C2    C     C_R   0.345185 0.638239 0.435267 0.710772
O6    O     O_R   0.509610 0.582580 0.585010 -0.544372
O7    O     O_3   0.337420 0.436370 0.488020 -0.369355
V1    V     V_3+5 0.064680 0.511800 0.502220 1.406946
O8    O     O_R   0.671710 0.405400 0.413220 -0.541979
C3    C     C_R   0.839862 0.381570 0.387542 0.726932
O9    O     O_R   0.674440 0.388710 0.548030 -0.543122
C4    C     C_R   0.843599 0.361773 0.564588 0.692721
V2    V     V_3+5 0.564010 0.488200 0.497780 1.406784
O10   O     O_3   0.841140 0.563630 0.511980 -0.372245
C5    C     C_R   0.866622 0.110807 0.612544 -0.153377
H1    H     H_    0.863510 0.160809 0.519988 0.111953
H2    H     H_    0.869260 0.985375 0.695712 0.120044
H3    H     H_    0.871459 0.032549 0.587509 0.106535
C6    C     C_R   0.853015 0.284864 0.604779 -0.027565
C7    C     C_R   0.863769 0.315244 0.928339 -0.167540
C8    C     C_R   0.867903 0.391207 0.892458 -0.124484
C9    C     C_R   0.868549 0.368184 0.822709 -0.158703
C10   C     C_R   0.862419 0.267515 0.786728 0.077589
C11   C     C_R   0.861561 0.189860 0.823895 0.067254
C12   C     C_R   0.860305 0.241399 0.715223 0.071466
C13   C     C_R   0.864740 0.138515 0.682696 0.144602
C14   C     C_R   0.866518 0.063916 0.720245 -0.206614
C15   C     C_R   0.863394 0.088952 0.789668 -0.197510
C16   C     C_R   0.852218 0.313687 0.674619 -0.219963
C17   C     C_R   0.861611 0.183618 0.573906 -0.186430
C18   C     C_R   0.861547 0.214896 0.894825 -0.073224
H4    H     H_    0.842639 0.392890 0.695381 0.091387
H5    H     H_    0.865322 0.334715 0.982582 0.101538
H6    H     H_    0.877634 0.430840 0.798493 0.107597
H7    H     H_    0.872692 0.468737 0.918928 0.120402
H8    H     H_    0.863666 0.028159 0.816337 0.118671
C19   C     C_2   0.985695 0.299973 0.280743 -0.177443
C20   C     C_2   0.847598 0.298793 0.327290 0.000648
H9    H     H_    0.092098 0.360135 0.289740 0.115590
C21   C     C_2   0.007853 0.224138 0.217275 -0.149184
C22   C     C_2   0.857559 0.191926 0.176237 -0.338543
H10   H     H_    0.152681 0.200733 0.201997 0.139619
H11   H     H_    0.714903 0.220897 0.190185 0.135662
C23   C     C_2   0.211269 0.782408 0.784216 -0.144246
C24   C     C_2   0.361938 0.835092 0.815047 -0.281965
H12   H     H_    0.075657 0.782454 0.810217 0.130892
H13   H     H_    0.491146 0.842051 0.787061 0.126483
C25   C     C_2   0.219866 0.727518 0.713207 -0.168290
C26   C     C_2   0.361498 0.663002 0.686662 -0.060607
H14   H     H_    0.097182 0.737826 0.681939 0.120117
C27   C     C_R   0.230683 0.881929 0.386337 0.159249
H15   H     H_    0.231107 0.826055 0.477662 0.105157
H16   H     H_    0.180488 0.001906 0.296097 0.144548
C28   C     C_R   0.345286 0.717542 0.396655 -0.071291
C29   C     C_R   0.423023 0.689149 0.075248 -0.163833
C30   C     C_R   0.447122 0.615703 0.112458 -0.123182
C31   C     C_R   0.420596 0.638037 0.181458 -0.159052
C32   C     C_R   0.366406 0.735419 0.215319 0.091898
C33   C     C_R   0.332879 0.809023 0.176204 0.070927
C34   C     C_R   0.342733 0.761609 0.286432 0.042530
C35   C     C_R   0.270107 0.858222 0.316493 0.111606
C36   C     C_R   0.235033 0.927912 0.275932 -0.207880
C37   C     C_R   0.269887 0.904650 0.207739 -0.212830
C38   C     C_R   0.385229 0.693877 0.328461 -0.229327
C39   C     C_R   0.267613 0.810437 0.425015 -0.200312
C40   C     C_R   0.365616 0.785596 0.106196 -0.081901
H17   H     H_    0.442504 0.620328 0.309545 0.104232
H18   H     H_    0.451058 0.670986 0.021980 0.106071
H19   H     H_    0.441506 0.576728 0.206441 0.103944
H20   H     H_    0.489687 0.540985 0.087751 0.117957
H21   H     H_    0.242639 0.962348 0.179663 0.128680
O11   O     O_R   0.203230 0.917310 0.915020 -0.538390
O12   O     O_R   0.535500 0.888690 0.048040 -0.538696
O13   O     O_R   0.711080 0.082610 0.085000 -0.543005
C41   C     C_R   0.367853 0.863098 0.065868 0.690692
O14   O     O_R   0.532630 0.905370 0.913230 -0.549427
O15   O     O_R   0.708190 0.099410 0.949230 -0.540515
C42   C     C_R   0.363952 0.888393 0.885560 0.738000
O16   O     O_R   0.206120 0.900510 0.050790 -0.540822
O17   O     O_3   0.375360 0.063570 0.011990 -0.372960
V3    V     V_3+5 0.648170 0.988200 0.997780 1.411525
O18   O     O_R   0.038240 0.111390 0.951940 -0.540389
C43   C     C_R   0.869293 0.137706 0.935020 0.686375
O19   O     O_R   0.041120 0.094710 0.086750 -0.543998
C44   C     C_R   0.872620 0.117882 0.112516 0.750048
V4    V     V_3+5 0.148810 0.011930 0.002180 1.416065
O20   O     O_3   0.871750 0.936430 0.988010 -0.371808
C45   C     C_3   0.712386 0.209706 0.325217 -0.332733
C46   C     C_3   0.736176 0.166755 0.388150 -0.804509
H22   H     H_    0.891280 0.161994 0.400740 0.225892
H23   H     H_    0.662199 0.214652 0.431033 0.232964
H24   H     H_    0.673145 0.090137 0.379611 0.220772
H25   H     H_    0.560830 0.233462 0.320687 0.173641
H26   H     H_    0.740506 0.146926 0.282664 0.204595
C47   C     C_3   0.524804 0.632870 0.729135 -0.318881
C48   C     C_3   0.451384 0.575436 0.781636 -0.277107
C49   C     C_3   0.574878 0.597927 0.845434 -0.782369
H27   H     H_    0.729647 0.586807 0.833356 0.218122
H28   H     H_    0.553930 0.676669 0.872249 0.228993
H29   H     H_    0.532073 0.547411 0.879029 0.219259
H30   H     H_    0.299844 0.594205 0.795578 0.204587
H31   H     H_    0.454951 0.493559 0.760069 0.180885
H32   H     H_    0.628165 0.582930 0.697199 0.149475
H33   H     H_    0.613701 0.698727 0.752112 0.174293
C50   C     C_3   0.135435 0.978672 0.420745 -0.382271
C51   C     C_3   0.279451 0.065524 0.437366 -0.757436
H34   H     H_    0.402070 0.045477 0.467321 0.234095
H35   H     H_    0.334669 0.085390 0.391117 0.227797
H36   H     H_    0.207643 0.132506 0.467127 0.220070
H37   H     H_    0.014706 0.997054 0.389524 0.177778
H38   H     H_    0.068869 0.969671 0.468458 0.178593

loop_
_geom_bond_atom_site_label_1
_geom_bond_atom_site_label_2
_ccdc_geom_bond_type
C26   C47   S    
C50   H37   S    
C1    O6    A    
C30   H20   S    
C47   C48   S    
C45   C46   S    
C45   H25   S    
C24   H13   S    
C7    H5    S    
C6    C16   A    
C34   C35   A    
C24   C42   S    
C4    C6    S    
C13   C14   A    
O5    C3    A    
O19   V4    S    
C38   H17   S    
V2    O10   S    
C48   C49   S    
C5    H3    S    
C37   H21   S    
C51   H34   S    
C15   H8    S    
C32   C34   A    
C18   C43   S    
C50   H38   S    
O8    V2    S    
O14   V3    S    
C25   H14   S    
C8    C9    A    
O1    V2    S    
C29   H18   S    
O7    V1    S    
O17   V4    S    
C47   H32   S    
C31   C32   A    
O11   C42   A    
O9    C4    A    
C21   H10   S    
C2    C28   S    
C20   C45   S    
O13   V3    S    
C19   C21   S    
V3    O20   S    
C6    C17   A    
C23   H12   S    
C34   C38   A    
C1    C26   S    
C12   C16   A    
O18   C43   A    
C19   H9    S    
C46   H22   S    
O4    C2    A    
O19   C44   A    
H15   C39   S    
C30   C31   A    
C8    H7    S    
C32   C33   A    
C3    C20   S    
O2    C1    A    
C14   C15   A    
C46   H23   S    
C22   H11   S    
C27   C50   S    
C11   C18   A    
C49   H27   S    
C41   O16   A    
C50   C51   S    
H16   C36   S    
C25   C26   D    
C16   H4    S    
C9    H6    S    
C9    C10   A    
O12   C41   A    
O13   C44   A    
O3    C4    A    
C47   H33   S    
C49   H28   S    
C11   C15   A    
O6    V2    S    
O9    V2    S    
H1    C17   S    
C21   C22   D    
C29   C40   A    
H2    C14   S    
O15   C43   A    
C40   C41   S    
C7    C18   A    
C23   C24   D    
O1    C2    A    
C5    C13   A    
O18   V4    S    
O5    V1    S    
O8    C3    A    
C45   H26   S    
C10   C12   A    
C28   C39   A    
C23   C25   S    
C51   H36   S    
C22   C44   S    
C36   C37   A    
C10   C11   A    
O4    V1    S    
O3    V1    S    
V1    O10   S    
C46   H24   S    
O15   V3    S    
C27   C35   A    
C33   C40   A    
O12   V3    S    
C29   C30   A    
C28   C38   A    
C51   H35   S    
O14   C42   A    
O7    V2    S    
C27   C39   A    
O16   V4    S    
C35   C36   A    
C19   C20   D    
C33   C37   A    
C49   H29   S    
V4    O20   S    
O17   V3    S    
C12   C13   A    
C5    C17   A    
C7    C8    A    
O11   V4    S    
C48   H31   S    
C48   H30   S    
C31   H19   S    
O2    V1    S    
