data_mof_unit_63504.cif
_audit_creation_date              2012-12-10T16:55:29-0500
_audit_creation_method            fapswitch 2.2
_symmetry_space_group_name_H-M    P1
_symmetry_Int_Tables_number       1
_space_group_crystal_system       triclinic
_cell_length_a                    11.709528
_cell_length_b                    10.937945
_cell_length_c                    9.728736
_cell_angle_alpha                 89.721423
_cell_angle_beta                  89.927787
_cell_angle_gamma                 90.098208
_cell_volume                      1246.02117354

loop_
_atom_site_label
_atom_site_type_symbol
_atom_type_description
_atom_site_fract_x
_atom_site_fract_y
_atom_site_fract_z
_atom_type_partial_charge
C1    C     C_R   0.501341 0.265439 0.500265 0.836691
C2    C     C_2   0.493019 0.866464 0.501907 -0.305569
C3    C     C_2   0.498352 0.067452 0.387357 -0.153384
C4    C     C_2   0.506932 0.133390 0.502757 -0.308230
C5    C     C_2   0.424171 0.442174 0.922201 -0.022202
C6    C     C_2   0.435845 0.428653 0.076182 -0.107324
C7    C     C_R   0.284097 0.500002 0.500075 0.814762
C8    C     C_R   0.498716 0.734521 0.499856 0.850690
C9    C     C_R   0.715905 0.500092 0.499913 0.823242
C10   C     C_1   0.162379 0.500030 0.500179 -0.163626
C11   C     C_1   0.059905 0.500063 0.500067 0.010759
C12   C     C_1   0.940102 0.500098 0.499862 0.013042
C13   C     C_1   0.837627 0.500108 0.499776 -0.153944
C14   C     C_2   0.503417 0.933493 0.386987 -0.142048
Cu1   Cu    Cu3+1 0.500020 0.500020 0.638630 0.971772
Cu2   Cu    Cu3+1 0.499980 0.499980 0.361370 0.994988
H1    H     H_    0.514305 0.889360 0.288034 0.185002
H2    H     H_    0.477748 0.906961 0.601433 0.155375
H3    H     H_    0.488973 0.112586 0.288300 0.169949
H4    H     H_    0.520831 0.092040 0.602533 0.151202
H5    H     H_    0.351399 0.399556 0.872849 0.151803
H6    H     H_    0.576487 0.518118 0.890675 0.205043
H7    H     H_    0.388898 0.354677 0.124978 0.146138
N1    N     N_2   0.498780 0.498660 0.846910 -0.264907
N2    N     N_2   0.498750 0.498630 0.153040 -0.238138
O1    O     O_R   0.500020 0.321960 0.617040 -0.583166
O2    O     O_R   0.499980 0.321920 0.382900 -0.587941
O3    O     O_R   0.337220 0.500030 0.617070 -0.571359
O4    O     O_R   0.337180 0.499990 0.382930 -0.576565
O5    O     O_R   0.500020 0.678080 0.617100 -0.562143
O6    O     O_R   0.499980 0.678040 0.382960 -0.573902
O7    O     O_R   0.662820 0.500010 0.617070 -0.581210
O8    O     O_R   0.662780 0.499970 0.382930 -0.543542
C15   C     C_2   0.529007 0.617946 0.105010 1.029647
O9    O     O_2   0.457635 0.683911 0.050456 -0.618170
O10   O     O_R   0.639221 0.661976 0.128861 -0.761125
H8    H     H_    0.650372 0.748539 0.093542 0.308388

loop_
_geom_bond_atom_site_label_1
_geom_bond_atom_site_label_2
_ccdc_geom_bond_type
C7    C10   S    
C11   C12   S    
C3    H3    S    
C7    O4    A    
Cu2   O8    S    
C2    H2    S    
N2    C15   S    
C1    C4    S    
C8    O5    A    
Cu2   O2    S    
Cu1   O7    S    
Cu2   O6    S    
C9    O8    A    
C3    C14   S    
C14   H1    S    
Cu1   O3    S    
C5    C6    S    
C5    N1    D    
C6    H7    S    
Cu1   N1    S    
C15   O10   S    
C1    O1    A    
C2    C14   D    
H6    N1    S    
C6    N2    D    
C10   C11   T    
Cu1   Cu2   S    
C4    H4    S    
C5    H5    S    
C12   C13   T    
Cu1   O5    S    
C15   O9    D    
Cu2   N2    S    
C1    O2    A    
C9    C13   S    
O10   H8    S    
Cu1   O1    S    
C9    O7    A    
Cu2   O4    S    
C8    O6    A    
C2    C8    S    
C7    O3    A    
C3    C4    D    
