data_mof_unit_6165.cif
_audit_creation_date              2012-12-10T17:23:40-0500
_audit_creation_method            fapswitch 2.2
_symmetry_space_group_name_H-M    P1
_symmetry_Int_Tables_number       1
_space_group_crystal_system       triclinic
_cell_length_a                    9.605639
_cell_length_b                    10.8683
_cell_length_c                    17.255467
_cell_angle_alpha                 93.68491
_cell_angle_beta                  86.437505
_cell_angle_gamma                 91.827705
_cell_volume                      1793.51618481

loop_
_atom_site_label
_atom_site_type_symbol
_atom_type_description
_atom_site_fract_x
_atom_site_fract_y
_atom_site_fract_z
_atom_type_partial_charge
C1    C     C_R   0.502381 0.738232 0.504382 0.920775
C2    C     C_R   0.348803 0.463176 0.776114 -0.090565
C3    C     C_R   0.407708 0.474005 0.144597 -0.142516
C4    C     C_R   0.402620 0.476051 0.225173 -0.189754
C5    C     C_R   0.652373 0.518910 0.223068 -0.172180
C6    C     C_R   0.657090 0.518065 0.142179 -0.114726
C7    C     C_R   0.535246 0.493859 0.102655 0.155371
C8    C     C_2   0.463840 0.414909 0.974369 -0.132434
C9    C     C_2   0.542841 0.492474 0.017661 -0.133115
C10   C     C_R   0.524892 0.497916 0.265037 -0.027451
C11   C     C_R   0.285070 0.881310 0.601120 0.389011
C12   C     C_R   0.482376 0.492769 0.649479 0.939239
C13   C     C_R   0.149699 0.924966 0.604457 -0.156311
C14   C     C_R   0.121870 0.027975 0.564774 -0.102521
C15   C     C_R   0.230932 0.097365 0.530499 -0.167015
C16   C     C_R   0.368893 0.055551 0.528359 0.025517
C17   C     C_R   0.386454 0.933983 0.549317 -0.036820
C18   C     C_R   0.507673 0.873272 0.519105 -0.251687
C19   C     C_R   0.628440 0.947265 0.501896 0.364046
C20   C     C_R   0.621110 0.073185 0.521323 0.268852
C21   C     C_R   0.492720 0.128327 0.513024 -0.242651
C22   C     C_R   0.863259 0.340917 0.391643 -0.153372
C23   C     C_R   0.496979 0.262161 0.503316 0.816775
C24   C     C_R   0.939268 0.263769 0.338727 -0.143506
C25   C     C_R   0.082610 0.262408 0.339978 -0.214824
C26   C     C_R   0.150947 0.338984 0.393724 -0.196876
C27   C     C_R   0.078170 0.421623 0.447137 0.204453
C28   C     C_R   0.928745 0.422570 0.446440 0.221409
C29   C     C_R   0.923002 0.572870 0.551262 0.062364
C30   C     C_R   0.070786 0.574284 0.550287 -0.030779
C31   C     C_R   0.517620 0.499516 0.350013 0.772653
C32   C     C_R   0.476360 0.470067 0.732470 -0.083712
C33   C     C_R   0.600174 0.445094 0.766991 -0.172422
C34   C     C_R   0.598470 0.416445 0.844468 0.460672
C35   C     C_R   0.470757 0.420620 0.889755 0.023477
C36   C     C_R   0.346362 0.440006 0.854583 -0.189716
Cu1   Cu    Cu3+1 0.359340 0.500010 0.500010 0.978748
Cu2   Cu    Cu3+1 0.640660 0.499990 0.499990 1.048939
H1    H     H_    0.698882 0.444580 0.733031 0.217998
H2    H     H_    0.756008 0.534572 0.110318 0.163721
H3    H     H_    0.068033 0.884851 0.641791 0.177942
H4    H     H_    0.017468 0.060210 0.566552 0.241701
H5    H     H_    0.202952 0.181199 0.506692 0.185850
H6    H     H_    0.865366 0.632337 0.593603 0.162393
H7    H     H_    0.753546 0.329699 0.388400 0.190593
H8    H     H_    0.885975 0.202388 0.297615 0.179046
H9    H     H_    0.302714 0.460299 0.256101 0.165310
H10   H     H_    0.141397 0.200245 0.299745 0.163687
H11   H     H_    0.260600 0.328070 0.392010 0.198532
H12   H     H_    0.123157 0.636512 0.590551 0.178777
H13   H     H_    0.747866 0.536729 0.252636 0.175378
H14   H     H_    0.617638 0.555131 0.989782 0.192215
H15   H     H_    0.247547 0.440581 0.888518 0.177545
H16   H     H_    0.311521 0.458921 0.115397 0.138429
H17   H     H_    0.251311 0.476736 0.750028 0.204205
N1    N     N_R   0.852190 0.498790 0.499250 -0.189597
N2    N     N_R   0.148060 0.498710 0.499220 -0.210702
O1    O     O_R   0.381190 0.680360 0.500010 -0.590408
O2    O     O_R   0.618760 0.680340 0.500000 -0.500424
O3    O     O_R   0.367440 0.500030 0.613600 -0.557584
O4    O     O_R   0.605010 0.500010 0.613590 -0.578980
O5    O     O_R   0.381240 0.319660 0.500000 -0.630007
O6    O     O_R   0.618810 0.319640 0.499990 -0.564862
O7    O     O_R   0.394990 0.499990 0.386410 -0.607646
O8    O     O_R   0.632560 0.499970 0.386400 -0.597097
S1    S     S_3+6 0.785638 0.893195 0.454248 0.000798
O9    O     O_2   0.867053 0.830236 0.510935 -0.306400
O10   O     O_2   0.754534 0.804312 0.386719 -0.289681
O11   O     O_3   0.881872 0.012479 0.420694 -0.590378
H18   H     H_    0.973614 0.977790 0.403519 0.373962
S2    S     S_3+6 0.337517 0.814435 0.685223 0.017827
O12   O     O_2   0.481392 0.763968 0.672962 -0.283751
O13   O     O_2   0.340038 0.914004 0.749801 -0.231464
O14   O     O_3   0.223920 0.702580 0.712807 -0.578292
H19   H     H_    0.145864 0.745803 0.741925 0.358288
S3    S     S_3+6 0.720762 0.131730 0.599839 0.084771
O15   O     O_2   0.625340 0.197112 0.660211 -0.240220
O16   O     O_2   0.785939 0.027789 0.636681 -0.234835
O17   O     O_3   0.845859 0.232805 0.570475 -0.511383
H20   H     H_    0.878609 0.200383 0.517943 0.344869
H21   H     H_    0.386459 0.353295 0.001104 0.157657
S4    S     S_3+6 0.756533 0.369156 0.879781 0.014600
O18   O     O_2   0.838269 0.480886 0.909240 -0.329715
O19   O     O_2   0.727913 0.283572 0.944319 -0.261160
O20   O     O_3   0.851451 0.295773 0.806720 -0.468172
H22   H     H_    0.941988 0.281010 0.828545 0.379318

loop_
_geom_bond_atom_site_label_1
_geom_bond_atom_site_label_2
_ccdc_geom_bond_type
S1    O10   D    
C16   C21   A    
C19   C20   A    
S3    O17   S    
C13   H3    S    
Cu1   O5    S    
C28   N1    A    
O20   H22   S    
C26   C27   A    
C33   H1    S    
Cu1   Cu2   S    
S3    O16   D    
C18   C19   A    
C3    C7    A    
C2    H17   S    
C1    O2    A    
C5    C6    A    
C3    H16   S    
C11   S2    S    
S1    O11   S    
C15   C16   A    
C30   N2    A    
C20   S3    S    
C19   S1    S    
C2    C32   A    
C34   C35   A    
C36   H15   S    
C10   C31   S    
C23   O5    A    
C35   C36   A    
C8    C9    D    
Cu1   O1    S    
C14   H4    S    
Cu2   O4    S    
C23   O6    A    
S1    O9    D    
C30   H12   S    
C22   C28   A    
C13   C14   A    
C12   C32   S    
C9    H14   S    
C33   C34   A    
O14   H19   S    
C8    H21   S    
S3    O15   D    
C27   N2    A    
C26   H11   S    
S2    O13   D    
C16   C17   A    
C25   C26   A    
Cu2   O2    S    
C8    C35   S    
C29   C30   A    
Cu2   O8    S    
C17   C18   A    
C1    C18   S    
C24   C25   A    
C25   H10   S    
S4    O19   D    
C21   C23   S    
C29   H6    S    
C22   C24   A    
C4    C10   A    
C3    C4    A    
Cu1   O7    S    
Cu2   O6    S    
C2    C36   A    
C31   O8    A    
C11   C17   A    
C31   O7    A    
S2    O14   S    
C6    C7    A    
C29   N1    A    
S4    O20   S    
C24   H8    S    
C32   C33   A    
C15   H5    S    
S2    O12   D    
C1    O1    A    
C12   O4    A    
C11   C13   A    
C6    H2    S    
O11   H18   S    
Cu1   O3    S    
O17   H20   S    
C12   O3    A    
C7    C9    S    
C5    C10   A    
C22   H7    S    
Cu2   N1    S    
C20   C21   A    
S4    O18   D    
C27   C28   A    
C14   C15   A    
C5    H13   S    
C34   S4    S    
Cu1   N2    S    
C4    H9    S    
