data_mof_unit_47700.cif
_audit_creation_date              2012-12-10T20:51:41-0500
_audit_creation_method            fapswitch 2.2
_symmetry_space_group_name_H-M    P1
_symmetry_Int_Tables_number       1
_space_group_crystal_system       triclinic
_cell_length_a                    8.098193
_cell_length_b                    8.923057
_cell_length_c                    16.748776
_cell_angle_alpha                 89.706965
_cell_angle_beta                  95.991507
_cell_angle_gamma                 89.965515
_cell_volume                      1203.64942179

loop_
_atom_site_label
_atom_site_type_symbol
_atom_type_description
_atom_site_fract_x
_atom_site_fract_y
_atom_site_fract_z
_atom_type_partial_charge
C1    C     C_R   0.499979 0.217966 0.499825 0.948576
C2    C     C_R   0.499939 0.782019 0.499750 0.926094
C3    C     C_R   0.523736 0.498222 0.653816 1.023479
C4    C     C_R   0.476054 0.504458 0.345860 0.993858
C5    C     C_R   0.544164 0.514987 0.739934 -0.341505
C6    C     C_R   0.454465 0.531073 0.259630 -0.358139
C7    C     C_R   0.476278 0.641667 0.773744 0.382350
C8    C     C_R   0.561975 0.631445 0.225668 0.374658
C9    C     C_R   0.486011 0.654404 0.857056 -0.170596
C10   C     C_R   0.547896 0.651223 0.142649 -0.167329
C11   C     C_R   0.564466 0.539780 0.905890 0.029562
C12   C     C_R   0.423754 0.572879 0.094198 0.026387
C13   C     C_R   0.641790 0.419016 0.871571 0.397729
C14   C     C_R   0.301551 0.490803 0.129057 0.424392
C15   C     C_R   0.637544 0.409494 0.787941 0.309304
C16   C     C_R   0.318401 0.467552 0.212228 0.332423
C17   C     C_1   0.499975 0.065200 0.499491 -0.191034
C18   C     C_1   0.499889 0.934800 0.499429 -0.216181
N1    N     N_1   0.073640 0.500030 0.499990 -0.033506
N2    N     N_1   0.926360 0.499970 0.500010 -0.033027
N3    N     N_2   0.564036 0.540642 0.989784 -0.121336
N4    N     N_2   0.423892 0.567846 0.010375 -0.129556
O1    O     O_R   0.636850 0.285340 0.500000 -0.620987
O2    O     O_R   0.363150 0.714660 0.500000 -0.603751
O3    O     O_R   0.363100 0.285350 0.500000 -0.617400
O4    O     O_R   0.636900 0.714650 0.500000 -0.618114
O5    O     O_R   0.652140 0.498630 0.616140 -0.625421
O6    O     O_R   0.347860 0.501370 0.383860 -0.611778
O7    O     O_R   0.378390 0.498650 0.616130 -0.596016
O8    O     O_R   0.621610 0.501350 0.383870 -0.586689
Zn1   Zn    Zn3+2 0.682780 0.499990 0.500010 0.999906
Zn2   Zn    Zn3+2 0.317220 0.500010 0.499990 1.010213
O9    O     O_3   0.685893 0.705149 0.273487 -0.590018
C19   C     C_3   0.622539 0.843882 0.296602 -0.234048
H1    H     H_    0.507506 0.829701 0.326883 0.131367
H2    H     H_    0.598176 0.920644 0.244173 0.163351
H3    H     H_    0.716770 0.897725 0.340038 0.193938
O10   O     O_3   0.394271 0.750070 0.725074 -0.585705
C20   C     C_3   0.509598 0.862049 0.709207 -0.249540
H4    H     H_    0.609422 0.816088 0.675486 0.148889
H5    H     H_    0.565180 0.916538 0.765288 0.163642
H6    H     H_    0.443480 0.950334 0.671521 0.195479
C21   C     C_1   0.660910 0.752302 0.107837 0.281838
N5    N     N_1   0.751138 0.833161 0.080039 -0.225749
C22   C     C_1   0.415171 0.785185 0.891462 0.285339
N6    N     N_1   0.358147 0.889449 0.918968 -0.227120
O11   O     O_3   0.722219 0.310228 0.920287 -0.605979
C23   C     C_3   0.610247 0.191944 0.929374 -0.188025
H7    H     H_    0.569729 0.138142 0.870810 0.173845
H8    H     H_    0.500414 0.230790 0.958423 0.177025
H9    H     H_    0.674319 0.105210 0.968959 0.197294
O12   O     O_3   0.177809 0.415475 0.081953 -0.566996
C24   C     C_3   0.062163 0.520088 0.045294 -0.252207
H10   H     H_    0.106467 0.568523 0.990217 0.183566
H11   H     H_    0.032635 0.611440 0.086732 0.135862
H12   H     H_    0.944367 0.460483 0.026872 0.232225
O13   O     O_3   0.708184 0.288343 0.752912 -0.609186
C25   C     C_3   0.880865 0.312168 0.755527 -0.201824
H13   H     H_    0.941675 0.307980 0.818152 0.195610
H14   H     H_    0.909773 0.420259 0.726507 0.159697
H15   H     H_    0.935149 0.221093 0.721723 0.180723
O14   O     O_3   0.212741 0.369846 0.246512 -0.577180
C26   C     C_3   0.060237 0.442645 0.254174 -0.124875
H16   H     H_    0.977538 0.436684 0.197182 0.178776
H17   H     H_    0.075864 0.561408 0.273994 0.145496
H18   H     H_    0.996888 0.382735 0.300523 0.177927

loop_
_geom_bond_atom_site_label_1
_geom_bond_atom_site_label_2
_ccdc_geom_bond_type
C15   O13   S    
C21   N5    T    
O2    Zn2   S    
C14   O12   S    
C9    C22   S    
O14   C26   S    
C2    C18   S    
C19   H3    S    
C9    C11   A    
C11   N3    S    
C24   H11   S    
C1    C17   S    
N1    N2    T    
C26   H17   S    
O3    Zn2   S    
C3    O5    A    
O9    C19   S    
C25   H13   S    
C26   H18   S    
O4    Zn1   S    
C2    O4    A    
N3    N4    D    
C1    O3    A    
C11   C13   A    
C3    O7    A    
O13   C25   S    
O10   C20   S    
C16   O14   S    
C25   H15   S    
N1    Zn2   S    
C10   C12   A    
C23   H8    S    
C23   H7    S    
C4    O6    A    
C7    O10   S    
C12   C14   A    
C17   C18   T    
O7    Zn2   S    
C19   H2    S    
C8    O9    S    
C13   C15   A    
C2    O2    A    
O8    Zn1   S    
C8    C10   A    
C14   C16   A    
C5    C15   A    
C4    C6    S    
O5    Zn1   S    
C26   H16   S    
C12   N4    S    
O6    Zn2   S    
O12   C24   S    
C20   H5    S    
C13   O11   S    
C19   H1    S    
C24   H12   S    
C20   H4    S    
C5    C7    A    
C7    C9    A    
C20   H6    S    
C6    C8    A    
C1    O1    A    
C10   C21   S    
C22   N6    T    
C25   H14   S    
C6    C16   A    
C23   H9    S    
C4    O8    A    
O11   C23   S    
C24   H10   S    
C3    C5    S    
N2    Zn1   S    
O1    Zn1   S    
