data_mof_unit_25309.cif
_audit_creation_date              2012-12-11T14:31:12-0500
_audit_creation_method            fapswitch 2.2
_symmetry_space_group_name_H-M    P1
_symmetry_Int_Tables_number       1
_space_group_crystal_system       triclinic
_cell_length_a                    6.899829
_cell_length_b                    14.32217
_cell_length_c                    16.374875
_cell_angle_alpha                 89.756342
_cell_angle_beta                  90.18722
_cell_angle_gamma                 90.163321
_cell_volume                      1618.14394526

loop_
_atom_site_label
_atom_site_type_symbol
_atom_type_description
_atom_site_fract_x
_atom_site_fract_y
_atom_site_fract_z
_atom_type_partial_charge
O1    O     O_R   0.469910 0.836130 0.163900 -0.522965
O2    O     O_R   0.530090 0.163870 0.836100 -0.522814
O3    O     O_R   0.530090 0.163870 0.663900 -0.527454
O4    O     O_R   0.469910 0.836130 0.336100 -0.533299
O5    O     O_R   0.969910 0.663870 0.336100 -0.525693
O6    O     O_R   0.030090 0.336130 0.663900 -0.528291
O7    O     O_R   0.030090 0.336130 0.836100 -0.535159
O8    O     O_R   0.969910 0.663870 0.163900 -0.534815
O9    O     O_R   0.140100 0.847470 0.335520 -0.552632
O10   O     O_R   0.859900 0.152530 0.664480 -0.552145
O11   O     O_R   0.859900 0.152530 0.835520 -0.552945
O12   O     O_R   0.140100 0.847470 0.164480 -0.552840
O13   O     O_R   0.640100 0.652530 0.164480 -0.548274
O14   O     O_R   0.359900 0.347470 0.835520 -0.548591
O15   O     O_R   0.359900 0.347470 0.664480 -0.554351
O16   O     O_R   0.640100 0.652530 0.335520 -0.553425
C1    C     C_R   0.310975 0.869059 0.364408 0.732004
C2    C     C_R   0.688994 0.130625 0.636211 0.739522
C3    C     C_R   0.689770 0.131144 0.864622 0.750380
C4    C     C_R   0.310232 0.868864 0.135385 0.751897
C5    C     C_R   0.811013 0.629683 0.136739 0.738683
C6    C     C_R   0.188987 0.370314 0.863263 0.738055
C7    C     C_R   0.189667 0.369000 0.635518 0.732939
C8    C     C_R   0.810350 0.631140 0.364621 0.749899
O17   O     O_3   0.303300 0.689750 0.250000 -0.375690
O18   O     O_3   0.696700 0.310250 0.750000 -0.376569
O19   O     O_3   0.803300 0.810250 0.250000 -0.382383
O20   O     O_3   0.196700 0.189750 0.750000 -0.377298
V1    V     V_3+5 0.028490 0.761170 0.250000 1.353794
V2    V     V_3+5 0.971510 0.238830 0.750000 1.357493
V3    V     V_3+5 0.528490 0.738830 0.250000 1.362423
V4    V     V_3+5 0.471510 0.261170 0.750000 1.366819
C9    C     C_2   0.828680 0.554224 0.424953 -0.394918
C10   C     C_2   0.171574 0.445510 0.574897 -0.386033
C11   C     C_2   0.172197 0.436538 0.932269 -0.378965
C12   C     C_2   0.827803 0.563453 0.067739 -0.379209
C13   C     C_2   0.328699 0.945759 0.075009 -0.391541
C14   C     C_2   0.671305 0.054255 0.925003 -0.390641
C15   C     C_2   0.668445 0.052887 0.577820 -0.382723
C16   C     C_2   0.330693 0.944927 0.425530 -0.382802
C17   C     C_2   0.983551 0.544525 0.476550 0.294654
C18   C     C_2   0.017147 0.454763 0.523031 0.295558
C19   C     C_2   0.000488 0.469514 0.963050 0.274053
C20   C     C_2   0.999511 0.530467 0.036965 0.274068
C21   C     C_2   0.482538 0.955044 0.023149 0.294201
C22   C     C_2   0.517473 0.044975 0.976868 0.294266
C23   C     C_2   0.518732 0.045041 0.523293 0.299329
C24   C     C_2   0.488813 0.956298 0.475410 0.290158
H1    H     H_    0.279462 0.500202 0.579796 0.140072
H2    H     H_    0.720528 0.499655 0.420068 0.140218
H3    H     H_    0.691577 0.542846 0.039697 0.151465
H4    H     H_    0.308425 0.457149 0.960308 0.151415
H5    H     H_    0.777945 0.999359 0.919846 0.140503
H6    H     H_    0.222053 0.000651 0.080166 0.140401
H7    H     H_    0.218443 0.997406 0.423389 0.139120
H8    H     H_    0.768859 0.995881 0.587339 0.140110
N1    N     N_2   0.892622 0.376697 0.507676 -0.539860
H9    H     H_    0.956556 0.311667 0.508865 0.245933
C25   C     C_3   0.700700 0.379797 0.543062 -0.495735
H10   H     H_    0.686568 0.324291 0.589854 0.220444
H11   H     H_    0.590928 0.366652 0.494762 0.169476
H12   H     H_    0.670150 0.448383 0.571875 0.185742
N2    N     N_2   0.108619 0.622334 0.491964 -0.539916
H13   H     H_    0.044986 0.687366 0.491605 0.244429
C26   C     C_3   0.300082 0.619375 0.456167 -0.493700
H14   H     H_    0.313506 0.675016 0.409473 0.221228
H15   H     H_    0.330350 0.550849 0.427195 0.184925
H16   H     H_    0.410420 0.632500 0.504247 0.169625
N3    N     N_2   0.182317 0.550574 0.074243 -0.533806
H17   H     H_    0.222485 0.619717 0.078506 0.272361
C27   C     C_3   0.234612 0.490955 0.142312 -0.484594
H18   H     H_    0.135995 0.502656 0.194710 0.198545
H19   H     H_    0.385421 0.506487 0.161762 0.195654
H20   H     H_    0.226990 0.416432 0.123940 0.177305
N4    N     N_2   0.817679 0.449399 0.925779 -0.533892
H21   H     H_    0.777530 0.380254 0.921512 0.272166
C28   C     C_3   0.765348 0.509024 0.857719 -0.484457
H22   H     H_    0.863949 0.497333 0.805313 0.198684
H23   H     H_    0.772964 0.583544 0.876097 0.177334
H24   H     H_    0.614536 0.493488 0.838278 0.195636
N5    N     N_2   0.395008 0.123299 0.992550 -0.541554
H25   H     H_    0.460323 0.188200 0.991455 0.245088
C29   C     C_3   0.202168 0.120792 0.957445 -0.482681
H26   H     H_    0.188580 0.176045 0.910381 0.222847
H27   H     H_    0.093957 0.134752 0.005832 0.169462
H28   H     H_    0.168864 0.052140 0.929052 0.184083
N6    N     N_2   0.605020 0.876726 0.007471 -0.541310
H29   H     H_    0.539714 0.811822 0.008558 0.245287
C30   C     C_3   0.797844 0.879238 0.042592 -0.483617
H30   H     H_    0.811420 0.823980 0.089652 0.223222
H31   H     H_    0.831122 0.947889 0.070994 0.183596
H32   H     H_    0.906080 0.865288 0.994213 0.169898
N7    N     N_2   0.625591 0.882342 0.485872 -0.544049
H33   H     H_    0.570574 0.815593 0.480562 0.251125
C31   C     C_3   0.809006 0.895932 0.444885 -0.473188
H34   H     H_    0.786860 0.903064 0.378284 0.232378
H35   H     H_    0.904414 0.835507 0.457814 0.175802
H36   H     H_    0.883676 0.959963 0.465976 0.164753
N8    N     N_2   0.397521 0.123651 0.506137 -0.537757
H37   H     H_    0.464031 0.188245 0.507200 0.245469
C32   C     C_3   0.204805 0.122011 0.540994 -0.496598
H38   H     H_    0.192042 0.177411 0.587551 0.218623
H39   H     H_    0.170554 0.053581 0.570018 0.187860
H40   H     H_    0.096529 0.136114 0.492267 0.168700

loop_
_geom_bond_atom_site_label_1
_geom_bond_atom_site_label_2
_ccdc_geom_bond_type
O17   V3    S    
N6    H29   S    
N2    C26   S    
O18   V4    S    
C32   H38   S    
O12   V1    S    
O19   V1    S    
C17   C18   S    
O16   C8    A    
C31   H34   S    
C10   C18   D    
C19   C20   S    
N5    H25   S    
C31   H36   S    
O15   V4    S    
C5    C12   S    
C21   C22   S    
O16   V3    S    
C6    C11   S    
C14   H5    S    
O11   C3    A    
N7    H33   S    
C29   H26   S    
O8    V1    S    
C21   N6    S    
N1    C25   S    
O1    V3    S    
C23   N8    S    
O3    C2    A    
O2    V4    S    
N3    C27   S    
C2    C15   S    
C15   H8    S    
O11   V2    S    
C10   H1    S    
C30   H31   S    
C11   C19   D    
O9    V1    S    
C26   H16   S    
O15   C7    A    
C25   H10   S    
N7    C31   S    
O7    V2    S    
O17   V1    S    
O3    V4    S    
C18   N1    S    
N5    C29   S    
O5    V1    S    
C28   H23   S    
C19   N4    S    
C25   H11   S    
C24   N7    S    
O19   V3    S    
C23   C24   S    
O20   V4    S    
C27   H19   S    
C25   H12   S    
C26   H15   S    
C9    H2    S    
C28   H22   S    
C1    C16   S    
O4    C1    A    
N4    H21   S    
C3    C14   S    
C22   N5    S    
O10   V2    S    
N8    H37   S    
C16   H7    S    
O12   C4    A    
O8    C5    A    
O13   C5    A    
C20   N3    S    
C30   H32   S    
N4    C28   S    
C12   H3    S    
C13   H6    S    
O9    C1    A    
C29   H27   S    
O18   V2    S    
C32   H40   S    
N6    C30   S    
C12   C20   D    
C17   N2    S    
C13   C21   D    
C15   C23   D    
C28   H24   S    
C16   C24   D    
C7    C10   S    
O6    V2    S    
O2    C3    A    
O13   V3    S    
O14   V4    S    
O1    C4    A    
C27   H20   S    
C31   H35   S    
O7    C6    A    
C8    C9    S    
C9    C17   D    
O14   C6    A    
O20   V2    S    
C27   H18   S    
C4    C13   S    
N1    H9    S    
O5    C8    A    
O10   C2    A    
O6    C7    A    
N3    H17   S    
C14   C22   D    
O4    V3    S    
N2    H13   S    
C29   H28   S    
C32   H39   S    
C26   H14   S    
C11   H4    S    
C30   H30   S    
N8    C32   S    
