data_mof_unit_34504.cif
_audit_creation_date              2012-12-10T17:57:26-0500
_audit_creation_method            fapswitch 2.2
_symmetry_space_group_name_H-M    P1
_symmetry_Int_Tables_number       1
_space_group_crystal_system       triclinic
_cell_length_a                    9.513701
_cell_length_b                    10.809257
_cell_length_c                    13.429062
_cell_angle_alpha                 90.470087
_cell_angle_beta                  71.92903
_cell_angle_gamma                 90.54905
_cell_volume                      1312.7912401

loop_
_atom_site_label
_atom_site_type_symbol
_atom_type_description
_atom_site_fract_x
_atom_site_fract_y
_atom_site_fract_z
_atom_type_partial_charge
C1    C     C_R   0.502276 0.737589 0.496345 0.809843
C2    C     C_R   0.431967 0.482019 0.980738 0.093685
C3    C     C_R   0.465506 0.452705 0.872965 -0.030836
C4    C     C_R   0.542070 0.464290 0.030736 0.027005
C5    C     C_R   0.677465 0.406286 0.975559 0.027390
C6    C     C_R   0.700549 0.361825 0.873422 0.405091
C7    C     C_R   0.593294 0.382983 0.824197 -0.248338
C8    C     C_R   0.522160 0.504427 0.133867 -0.264147
C9    C     C_R   0.766042 0.432283 0.126450 0.357894
C10   C     C_R   0.369085 0.491918 0.816980 -0.126536
C11   C     C_R   0.584817 0.936847 0.545666 -0.194136
C12   C     C_R   0.420031 0.495333 0.700803 0.832841
C13   C     C_R   0.582264 0.064688 0.547637 -0.241398
C14   C     C_R   0.499022 0.128037 0.495301 -0.180871
C15   C     C_R   0.420905 0.062566 0.437581 0.395730
C16   C     C_R   0.429903 0.934314 0.430669 0.391886
C17   C     C_R   0.506832 0.871129 0.489384 -0.213555
C18   C     C_R   0.896698 0.575867 0.567124 0.537297
C19   C     C_R   0.046594 0.574828 0.566970 -0.068648
C20   C     C_R   0.102847 0.425486 0.432789 -0.043627
C21   C     C_R   0.954022 0.425254 0.433002 -0.117457
C22   C     C_R   0.499783 0.262072 0.498340 0.839948
C23   C     C_R   0.580126 0.498253 0.299201 0.810330
C24   C     C_R   0.787945 0.392456 0.023849 -0.135892
C25   C     C_R   0.627926 0.483037 0.184246 -0.147705
C26   C     C_R   0.227697 0.538376 0.872842 0.418462
C27   C     C_R   0.188346 0.551690 0.981697 -0.215945
C28   C     C_R   0.289096 0.526773 0.034502 -0.184229
Cu1   Cu    Cu3+1 0.359340 0.499980 0.500000 0.991131
Cu2   Cu    Cu3+1 0.640660 0.500020 0.500000 0.994392
H1    H     H_    0.642704 0.114181 0.592084 0.170128
H2    H     H_    0.181807 0.365983 0.378664 0.164136
H3    H     H_    0.920685 0.365286 0.379353 0.182487
H4    H     H_    0.893059 0.350815 0.981954 0.216648
H5    H     H_    0.249543 0.540563 0.118080 0.153027
H6    H     H_    0.080044 0.585670 0.025907 0.147545
H7    H     H_    0.609768 0.341209 0.748124 0.148524
H8    H     H_    0.645249 0.889118 0.590019 0.200122
N1    N     N_R   0.147940 0.499970 0.499970 -0.177953
N2    N     N_R   0.852060 0.500060 0.499990 -0.179109
O1    O     O_R   0.381250 0.680340 0.500010 -0.573705
O2    O     O_R   0.618820 0.680370 0.500010 -0.533708
O3    O     O_R   0.323240 0.499950 0.650980 -0.520940
O4    O     O_R   0.560810 0.499980 0.650980 -0.548936
O5    O     O_R   0.381180 0.319630 0.499990 -0.584532
O6    O     O_R   0.618750 0.319660 0.499990 -0.592549
O7    O     O_R   0.439190 0.500020 0.349020 -0.584712
O8    O     O_R   0.676760 0.500050 0.349020 -0.582967
O9    O     O_3   0.879735 0.415550 0.167983 -0.730084
H9    H     H_    0.890397 0.493232 0.204620 0.327543
O10   O     O_3   0.344532 0.122475 0.380805 -0.681301
H10   H     H_    0.257088 0.159207 0.433032 0.324843
O11   O     O_3   0.362964 0.874777 0.365690 -0.677803
H11   H     H_    0.415795 0.796606 0.340251 0.315120
O12   O     O_3   0.794704 0.652881 0.633749 -0.705208
H12   H     H_    0.843824 0.700753 0.677047 0.293188
H13   H     H_    0.081964 0.634353 0.619966 0.157217
O13   O     O_3   0.828816 0.298450 0.822802 -0.731197
H14   H     H_    0.829226 0.276097 0.750936 0.323624
H15   H     H_    0.423746 0.552519 0.177956 0.166722
O14   O     O_3   0.130443 0.572178 0.819969 -0.723097
H16   H     H_    0.036807 0.601236 0.870917 0.317324

loop_
_geom_bond_atom_site_label_1
_geom_bond_atom_site_label_2
_ccdc_geom_bond_type
C11   H8    S    
C2    C4    A    
O12   H12   S    
C9    C24   A    
Cu1   Cu2   S    
C15   O10   S    
C27   H6    S    
C6    O13   S    
C1    C17   S    
C14   C15   A    
C4    C8    A    
Cu1   N1    S    
C2    C3    A    
C7    H7    S    
Cu2   N2    S    
C12   O4    A    
C3    C10   A    
O11   H11   S    
Cu1   O3    S    
C8    C25   A    
C11   C13   A    
Cu2   O4    S    
C26   C27   A    
C6    C7    A    
C5    C24   A    
C19   N1    A    
C18   O12   S    
Cu1   O7    S    
C19   H13   S    
C5    C6    A    
C10   C12   S    
C1    O1    A    
C22   O6    A    
C26   O14   S    
Cu2   O6    S    
C18   C19   A    
C12   O3    A    
C3    C7    A    
C23   C25   S    
O14   H16   S    
C24   H4    S    
C9    O9    S    
C23   O7    A    
C9    C25   A    
O10   H10   S    
C1    O2    A    
C4    C5    A    
C22   O5    A    
C21   H3    S    
C20   C21   A    
C14   C22   S    
O9    H9    S    
C20   H2    S    
Cu2   O8    S    
C27   C28   A    
C20   N1    A    
C18   N2    A    
C16   O11   S    
C11   C17   A    
C2    C28   A    
C23   O8    A    
Cu1   O1    S    
O13   H14   S    
C13   C14   A    
Cu2   O2    S    
C13   H1    S    
C10   C26   A    
C8    H15   S    
C15   C16   A    
C28   H5    S    
Cu1   O5    S    
C16   C17   A    
C21   N2    A    
