data_mof_unit_60179.cif
_audit_creation_date              2012-12-10T20:23:10-0500
_audit_creation_method            fapswitch 2.2
_symmetry_space_group_name_H-M    P1
_symmetry_Int_Tables_number       1
_space_group_crystal_system       triclinic
_cell_length_a                    19.404837
_cell_length_b                    18.480777
_cell_length_c                    17.680243
_cell_angle_alpha                 90.011277
_cell_angle_beta                  92.204616
_cell_angle_gamma                 90.004137
_cell_volume                      6335.73305404

loop_
_atom_site_label
_atom_site_type_symbol
_atom_type_description
_atom_site_fract_x
_atom_site_fract_y
_atom_site_fract_z
_atom_type_partial_charge
C1    C     C_R   0.365572 0.499911 0.502314 0.928688
C2    C     C_R   0.961895 0.486848 0.567012 0.037171
C3    C     C_R   0.071387 0.488317 0.506476 0.075765
C4    C     C_R   0.928717 0.488262 0.495020 0.075727
C5    C     C_R   0.538937 0.726414 0.553523 0.045486
C6    C     C_R   0.449973 0.273364 0.459111 0.046999
C7    C     C_R   0.461022 0.726360 0.446489 0.046254
C8    C     C_R   0.549995 0.273367 0.540912 0.045632
C9    C     C_R   0.539720 0.802981 0.554481 -0.115988
C10   C     C_R   0.449083 0.196766 0.458309 -0.116364
C11   C     C_R   0.460283 0.802926 0.445446 -0.116157
C12   C     C_R   0.634438 0.499910 0.497775 0.928368
C13   C     C_R   0.550912 0.196767 0.541625 -0.116084
C14   C     C_R   0.500017 0.841831 0.499938 0.086232
C15   C     C_R   0.500009 0.157897 0.499938 0.087006
C16   C     C_R   0.457357 0.961473 0.548680 0.032359
C17   C     C_R   0.542629 0.038245 0.451140 0.032368
C18   C     C_R   0.542652 0.961463 0.451162 0.032381
C19   C     C_R   0.457377 0.038254 0.548703 0.032329
C20   C     C_R   0.500003 0.076597 0.499923 0.091747
C21   C     C_R   0.500008 0.923120 0.499924 0.091634
C22   C     C_R   0.501212 0.500152 0.353398 0.928326
C23   C     C_R   0.853631 0.492877 0.489467 0.051598
C24   C     C_R   0.498519 0.500168 0.646467 0.931473
C25   C     C_R   0.459522 0.564630 0.842252 -0.024174
C26   C     C_R   0.474003 0.448302 0.148073 -0.025475
C27   C     C_R   0.528763 0.567315 0.155586 -0.024781
C28   C     C_R   0.521694 0.449750 0.852275 -0.024515
C29   C     C_R   0.459969 0.560256 0.763255 0.009600
C30   C     C_R   0.476075 0.443686 0.227069 0.004160
C31   C     C_R   0.532078 0.562593 0.234639 0.012848
C32   C     C_R   0.523293 0.445624 0.773407 0.001935
C33   C     C_R   0.493661 0.501615 0.728820 -0.065453
C34   C     C_R   0.146471 0.492994 0.511972 0.051616
C35   C     C_R   0.503633 0.501631 0.270631 -0.068346
C36   C     C_R   0.491140 0.509868 0.885956 0.001363
C37   C     C_R   0.498911 0.510648 0.113162 0.001504
C38   C     C_1   0.492686 0.514671 0.965995 0.004394
C39   C     C_1   0.495304 0.514935 0.033078 0.004571
C40   C     C_R   0.742832 0.435012 0.467240 0.012350
C41   C     C_R   0.250591 0.561424 0.491263 0.005794
C42   C     C_R   0.257319 0.435083 0.533532 0.012211
C43   C     C_R   0.749423 0.561374 0.509521 0.005898
C44   C     C_R   0.814854 0.431620 0.468339 -0.017744
C45   C     C_R   0.709841 0.498943 0.491570 -0.074399
C46   C     C_R   0.178696 0.558428 0.493916 -0.020433
C47   C     C_R   0.185305 0.431739 0.532913 -0.017882
C48   C     C_R   0.821347 0.558332 0.507340 -0.020333
C49   C     C_1   0.426629 0.625445 0.878117 0.166049
C50   C     C_1   0.445525 0.388954 0.103037 0.166657
C51   C     C_1   0.556245 0.630379 0.118316 0.165875
C52   C     C_1   0.552429 0.392425 0.898456 0.166513
C53   C     C_1   0.848822 0.364635 0.448775 0.165289
C54   C     C_1   0.137898 0.622608 0.476948 0.157808
C55   C     C_1   0.151402 0.364791 0.552722 0.165394
C56   C     C_R   0.290213 0.498966 0.508932 -0.074223
C57   C     C_1   0.862102 0.622504 0.524532 0.157872
C58   C     C_1   0.579156 0.686998 0.610106 0.266837
C59   C     C_1   0.396638 0.312224 0.417150 0.266078
C60   C     C_1   0.420610 0.686888 0.390091 0.265709
C61   C     C_1   0.603210 0.312226 0.583084 0.265953
C62   C     C_1   0.581362 0.841669 0.611059 0.172197
C63   C     C_1   0.396119 0.158004 0.414668 0.170838
C64   C     C_1   0.418634 0.841555 0.388850 0.171697
C65   C     C_1   0.603867 0.158005 0.585254 0.170783
C66   C     C_R   0.966075 0.487958 0.428690 0.036271
C67   C     C_R   0.034033 0.488054 0.572808 0.036278
C68   C     C_R   0.038207 0.486800 0.434488 0.037105
H1    H     H_    0.373182 0.615368 0.731066 0.188867
H2    H     H_    0.715933 0.328902 0.472847 0.200914
H3    H     H_    0.271225 0.667919 0.508323 0.195326
H4    H     H_    0.263570 0.642687 0.416061 0.202860
H5    H     H_    0.284688 0.363757 0.616654 0.190064
H6    H     H_    0.284106 0.328951 0.527793 0.200995
H7    H     H_    0.728948 0.667876 0.492340 0.195405
H8    H     H_    0.736098 0.642671 0.584624 0.202746
H9    H     H_    0.945304 0.536492 0.327441 0.192293
H10   H     H_    0.943634 0.444579 0.325204 0.193787
H11   H     H_    0.054788 0.536689 0.674026 0.192332
H12   H     H_    0.446979 0.664804 0.730393 0.201770
H13   H     H_    0.056503 0.444781 0.676314 0.193835
H14   H     H_    0.065420 0.438832 0.336821 0.194250
H15   H     H_    0.066775 0.530768 0.335249 0.192415
H16   H     H_    0.934702 0.438976 0.664716 0.194184
H17   H     H_    0.933306 0.530911 0.666208 0.192419
H18   H     H_    0.362751 0.936076 0.585694 0.192740
H19   H     H_    0.426985 0.935805 0.653794 0.193759
H20   H     H_    0.572529 0.063628 0.345766 0.193006
H21   H     H_    0.636977 0.063931 0.413621 0.193540
H22   H     H_    0.637258 0.936069 0.414144 0.192685
H23   H     H_    0.476588 0.335610 0.246431 0.197254
H24   H     H_    0.573021 0.935761 0.346047 0.193698
H25   H     H_    0.427475 0.063668 0.654079 0.193087
H26   H     H_    0.363027 0.063937 0.586223 0.193587
H27   H     H_    0.397363 0.374545 0.244690 0.203806
H28   H     H_    0.616608 0.623215 0.262417 0.189006
H29   H     H_    0.540310 0.667744 0.267167 0.201456
H30   H     H_    0.531808 0.338003 0.753821 0.198416
H31   H     H_    0.607804 0.383584 0.758952 0.203429
H32   H     H_    0.715865 0.363634 0.383991 0.190028
N1    N     N_R   0.500000 0.689440 0.500000 -0.136313
N2    N     N_3   0.556588 0.385722 0.738403 -0.425323
N3    N     N_3   0.702997 0.374175 0.439815 -0.422248
N4    N     N_3   0.283319 0.627530 0.469592 -0.420984
N5    N     N_3   0.297252 0.374242 0.560727 -0.422193
N6    N     N_3   0.716616 0.627508 0.530981 -0.421164
N7    N     N_1   0.875978 0.311222 0.433178 -0.193866
N8    N     N_1   0.105276 0.673735 0.463417 -0.188861
N9    N     N_1   0.124297 0.311407 0.568514 -0.193848
N10   N     N_1   0.894691 0.673626 0.538241 -0.188898
N11   N     N_3   0.930050 0.490169 0.356268 -0.458227
N12   N     N_R   0.500000 0.310560 0.500000 -0.135629
N13   N     N_3   0.070064 0.490352 0.645223 -0.458253
N14   N     N_3   0.078567 0.485117 0.368125 -0.453789
N15   N     N_3   0.921533 0.485216 0.633371 -0.453919
N16   N     N_1   0.611403 0.656157 0.656146 -0.208188
N17   N     N_1   0.352927 0.342275 0.383669 -0.210869
N18   N     N_1   0.388197 0.655999 0.344206 -0.208467
N19   N     N_1   0.646838 0.342251 0.616742 -0.208962
N20   N     N_1   0.614562 0.872636 0.656180 -0.181275
N21   N     N_1   0.353888 0.126991 0.379888 -0.181742
N22   N     N_1   0.385430 0.872474 0.343712 -0.181236
N23   N     N_1   0.400407 0.673968 0.906763 -0.187322
N24   N     N_1   0.646091 0.126990 0.620024 -0.181791
N25   N     N_3   0.414063 0.921665 0.597804 -0.456257
N26   N     N_3   0.585570 0.078055 0.401646 -0.455796
N27   N     N_3   0.585945 0.921644 0.402037 -0.456251
N28   N     N_3   0.414435 0.078073 0.598199 -0.455725
N29   N     N_1   0.422859 0.341664 0.067092 -0.186557
N30   N     N_1   0.578147 0.680688 0.088553 -0.187097
N31   N     N_1   0.576893 0.346741 0.935318 -0.187040
N32   N     N_3   0.425153 0.614335 0.717528 -0.428309
N33   N     N_3   0.448825 0.380976 0.263203 -0.423841
N34   N     N_3   0.565554 0.618762 0.278716 -0.427106
O1    O     O_R   0.398180 0.560840 0.499980 -0.602573
O2    O     O_R   0.601820 0.439160 0.500020 -0.605123
O3    O     O_R   0.601820 0.560840 0.500020 -0.602991
O4    O     O_R   0.398180 0.439160 0.499980 -0.605500
O5    O     O_R   0.500000 0.560840 0.389110 -0.607279
O6    O     O_R   0.500000 0.439160 0.610890 -0.606136
O7    O     O_R   0.500000 0.560840 0.610890 -0.608336
O8    O     O_R   0.500000 0.439160 0.389110 -0.604604
Zn1   Zn    Zn3+2 0.500000 0.581210 0.500000 0.985390
Zn2   Zn    Zn3+2 0.500000 0.418790 0.500000 0.985898

loop_
_geom_bond_atom_site_label_1
_geom_bond_atom_site_label_2
_ccdc_geom_bond_type
C66   C68   A    
H3    N4    S    
C8    C13   A    
H12   N32   S    
C61   N19   T    
C18   C21   A    
C28   C52   S    
C3    C68   A    
C48   C57   S    
C13   C65   S    
C24   O6    A    
C7    C11   A    
C22   C35   S    
C16   C21   A    
C5    C58   S    
H11   N13   S    
C14   C21   S    
C1    C56   S    
C10   C15   A    
C26   C50   S    
C38   C39   T    
C11   C14   A    
C17   N26   S    
C29   N32   S    
C49   N23   T    
C29   C33   A    
C19   N28   S    
H27   N33   S    
C17   C20   A    
C65   N24   T    
H9    N11   S    
H20   N26   S    
C42   C56   A    
O5    Zn1   S    
C44   C53   S    
C10   C63   S    
H22   N27   S    
C60   N18   T    
H10   N11   S    
C34   C46   A    
C66   N11   S    
C16   N25   S    
C62   N20   T    
C8    C61   S    
O1    Zn1   S    
O3    Zn1   S    
C59   N17   T    
C55   N9    T    
H18   N25   S    
C58   N16   T    
H15   N14   S    
C46   C54   S    
C15   C20   S    
H29   N34   S    
C31   N34   S    
C63   N21   T    
C51   N30   T    
C27   C51   S    
H21   N26   S    
C25   C29   A    
C40   C45   A    
C5    N1    A    
C27   C31   A    
C9    C62   S    
C28   C32   A    
H14   N14   S    
C2    C67   A    
C4    C23   S    
H2    N3    S    
H28   N34   S    
H4    N4    S    
C3    C34   S    
H30   N2    S    
C22   O5    A    
H32   N3    S    
C23   C44   A    
C43   N6    S    
C2    C4    A    
C9    C14   A    
C41   C56   A    
C5    C9    A    
C50   N29   T    
C18   N27   S    
C2    N15   S    
C53   N7    T    
H5    N5    S    
C57   N10   T    
H23   N33   S    
H17   N15   S    
C24   O7    A    
C41   C46   A    
C30   N33   S    
C22   O8    A    
C17   C18   A    
C43   C45   A    
C30   C35   A    
C11   C64   S    
H16   N15   S    
C13   C15   A    
C7    N1    A    
C31   C35   A    
H24   N27   S    
C7    C60   S    
H19   N25   S    
C47   C55   S    
C43   C48   A    
H8    N6    S    
C23   C48   A    
C52   N31   T    
C6    N12   A    
C6    C59   S    
C3    C67   A    
O6    Zn2   S    
C12   C45   S    
C6    C10   A    
C26   C37   A    
C26   C30   A    
C32   N2    S    
H26   N28   S    
C24   C33   S    
C41   N4    S    
C54   N8    T    
C32   C33   A    
N12   Zn2   S    
C19   C20   A    
O7    Zn1   S    
C67   N13   S    
H25   N28   S    
O2    Zn2   S    
O4    Zn2   S    
C40   N3    S    
C4    C66   A    
N1    Zn1   S    
C27   C37   A    
H1    N32   S    
C64   N22   T    
C36   C38   S    
C8    N12   A    
O8    Zn2   S    
C42   C47   A    
C42   N5    S    
C25   C49   S    
C25   C36   A    
C40   C44   A    
H31   N2    S    
C28   C36   A    
H7    N6    S    
C37   C39   S    
C12   O2    A    
H13   N13   S    
C12   O3    A    
C34   C47   A    
C1    O1    A    
C1    O4    A    
C68   N14   S    
H6    N5    S    
C16   C19   A    
