data_mof_unit_51555.cif
_audit_creation_date              2012-12-11T15:14:47-0500
_audit_creation_method            fapswitch 2.2
_symmetry_space_group_name_H-M    P1
_symmetry_Int_Tables_number       1
_space_group_crystal_system       triclinic
_cell_length_a                    22.396106
_cell_length_b                    7.228609
_cell_length_c                    19.226351
_cell_angle_alpha                 90.002634
_cell_angle_beta                  98.967924
_cell_angle_gamma                 90.001284
_cell_volume                      3074.55651199

loop_
_atom_site_label
_atom_site_type_symbol
_atom_type_description
_atom_site_fract_x
_atom_site_fract_y
_atom_site_fract_z
_atom_type_partial_charge
O1    O     O_R   0.448470 0.506130 0.415700 -0.533657
O2    O     O_R   0.551530 0.006130 0.584300 -0.533654
O3    O     O_R   0.436320 0.174490 0.555800 -0.533440
O4    O     O_R   0.563680 0.674490 0.444200 -0.533441
C1    C     C_R   0.421269 0.344397 0.575196 0.699742
C2    C     C_R   0.578730 0.844395 0.424804 0.699734
O5    O     O_R   0.441350 0.176340 0.414480 -0.534563
O6    O     O_R   0.558650 0.676340 0.585520 -0.534562
O7    O     O_R   0.556600 0.007100 0.441970 -0.532489
O8    O     O_R   0.443400 0.507100 0.558030 -0.532496
C3    C     C_R   0.427441 0.344829 0.389036 0.699117
C4    C     C_R   0.572558 0.844840 0.610964 0.699121
O9    O     O_3   0.537810 0.339550 0.509190 -0.373413
O10   O     O_3   0.462190 0.839550 0.490810 -0.373418
V1    V     V_3+5 0.492990 0.064280 0.498300 1.448370
V2    V     V_3+5 0.507010 0.564280 0.501700 1.448360
C5    C     C_R   0.863126 0.997818 0.698201 -0.165234
C6    C     C_R   0.136902 0.498204 0.301776 -0.165246
H1    H     H_    0.948951 0.038130 0.762246 0.123969
H2    H     H_    0.051080 0.538516 0.237728 0.123978
H3    H     H_    0.782975 0.980066 0.582340 0.138266
H4    H     H_    0.217060 0.480651 0.417633 0.138233
H5    H     H_    0.880768 0.034748 0.650666 0.129139
H6    H     H_    0.119273 0.535318 0.349300 0.129135
C7    C     C_R   0.882383 0.942635 0.823745 -0.114109
C8    C     C_R   0.117621 0.442692 0.176255 -0.114105
C9    C     C_R   0.586961 0.835367 0.740104 -0.261506
C10   C     C_R   0.413025 0.335050 0.259900 -0.261503
C11   C     C_R   0.621698 0.854659 0.806842 0.397198
C12   C     C_R   0.378285 0.354206 0.193159 0.397205
C13   C     C_R   0.683874 0.884410 0.812816 -0.089668
C14   C     C_R   0.316116 0.384076 0.187181 -0.089673
C15   C     C_R   0.713747 0.888513 0.753124 0.007425
C16   C     C_R   0.286251 0.388434 0.246875 0.007420
C17   C     C_R   0.676786 0.882486 0.685201 0.045785
C18   C     C_R   0.323218 0.382548 0.314795 0.045791
C19   C     C_R   0.778360 0.910943 0.758320 0.067991
C20   C     C_R   0.221642 0.410972 0.241679 0.068008
C21   C     C_R   0.801964 0.953629 0.695629 0.080683
C22   C     C_R   0.198054 0.453897 0.304357 0.080691
C23   C     C_R   0.764588 0.951653 0.630173 -0.165243
C24   C     C_R   0.235436 0.452052 0.369808 -0.165232
C25   C     C_R   0.703483 0.911261 0.624772 -0.158325
C26   C     C_R   0.296533 0.411561 0.375217 -0.158336
C27   C     C_R   0.820642 0.890543 0.822344 0.285970
C28   C     C_R   0.179350 0.390476 0.177667 0.285970
C29   C     C_R   0.902218 0.998376 0.761733 -0.205293
C30   C     C_R   0.097804 0.498657 0.238249 -0.205263
C31   C     C_R   0.613386 0.852938 0.679286 -0.111598
C32   C     C_R   0.386612 0.352882 0.320715 -0.111607
H7    H     H_    0.538623 0.813013 0.735397 0.114152
H8    H     H_    0.461358 0.312588 0.264609 0.114152
H9    H     H_    0.706767 0.914243 0.865031 0.202533
H10   H     H_    0.293223 0.413788 0.134959 0.202514
H11   H     H_    0.676849 0.908852 0.572689 0.107700
H12   H     H_    0.323172 0.409262 0.427297 0.107724
C33   C     C_3   0.775953 0.840555 0.312547 0.387324
C34   C     C_3   0.224042 0.340635 0.687442 0.387340
C35   C     C_3   0.792925 0.022060 0.277565 -0.307403
C36   C     C_3   0.207092 0.522123 0.722457 -0.307736
H13   H     H_    0.827391 0.124010 0.300896 0.140223
H14   H     H_    0.172640 0.624124 0.699143 0.140228
C37   C     C_1   0.875388 0.940164 0.120997 -0.165973
C38   C     C_1   0.124611 0.440159 0.879003 -0.165984
C39   C     C_1   0.624507 0.854055 0.379140 -0.169055
C40   C     C_1   0.375493 0.354060 0.620860 -0.169052
C41   C     C_3   0.776505 0.729929 0.243816 -0.241952
C42   C     C_3   0.223474 0.229946 0.756150 -0.241632
C43   C     C_3   0.791959 0.912491 0.207753 0.058152
C44   C     C_3   0.208041 0.412488 0.792247 0.058150
C45   C     C_3   0.707506 0.771527 0.222657 -0.282243
C46   C     C_3   0.292477 0.271468 0.777321 -0.282378
C47   C     C_3   0.708067 0.880439 0.292504 0.078914
C48   C     C_3   0.291934 0.380444 0.707496 0.078924
C49   C     C_3   0.724154 0.952594 0.187313 0.429721
C50   C     C_3   0.275850 0.452516 0.812698 0.429729
C51   C     C_3   0.724485 0.058628 0.256181 0.130218
C52   C     C_3   0.275536 0.558614 0.743851 0.130324
C53   C     C_1   0.837611 0.928833 0.159849 0.033860
C54   C     C_1   0.162388 0.428827 0.840151 0.033855
C55   C     C_1   0.662329 0.864981 0.340347 0.041564
C56   C     C_1   0.337672 0.364988 0.659653 0.041565
H15   H     H_    0.672449 0.671424 0.199280 0.160017
H16   H     H_    0.327522 0.171318 0.800682 0.160001
H17   H     H_    0.798922 0.594074 0.240169 0.138043
H18   H     H_    0.201041 0.094103 0.759769 0.138076
O11   O     O_R   0.056650 0.288730 0.942060 -0.535941
O12   O     O_R   0.943350 0.788730 0.057940 -0.535942
O13   O     O_R   0.058660 0.616870 0.085540 -0.532235
O14   O     O_R   0.941340 0.116870 0.914460 -0.532229
C57   C     C_R   0.073110 0.448687 0.110656 0.672682
C58   C     C_R   0.926891 0.948677 0.889344 0.672710
O15   O     O_R   0.063700 0.618520 0.944220 -0.532015
O16   O     O_R   0.936300 0.118520 0.055780 -0.532014
O17   O     O_R   0.948460 0.787610 0.915680 -0.535782
O18   O     O_R   0.051540 0.287610 0.084320 -0.535759
C59   C     C_R   0.078867 0.449981 0.924728 0.703124
C60   C     C_R   0.921133 0.949982 0.075272 0.703132
O19   O     O_3   0.962230 0.453430 0.990860 -0.370907
O20   O     O_3   0.037770 0.953430 0.009140 -0.370895
V3    V     V_3+5 0.007010 0.728750 0.001700 1.454564
V4    V     V_3+5 0.992990 0.228750 0.998300 1.454577
O21   O     O_3   0.802631 0.779735 0.379188 -0.639672
H19   H     H_    0.846189 0.765485 0.376288 0.284013
O22   O     O_3   0.197361 0.279873 0.620791 -0.639644
H20   H     H_    0.153756 0.266409 0.623601 0.284000
N1    N     N_3   0.695100 0.236758 0.261102 -0.656149
H21   H     H_    0.715603 0.330672 0.230911 0.244562
H22   H     H_    0.705293 0.280663 0.313406 0.242032
N2    N     N_3   0.304943 0.736725 0.738965 -0.656192
H23   H     H_    0.284458 0.830624 0.769175 0.244572
H24   H     H_    0.294750 0.780691 0.686677 0.242035
O23   O     O_3   0.697261 0.015310 0.121011 -0.618526
H25   H     H_    0.653559 0.025769 0.123735 0.308146
O24   O     O_3   0.302748 0.515147 0.879014 -0.618534
H26   H     H_    0.346452 0.525577 0.876293 0.308149
O25   O     O_3   0.801946 0.808237 0.880208 -0.654164
H27   H     H_    0.834878 0.806463 0.920873 0.288972
O26   O     O_3   0.198024 0.307961 0.119830 -0.654148
H28   H     H_    0.165110 0.306382 0.079143 0.288961
O27   O     O_3   0.596022 0.848843 0.867558 -0.622811
H29   H     H_    0.551919 0.827667 0.854767 0.299164
O28   O     O_3   0.403952 0.348124 0.132443 -0.622817
H30   H     H_    0.448051 0.326887 0.145236 0.299158

loop_
_geom_bond_atom_site_label_1
_geom_bond_atom_site_label_2
_ccdc_geom_bond_type
C12   C14   A    
O18   V4    S    
C9    C11   A    
C42   H18   S    
O1    C3    A    
C46   C50   S    
O2    C4    A    
C35   C51   S    
C2    O7    A    
C4    C31   S    
O3    V1    S    
O28   H30   S    
C21   C23   A    
C37   C53   T    
O5    C3    A    
C36   C52   S    
C5    H5    S    
C6    H6    S    
C50   C52   S    
C37   C60   S    
H1    C29   S    
C33   C35   S    
O16   C60   A    
C7    C27   A    
C34   C36   S    
O24   H26   S    
C50   O24   S    
C36   H14   S    
C5    C21   A    
C33   C47   S    
C6    C22   A    
N2    H23   S    
O14   V4    S    
C57   O18   A    
C38   C54   T    
O14   C58   A    
C2    C39   S    
C11   O27   S    
C17   C31   A    
N1    H21   S    
C13   C15   A    
C49   O23   S    
O13   C57   A    
C17   C25   A    
C7    C29   A    
C16   C18   A    
C8    C30   A    
C22   C24   A    
O6    V2    S    
C45   C49   S    
C23   C25   A    
C24   C26   A    
C33   C41   S    
C14   H10   S    
C9    H7    S    
O12   V3    S    
C45   H15   S    
C33   O21   S    
C41   H17   S    
C35   H13   S    
C44   C54   S    
C51   N1    S    
C46   C48   S    
O15   V3    S    
C45   C47   S    
C10   C32   A    
C8    C57   S    
C58   O17   A    
C15   C19   A    
C42   C46   S    
C41   C43   S    
C14   C16   A    
O4    V2    S    
C40   C56   T    
O11   V4    S    
C26   H12   S    
C39   C55   T    
C36   C44   S    
O6    C4    A    
C52   N2    S    
O1    V2    S    
H2    C30   S    
C13   H9    S    
O2    V1    S    
C49   C51   S    
O27   H29   S    
C46   H16   S    
C47   C55   S    
H3    C23   S    
C34   C42   S    
C38   C59   S    
C35   C43   S    
C44   C50   S    
C43   C53   S    
O4    C2    A    
C19   C27   A    
O15   C59   A    
C18   C32   A    
C34   C48   S    
O23   H25   S    
C48   C56   S    
C27   O25   S    
C7    C58   S    
O13   V3    S    
C16   C20   A    
C5    C29   A    
C1    C40   S    
O3    C1    A    
C6    C30   A    
O26   H28   S    
C25   H11   S    
O22   H20   S    
C34   O22   S    
C10   C12   A    
O7    V1    S    
C1    O8    A    
C19   C21   A    
C3    C32   S    
O8    V2    S    
O25   H27   S    
C20   C22   A    
C10   H8    S    
N1    H22   S    
O5    V1    S    
O20   V3    S    
C15   C17   A    
C28   O26   S    
C43   C49   S    
C41   C45   S    
N2    H24   S    
C20   C28   A    
C18   C26   A    
C8    C28   A    
O17   V3    S    
O19   V4    S    
C12   O28   S    
O16   V4    S    
C11   C13   A    
C48   C52   S    
O9    V2    S    
H4    C24   S    
O21   H19   S    
C42   C44   S    
C47   C51   S    
O10   V1    S    
O12   C60   A    
C9    C31   A    
O11   C59   A    
