data_mof_unit_10122.cif
_audit_creation_date              2012-12-10T19:45:02-0500
_audit_creation_method            fapswitch 2.2
_symmetry_space_group_name_H-M    P1
_symmetry_Int_Tables_number       1
_space_group_crystal_system       triclinic
_cell_length_a                    15.059417
_cell_length_b                    10.865268
_cell_length_c                    13.79792
_cell_angle_alpha                 93.0576
_cell_angle_beta                  87.093736
_cell_angle_gamma                 87.963195
_cell_volume                      2249.90921758

loop_
_atom_site_label
_atom_site_type_symbol
_atom_type_description
_atom_site_fract_x
_atom_site_fract_y
_atom_site_fract_z
_atom_type_partial_charge
C1    C     C_R   0.505556 0.261697 0.497048 0.855624
C2    C     C_R   0.530753 0.895854 0.682967 0.054520
C3    C     C_R   0.527366 0.065667 0.237836 0.417524
C4    C     C_R   0.467428 0.934717 0.759070 0.520131
C5    C     C_R   0.511189 0.101607 0.143856 -0.130345
C6    C     C_R   0.481561 0.901553 0.854226 -0.188108
C7    C     C_R   0.436481 0.176622 0.126649 -0.043233
C8    C     C_R   0.556851 0.830213 0.874888 -0.060505
C9    C     C_R   0.453924 0.933934 0.426881 0.456300
C10   C     C_R   0.545802 0.065338 0.571044 0.457373
C11   C     C_R   0.486595 0.873456 0.507182 -0.207690
C12   C     C_R   0.493574 0.738162 0.502782 0.864584
C13   C     C_R   0.512129 0.126208 0.491779 -0.251179
C14   C     C_R   0.524384 0.942651 0.583811 -0.104502
C15   C     C_R   0.474692 0.057113 0.414836 -0.113549
C16   C     C_R   0.328831 0.503897 0.502552 0.769711
C17   C     C_R   0.671334 0.495973 0.497892 0.794869
C18   C     C_R   0.575534 0.467264 0.788333 0.129224
C19   C     C_R   0.424911 0.533468 0.211355 0.134061
C20   C     C_R   0.422893 0.530583 0.800294 0.150079
C21   C     C_R   0.576489 0.466839 0.199834 0.146908
C22   C     C_R   0.418574 0.516663 0.903015 -0.130503
C23   C     C_R   0.061752 0.282877 0.451535 -0.204992
C24   C     C_R   0.581918 0.479489 0.096933 -0.094778
C25   C     C_R   0.499337 0.497238 0.948295 0.040921
C26   C     C_R   0.501626 0.502113 0.051527 0.025380
C27   C     C_R   0.577750 0.471346 0.890376 -0.035809
C28   C     C_R   0.423038 0.528373 0.109332 -0.093679
C29   C     C_R   0.338367 0.525554 0.963618 0.393061
C30   C     C_R   0.662429 0.464988 0.036436 0.426164
C31   C     C_R   0.342525 0.541013 0.064789 -0.238054
C32   C     C_R   0.658041 0.454471 0.934862 -0.183652
C33   C     C_R   0.808195 0.592408 0.539448 -0.156581
C34   C     C_R   0.937331 0.695861 0.590253 -0.169762
C35   C     C_R   0.191994 0.397195 0.480388 -0.158545
C36   C     C_R   0.768552 0.491901 0.495609 -0.121406
C37   C     C_R   0.231950 0.505362 0.509055 -0.106469
C38   C     C_R   0.820668 0.387483 0.458475 -0.075648
C39   C     C_R   0.180053 0.611799 0.542048 -0.162367
C40   C     C_R   0.913761 0.381680 0.472757 -0.021510
C41   C     C_R   0.085875 0.604735 0.552903 -0.022908
C42   C     C_R   0.953318 0.490651 0.510216 0.008755
C43   C     C_R   0.046458 0.496332 0.514343 0.036606
C44   C     C_R   0.899783 0.594143 0.544690 0.060794
C45   C     C_R   0.377613 0.216606 0.204641 -0.226200
C46   C     C_R   0.100097 0.392779 0.480344 0.067924
C47   C     C_R   0.969628 0.272856 0.453399 0.346578
C48   C     C_R   0.028757 0.699348 0.600960 0.330056
C49   C     C_2   0.352351 0.604998 0.759249 0.482235
C50   C     C_2   0.644402 0.390878 0.241711 0.500220
C51   C     C_2   0.778016 0.294568 0.396524 0.503653
C52   C     C_2   0.224489 0.731093 0.549298 0.603527
C53   C     C_2   0.418435 0.212563 0.027503 0.412967
C54   C     C_2   0.571202 0.801205 0.976472 0.432429
C55   C     C_R   0.617812 0.789011 0.798856 -0.117744
C56   C     C_R   0.392281 0.180808 0.298316 -0.039770
C57   C     C_R   0.604800 0.821691 0.704005 -0.090991
C58   C     C_R   0.466631 0.105350 0.316406 0.077578
Cu1   Cu    Cu3+1 0.500010 0.499980 0.597420 1.018733
Cu2   Cu    Cu3+1 0.499990 0.500020 0.402580 1.030430
H1    H     H_    0.767089 0.670940 0.568504 0.135706
H2    H     H_    0.676180 0.732937 0.812872 0.185232
H3    H     H_    0.344696 0.210038 0.357054 0.148851
H4    H     H_    0.653758 0.792110 0.646784 0.160345
H5    H     H_    0.556917 0.070185 0.083769 0.195136
H6    H     H_    0.434009 0.932167 0.912838 0.180013
H7    H     H_    0.255351 0.929335 0.284621 0.395672
H8    H     H_    0.736459 0.069440 0.725841 0.386253
H9    H     H_    0.292337 0.563913 0.735659 0.115725
H10   H     H_    0.704372 0.431278 0.265779 0.134269
H11   H     H_    0.117800 0.399834 0.985629 0.413626
H12   H     H_    0.233136 0.316243 0.456651 0.129519
H13   H     H_    0.825325 0.590243 0.198486 0.390124
H14   H     H_    0.712603 0.263482 0.417540 0.085713
H15   H     H_    0.289306 0.736764 0.579608 0.095475
H16   H     H_    0.849005 0.145941 0.583817 0.368348
H17   H     H_    0.150209 0.666604 0.742364 0.343529
H18   H     H_    0.357399 0.263865 0.014781 0.132607
H19   H     H_    0.519967 0.825610 0.033125 0.099862
H20   H     H_    0.693541 0.053836 0.370564 0.392952
H21   H     H_    0.340309 0.210630 0.702612 0.384209
H22   H     H_    0.635887 0.442369 0.745169 0.167680
H23   H     H_    0.364349 0.557956 0.254202 0.177167
H24   H     H_    0.281384 0.552547 0.109852 0.209210
H25   H     H_    0.718766 0.439989 0.889487 0.182150
H26   H     H_    0.104372 0.201752 0.432309 0.208754
H27   H     H_    0.894201 0.770399 0.623144 0.199002
H28   H     H_    0.319536 0.274541 0.192884 0.158428
N1    N     N_R   0.499960 0.499900 0.743810 -0.212757
N2    N     N_R   0.500040 0.500100 0.256190 -0.213402
O1    O     O_R   0.500000 0.319630 0.582270 -0.497410
O2    O     O_2   0.339680 0.749266 0.383611 -0.324253
O3    O     O_3   0.290004 0.965716 0.337384 -0.509412
O4    O     O_2   0.667878 0.241020 0.602033 -0.347434
O5    O     O_2   0.577963 0.180424 0.743278 -0.239796
O6    O     O_3   0.705297 0.031537 0.670893 -0.522072
O7    O     O_2   0.360970 0.714987 0.751363 -0.542865
O8    O     O_2   0.634129 0.281064 0.248465 -0.556490
O9    O     O_2   0.181299 0.602354 0.903855 -0.248584
O10   O     O_2   0.241583 0.400989 0.833581 -0.313599
O11   O     O_3   0.176973 0.414720 0.011237 -0.514609
O12   O     O_R   0.500000 0.680370 0.417730 -0.494282
O13   O     O_2   0.806324 0.365089 0.114031 -0.241336
O14   O     O_2   0.832352 0.525380 0.999528 -0.221115
O15   O     O_3   0.765862 0.594634 0.171005 -0.492741
O16   O     O_2   0.812999 0.258744 0.317897 -0.429172
O17   O     O_2   0.191743 0.822372 0.515009 -0.401587
O18   O     O_2   0.920733 0.071086 0.349748 -0.148821
O19   O     O_2   0.001129 0.036626 0.494493 -0.218671
O20   O     O_3   0.836440 0.110182 0.518627 -0.483020
O21   O     O_2   0.076370 0.929707 0.652799 -0.131280
O22   O     O_2   0.989095 0.822134 0.772721 -0.221430
O23   O     O_R   0.499990 0.319660 0.417730 -0.595723
O24   O     O_3   0.154943 0.757162 0.743375 -0.436502
O25   O     O_2   0.471401 0.186016 0.958996 -0.495436
O26   O     O_2   0.640671 0.751302 0.998462 -0.455888
O27   O     O_2   0.604376 0.838806 0.225653 -0.196205
O28   O     O_2   0.698200 0.008193 0.184147 -0.181276
O29   O     O_3   0.657802 0.979323 0.366360 -0.511970
O30   O     O_2   0.331094 0.976489 0.644779 -0.276873
O31   O     O_2   0.300957 0.011426 0.820252 -0.187109
O32   O     O_3   0.393024 0.171549 0.730343 -0.479267
O33   O     O_R   0.500010 0.680340 0.582270 -0.595522
O34   O     O_R   0.370260 0.499960 0.582280 -0.623893
O35   O     O_R   0.629740 0.500040 0.417720 -0.617941
O36   O     O_R   0.370250 0.499990 0.417740 -0.573093
O37   O     O_R   0.629750 0.500010 0.582260 -0.577210
O38   O     O_2   0.420293 0.837036 0.247870 -0.301415
S1    S     S_3+6 0.376291 0.865398 0.347048 0.023055
S2    S     S_3+6 0.624434 0.135155 0.648481 0.017619
S3    S     S_3+6 0.232814 0.486353 0.923218 0.000810
S4    S     S_3+6 0.770413 0.485133 0.079718 0.052428
S5    S     S_3+6 0.932437 0.118799 0.452331 0.075326
S6    S     S_3+6 0.061709 0.806321 0.693675 0.116367
S7    S     S_3+6 0.623952 0.970611 0.252034 0.087970
S8    S     S_3+6 0.369124 0.022338 0.738028 0.083890

loop_
_geom_bond_atom_site_label_1
_geom_bond_atom_site_label_2
_ccdc_geom_bond_type
C40   C47   A    
C38   C40   A    
C22   C29   A    
C51   H14   S    
C52   H15   S    
O38   S1    D    
O10   S3    D    
C39   C41   A    
O4    S2    D    
C1    O23   A    
C7    C45   A    
C48   S6    S    
Cu2   O35   S    
C35   C37   A    
C24   C26   A    
C11   C14   A    
Cu2   O12   S    
Cu1   O37   S    
C55   H2    S    
C33   C36   A    
Cu1   N1    S    
Cu2   O36   S    
C45   C56   A    
C33   C44   A    
C23   H26   S    
C54   O26   D    
O5    S2    D    
C17   C36   S    
O13   S4    D    
C16   C37   S    
C4    S8    S    
C40   C42   A    
C39   C52   S    
H11   O11   S    
H20   O29   S    
Cu1   Cu2   S    
C1    O1    A    
C23   C46   A    
C49   H9    S    
C47   S5    S    
C41   C43   A    
Cu2   O23   S    
C42   C44   A    
O3    S1    S    
C8    C55   A    
C21   C50   S    
O15   S4    S    
C21   N2    A    
Cu1   O33   S    
C37   C39   A    
C2    C57   A    
C50   O8    D    
O19   S5    D    
C45   H28   S    
C34   C44   A    
C52   O17   D    
C5    H5    S    
C10   C14   A    
C8    C54   S    
C5    C7    A    
C17   O37   A    
C6    C8    A    
C38   C51   S    
C25   C26   A    
C22   C25   A    
O29   S7    S    
C31   H24   S    
O30   S8    D    
C2    C4    A    
C10   S2    S    
C12   O12   A    
C20   C49   S    
H13   O15   S    
O24   S6    S    
C56   H3    S    
Cu1   O1    S    
C19   C28   A    
C9    C11   A    
O32   S8    S    
O11   S3    S    
C4    C6    A    
C20   C22   A    
C35   H12   S    
Cu2   N2    S    
C55   C57   A    
C15   C58   S    
C1    C13   S    
C42   C43   A    
C7    C53   S    
H17   O24   S    
O27   S7    D    
C57   H4    S    
O6    S2    S    
C54   H19   S    
Cu1   O34   S    
C27   C32   A    
C18   N1    A    
C28   C31   A    
C18   C27   A    
O22   S6    D    
C3    C5    A    
C10   C13   A    
C11   C12   S    
O21   S6    D    
C9    S1    S    
C25   C27   A    
C20   N1    A    
H8    O6    S    
C26   C28   A    
H16   O20   S    
O9    S3    D    
H21   O32   S    
C23   C47   A    
C13   C15   A    
O2    S1    D    
C9    C15   A    
O18   S5    D    
C29   C31   A    
C19   N2    A    
C30   C32   A    
C17   O35   A    
C29   S3    S    
C12   O33   A    
C51   O16   D    
C30   S4    S    
C32   H25   S    
C36   C38   A    
C18   H22   S    
C41   C48   A    
C56   C58   A    
C53   H18   S    
C3    S7    S    
C34   H27   S    
O31   S8    D    
C16   O34   A    
C2    C14   S    
C43   C46   A    
C24   C30   A    
C50   H10   S    
C19   H23   S    
C49   O7    D    
C3    C58   A    
C6    H6    S    
C34   C48   A    
C33   H1    S    
O14   S4    D    
C21   C24   A    
H7    O3    S    
O20   S5    S    
C35   C46   A    
C16   O36   A    
O28   S7    D    
C53   O25   D    
