data_mof_unit_21664.cif
_audit_creation_date              2013-03-05T15:47:57-0500
_audit_creation_method            fapswitch 2.2
_symmetry_space_group_name_H-M    P1
_symmetry_Int_Tables_number       1
_space_group_crystal_system       triclinic
_cell_length_a                    21.834689
_cell_length_b                    21.913568
_cell_length_c                    23.488988
_cell_angle_alpha                 90.189798
_cell_angle_beta                  90.144847
_cell_angle_gamma                 90.919878
_cell_volume                      11237.368122

loop_
_atom_site_label
_atom_site_type_symbol
_atom_site_description
_atom_site_fract_x
_atom_site_fract_y
_atom_site_fract_z
_atom_type_partial_charge
O1    O     O_R   0.408370 0.051730 0.500010 -0.659997
O2    O     O_R   0.948270 0.408370 0.500010 -0.650586
O3    O     O_R   0.591630 0.948270 0.500010 -0.636796
O4    O     O_R   0.051730 0.591630 0.500010 -0.618613
O5    O     O_R   0.591630 0.051730 0.499990 -0.575141
O6    O     O_R   0.051730 0.408370 0.499990 -0.585041
O7    O     O_R   0.408370 0.948270 0.499990 -0.574931
O8    O     O_R   0.948270 0.591630 0.499990 -0.575463
O9    O     O_R   0.908370 0.551730 0.000010 -0.641869
O10   O     O_R   0.448270 0.908370 0.000010 -0.607926
O11   O     O_R   0.091630 0.448270 0.000010 -0.643810
O12   O     O_R   0.551730 0.091630 0.000010 -0.613585
O13   O     O_R   0.091630 0.551730 0.999990 -0.583509
O14   O     O_R   0.551730 0.908370 0.999990 -0.602917
O15   O     O_R   0.908370 0.448270 0.999990 -0.603514
O16   O     O_R   0.448270 0.091630 0.999990 -0.589404
C1    C     C_R   0.380109 0.998908 0.499153 0.945453
C2    C     C_R   0.000657 0.379857 0.504772 0.848618
C3    C     C_R   0.619801 0.000748 0.501496 0.934619
C4    C     C_R   0.999942 0.619811 0.499927 0.943320
C5    C     C_R   0.880093 0.498796 0.005327 0.874092
C6    C     C_R   0.499757 0.880357 0.000059 0.956766
C7    C     C_R   0.120102 0.501056 0.005216 0.875698
C8    C     C_R   0.500453 0.119780 0.002068 0.911803
O17   O     O_R   0.499980 0.051730 0.417240 -0.586945
O18   O     O_R   0.948270 0.499980 0.417240 -0.566839
O19   O     O_R   0.500020 0.948270 0.417240 -0.558881
O20   O     O_R   0.051730 0.500020 0.417240 -0.618378
O21   O     O_R   0.500020 0.051730 0.582760 -0.602798
O22   O     O_R   0.051730 0.499980 0.582760 -0.622862
O23   O     O_R   0.499980 0.948270 0.582760 -0.650180
O24   O     O_R   0.948270 0.500020 0.582760 -0.611903
O25   O     O_R   0.999980 0.551730 0.917240 -0.606069
O26   O     O_R   0.448270 0.999980 0.917240 -0.620045
O27   O     O_R   0.000020 0.448270 0.917240 -0.620669
O28   O     O_R   0.551730 0.000020 0.917240 -0.560937
O29   O     O_R   0.000020 0.551730 0.082760 -0.597428
O30   O     O_R   0.551730 0.999980 0.082760 -0.640273
O31   O     O_R   0.999980 0.448270 0.082760 -0.614445
O32   O     O_R   0.448270 0.000020 0.082760 -0.564731
C9    C     C_R   0.498602 0.999851 0.390874 1.030930
C10   C     C_R   0.999976 0.496599 0.390900 0.946411
C11   C     C_R   0.499618 0.999988 0.609129 0.967357
C12   C     C_R   0.000123 0.500187 0.609202 0.947510
C13   C     C_R   0.000057 0.499903 0.890858 0.886549
C14   C     C_R   0.499788 0.000035 0.890788 0.988703
C15   C     C_R   0.999848 0.500041 0.109151 1.014193
C16   C     C_R   0.500137 0.000557 0.109206 0.964816
Zn1   Zn    Zn3+2 0.500000 0.069080 0.500000 1.064239
Zn2   Zn    Zn3+2 0.930920 0.500000 0.500000 1.060177
Zn3   Zn    Zn3+2 0.500000 0.930920 0.500000 1.087718
Zn4   Zn    Zn3+2 0.069080 0.500000 0.500000 1.075312
Zn5   Zn    Zn3+2 1.000000 0.569080 0.000000 1.042379
Zn6   Zn    Zn3+2 0.430920 0.000000 0.000000 1.135334
Zn7   Zn    Zn3+2 1.000000 0.430920 0.000000 1.016530
Zn8   Zn    Zn3+2 0.569080 0.000000 0.000000 1.108102
C17   C     C_1   0.498567 0.999473 0.330514 0.030888
C18   C     C_1   0.000052 0.495722 0.330538 -0.068301
C19   C     C_1   0.498082 0.999621 0.669418 0.007649
C20   C     C_1   0.000515 0.499736 0.669516 -0.014341
C21   C     C_1   0.000361 0.499669 0.830571 -0.161545
C22   C     C_1   0.498976 0.998791 0.830427 0.056169
C23   C     C_1   0.999377 0.499814 0.169543 0.062874
C24   C     C_1   0.500362 0.999756 0.169528 0.018078
C25   C     C_1   0.499133 0.999222 0.279680 0.081358
C26   C     C_1   0.999787 0.496585 0.279692 0.063997
C27   C     C_1   0.497556 0.998890 0.720262 0.111359
C28   C     C_1   0.000706 0.499516 0.720396 0.120293
C29   C     C_1   0.000605 0.499526 0.779723 0.053222
C30   C     C_1   0.498116 0.998334 0.779568 0.124617
C31   C     C_1   0.999381 0.498516 0.220390 0.117103
C32   C     C_1   0.499966 0.999243 0.220376 0.100430
C33   C     C_R   0.308298 0.904228 0.434560 0.231404
C34   C     C_R   0.102392 0.302375 0.458563 0.194736
C35   C     C_R   0.687401 0.073270 0.419419 0.245989
C36   C     C_R   0.933569 0.686793 0.411462 0.203290
C37   C     C_R   0.690757 0.959173 0.598903 0.144823
C38   C     C_R   0.937743 0.309808 0.597905 0.167637
C39   C     C_R   0.312511 0.069880 0.580575 0.197635
C40   C     C_R   0.030943 0.690860 0.601122 0.134191
C41   C     C_R   0.798812 0.390829 0.975120 0.196696
C42   C     C_R   0.572488 0.816855 0.918089 0.207973
C43   C     C_R   0.204952 0.605170 0.969214 0.210733
C44   C     C_R   0.452544 0.181678 0.905532 0.211530
C45   C     C_R   0.182995 0.426745 0.091796 0.179741
C46   C     C_R   0.430134 0.810489 0.081828 0.227644
C47   C     C_R   0.818392 0.578427 0.086689 0.189702
C48   C     C_R   0.542848 0.196584 0.098865 0.170877
C49   C     C_R   0.271938 0.853039 0.420152 0.323991
C50   C     C_R   0.124907 0.281714 0.405988 0.314371
C51   C     C_R   0.720995 0.122239 0.397025 0.319060
C52   C     C_R   0.882965 0.717176 0.387945 0.332660
C53   C     C_R   0.713881 0.910022 0.630263 0.342512
C54   C     C_R   0.882985 0.285445 0.620501 0.312060
C55   C     C_R   0.292863 0.129044 0.593260 0.274811
C56   C     C_R   0.076866 0.714591 0.637445 0.347036
C57   C     C_R   0.778568 0.362946 0.924225 0.313553
C58   C     C_R   0.631120 0.796172 0.904797 0.322553
C59   C     C_R   0.230814 0.632822 0.920617 0.309772
C60   C     C_R   0.396125 0.197335 0.882404 0.314206
C61   C     C_R   0.204500 0.369963 0.109571 0.282529
C62   C     C_R   0.371833 0.788126 0.095923 0.299463
C63   C     C_R   0.796513 0.636340 0.099776 0.288193
C64   C     C_R   0.590773 0.225408 0.129901 0.319076
C65   C     C_R   0.208819 0.860761 0.413453 0.147132
C66   C     C_R   0.094457 0.233905 0.377311 0.144505
C67   C     C_R   0.783664 0.113846 0.388004 0.154541
C68   C     C_R   0.877358 0.779625 0.399011 0.136086
C69   C     C_R   0.771297 0.887208 0.616735 0.154811
C70   C     C_R   0.862387 0.227496 0.603324 0.124166
C71   C     C_R   0.236761 0.148410 0.571583 0.138774
C72   C     C_R   0.102612 0.772071 0.626011 0.141798
C73   C     C_R   0.732977 0.390838 0.891547 0.153781
C74   C     C_R   0.646668 0.737580 0.921556 0.168156
C75   C     C_R   0.273767 0.600853 0.887929 0.152136
C76   C     C_R   0.374717 0.256304 0.892984 0.147931
C77   C     C_R   0.266345 0.357366 0.102769 0.151332
C78   C     C_R   0.353619 0.730519 0.075276 0.128500
C79   C     C_R   0.734005 0.646210 0.094904 0.183643
C80   C     C_R   0.616263 0.280722 0.110256 0.147610
C81   C     C_R   0.185352 0.919517 0.421435 0.156530
C82   C     C_R   0.044297 0.203674 0.403386 0.193122
C83   C     C_R   0.809716 0.058560 0.405578 0.202312
C84   C     C_R   0.931202 0.810757 0.415162 0.204610
C85   C     C_R   0.805260 0.912204 0.571550 0.198615
C86   C     C_R   0.897133 0.193236 0.564427 0.187341
C87   C     C_R   0.199108 0.107742 0.539931 0.179552
C88   C     C_R   0.081411 0.806192 0.579459 0.205992
C89   C     C_R   0.703961 0.443641 0.912455 0.194178
C90   C     C_R   0.599733 0.697337 0.939714 0.175483
C91   C     C_R   0.296770 0.545112 0.908368 0.203234
C92   C     C_R   0.412438 0.298898 0.922823 0.210424
C93   C     C_R   0.304793 0.398239 0.072505 0.197634
C94   C     C_R   0.395671 0.693952 0.045113 0.183696
C95   C     C_R   0.695157 0.600720 0.070826 0.190276
C96   C     C_R   0.591363 0.309359 0.061727 0.193921
C97   C     C_R   0.217084 0.959775 0.459864 -0.031790
C98   C     C_R   0.024014 0.222789 0.458428 -0.065834
C99   C     C_R   0.780910 0.025972 0.451597 -0.034521
C100  C     C_R   0.969441 0.781044 0.455629 -0.036434
C101  C     C_R   0.779410 0.958325 0.536538 -0.085540
C102  C     C_R   0.949360 0.219766 0.537221 -0.105321
C103  C     C_R   0.221733 0.049651 0.523683 -0.116749
C104  C     C_R   0.037934 0.780094 0.540339 -0.070228
C105  C     C_R   0.722528 0.468999 0.966133 -0.082263
C106  C     C_R   0.545114 0.721211 0.964750 -0.074688
C107  C     C_R   0.277522 0.523077 0.962485 -0.071458
C108  C     C_R   0.462863 0.277688 0.956588 -0.085181
C109  C     C_R   0.279100 0.447723 0.040742 -0.092061
C110  C     C_R   0.452915 0.719509 0.027003 -0.095333
C111  C     C_R   0.720902 0.549698 0.040792 -0.077364
C112  C     C_R   0.540113 0.281842 0.033922 -0.075644
C113  C     C_R   0.280886 0.953911 0.464301 -0.101345
C114  C     C_R   0.044605 0.279836 0.477794 -0.135306
C115  C     C_R   0.717411 0.032754 0.456950 -0.091407
C116  C     C_R   0.968581 0.716935 0.455060 -0.092379
C117  C     C_R   0.718036 0.973425 0.545516 -0.117493
C118  C     C_R   0.963360 0.281824 0.548914 -0.099966
C119  C     C_R   0.282999 0.037406 0.535423 -0.106757
C120  C     C_R   0.023033 0.718062 0.546725 -0.121519
C121  C     C_R   0.778375 0.450341 0.987976 -0.126395
C122  C     C_R   0.537806 0.784526 0.959848 -0.109492
C123  C     C_R   0.222608 0.545038 0.983629 -0.144221
C124  C     C_R   0.474642 0.214994 0.953021 -0.099435
C125  C     C_R   0.215655 0.458973 0.048803 -0.093153
C126  C     C_R   0.462891 0.781650 0.037459 -0.109561
C127  C     C_R   0.784847 0.541333 0.047575 -0.096275
C128  C     C_R   0.527407 0.220447 0.044758 -0.119258
C129  C     C_R   0.187205 0.004893 0.493461 0.024282
C130  C     C_R   0.985262 0.188179 0.495795 0.037985
C131  C     C_R   0.812537 0.990815 0.493884 0.032588
C132  C     C_R   0.006374 0.812918 0.496993 0.002196
C133  C     C_R   0.688578 0.510151 0.000735 0.070433
C134  C     C_R   0.499343 0.687481 0.996511 0.032569
C135  C     C_R   0.311523 0.483664 0.998683 0.056754
C136  C     C_R   0.500617 0.312680 0.995655 0.042514
C137  C     C_R   0.313823 0.995499 0.500307 -0.019143
C138  C     C_R   0.005066 0.313186 0.513365 0.030093
C139  C     C_R   0.686076 0.003108 0.501696 0.003227
C140  C     C_R   0.998405 0.685794 0.499693 0.002873
C141  C     C_R   0.813875 0.494449 0.017266 0.021130
C142  C     C_R   0.499940 0.814550 0.999113 -0.004547
C143  C     C_R   0.186801 0.504516 0.016223 0.029084
C144  C     C_R   0.501129 0.185809 0.000145 0.014252
O33   O     O_R   0.999980 0.091600 0.546760 -0.604864
O34   O     O_R   0.908400 0.999980 0.546760 -0.586692
O35   O     O_R   0.000020 0.908400 0.546760 -0.573362
O36   O     O_R   0.091600 0.000020 0.546760 -0.583657
O37   O     O_R   0.000020 0.091600 0.453240 -0.567632
O38   O     O_R   0.091600 0.999980 0.453240 -0.569419
O39   O     O_R   0.999980 0.908400 0.453240 -0.582280
O40   O     O_R   0.908400 0.000020 0.453240 -0.587777
O41   O     O_R   0.499980 0.591600 0.046760 -0.579379
O42   O     O_R   0.408400 0.499980 0.046760 -0.572012
O43   O     O_R   0.500020 0.408400 0.046760 -0.580640
O44   O     O_R   0.591600 0.500020 0.046760 -0.574338
O45   O     O_R   0.500020 0.591600 0.953240 -0.567514
O46   O     O_R   0.591600 0.499980 0.953240 -0.559142
O47   O     O_R   0.499980 0.408400 0.953240 -0.583269
O48   O     O_R   0.408400 0.500020 0.953240 -0.562251
C145  C     C_R   0.993452 0.120737 0.499190 0.974604
C146  C     C_R   0.879292 0.996431 0.498808 0.960958
C147  C     C_R   0.003494 0.879480 0.499443 0.931827
C148  C     C_R   0.120665 0.001948 0.498975 0.950241
C149  C     C_R   0.500995 0.620798 0.999458 0.949628
C150  C     C_R   0.379426 0.491130 0.999606 0.954406
C151  C     C_R   0.498065 0.379250 0.999127 0.928751
C152  C     C_R   0.620993 0.504701 0.000089 0.952147
Zn9   Zn    Zn3+2 0.000000 0.000000 0.562420 1.170211
Zn10  Zn    Zn3+2 0.000000 0.000000 0.437580 1.307378
Zn11  Zn    Zn3+2 0.500000 0.500000 0.062420 1.213452
Zn12  Zn    Zn3+2 0.500000 0.500000 0.937580 1.287487
O49   O     O_3   0.327867 0.167735 0.627438 -0.595251
C153  C     C_3   0.361822 0.209516 0.593470 0.151729
H1    H     H_    0.359288 0.255124 0.614053 0.202229
H2    H     H_    0.343819 0.214816 0.549222 0.146605
C154  C     C_3   0.428880 0.190736 0.590971 -0.340716
H3    H     H_    0.447243 0.186033 0.634895 0.271504
H4    H     H_    0.431784 0.146047 0.569050 0.259303
C155  C     C_3   0.467920 0.237323 0.558616 -0.875934
H5    H     H_    0.450962 0.241867 0.514226 0.263310
H6    H     H_    0.516118 0.221961 0.557327 0.282525
H7    H     H_    0.466643 0.282489 0.580150 0.279123
O50   O     O_3   0.850803 0.317028 0.661605 -0.572589
C156  C     C_3   0.801623 0.348331 0.635978 0.152033
H8    H     H_    0.764409 0.351222 0.668002 0.220814
H9    H     H_    0.781521 0.323992 0.598322 0.136571
C157  C     C_3   0.821449 0.413260 0.619422 -0.355961
H10   H     H_    0.840378 0.437493 0.657371 0.275210
H11   H     H_    0.857614 0.411249 0.586380 0.235888
C158  C     C_3   0.767812 0.449211 0.595916 -0.856339
H12   H     H_    0.748699 0.426338 0.557358 0.259417
H13   H     H_    0.783828 0.495826 0.584132 0.278787
H14   H     H_    0.731304 0.453091 0.628520 0.288787
O51   O     O_3   0.681839 0.886016 0.676039 -0.574161
C159  C     C_3   0.648862 0.832955 0.658297 0.055754
H15   H     H_    0.641427 0.803748 0.696178 0.158906
H16   H     H_    0.674377 0.804667 0.626985 0.154891
C160  C     C_3   0.586063 0.849359 0.634296 -0.339731
H17   H     H_    0.561502 0.878015 0.665657 0.259107
H18   H     H_    0.592291 0.875501 0.594335 0.231565
C161  C     C_3   0.547368 0.792405 0.621327 -0.840080
H19   H     H_    0.570811 0.763273 0.589605 0.263830
H20   H     H_    0.502459 0.806013 0.603537 0.277809
H21   H     H_    0.539192 0.765808 0.660840 0.274984
O52   O     O_3   0.093334 0.683753 0.686446 -0.565506
C162  C     C_3   0.150821 0.655771 0.678650 0.123434
H22   H     H_    0.172699 0.651670 0.721155 0.186890
H23   H     H_    0.183257 0.683094 0.651968 0.157499
C163  C     C_3   0.142388 0.591803 0.653311 -0.411870
H24   H     H_    0.111943 0.564380 0.681399 0.247417
H25   H     H_    0.120867 0.595207 0.610593 0.233838
C164  C     C_3   0.203413 0.559517 0.647385 -0.772720
H26   H     H_    0.234686 0.585942 0.619138 0.264140
H27   H     H_    0.195513 0.513537 0.628479 0.282215
H28   H     H_    0.225272 0.554120 0.689766 0.298457
O53   O     O_3   0.694501 0.179270 0.395528 -0.580317
C165  C     C_3   0.688126 0.201473 0.339482 0.167687
H29   H     H_    0.640971 0.191089 0.324213 0.200389
H30   H     H_    0.720473 0.181579 0.308284 0.139473
C166  C     C_3   0.696503 0.270807 0.341155 -0.377329
H31   H     H_    0.661653 0.290683 0.369913 0.243042
H32   H     H_    0.742537 0.283063 0.358198 0.279083
C167  C     C_3   0.689673 0.298468 0.282301 -0.733268
H33   H     H_    0.725393 0.280708 0.253348 0.288253
H34   H     H_    0.695112 0.348844 0.285252 0.289219
H35   H     H_    0.643539 0.287311 0.264780 0.293190
O54   O     O_3   0.176045 0.309018 0.381785 -0.527195
C168  C     C_3   0.156497 0.357834 0.347226 0.134110
H36   H     H_    0.130987 0.391908 0.372894 0.113677
H37   H     H_    0.126069 0.341201 0.312112 0.157450
C169  C     C_3   0.212034 0.390549 0.321224 -0.373467
H38   H     H_    0.196110 0.430539 0.296579 0.205139
H39   H     H_    0.242814 0.407511 0.355772 0.250526
C170  C     C_3   0.247685 0.348808 0.281580 -0.543045
H40   H     H_    0.267176 0.310169 0.305730 0.296852
H41   H     H_    0.285867 0.375108 0.261741 0.240413
H42   H     H_    0.217350 0.330555 0.247354 0.288917
O55   O     O_3   0.298746 0.796529 0.413793 -0.567984
C171  C     C_3   0.303444 0.781040 0.355576 0.128218
H43   H     H_    0.320847 0.820147 0.329640 0.150976
H44   H     H_    0.258187 0.765588 0.338992 0.177304
C172  C     C_3   0.347874 0.728205 0.349697 -0.276704
H45   H     H_    0.392988 0.741716 0.368250 0.263925
H46   H     H_    0.329791 0.688159 0.373657 0.242371
C173  C     C_3   0.356827 0.710046 0.287576 -0.914958
H47   H     H_    0.312229 0.696938 0.267823 0.274254
H48   H     H_    0.387800 0.670440 0.285129 0.291580
H49   H     H_    0.377965 0.748514 0.263599 0.262390
O56   O     O_3   0.841902 0.687117 0.352091 -0.555124
C174  C     C_3   0.853053 0.703895 0.294589 0.171028
H50   H     H_    0.877069 0.665828 0.273251 0.204377
H51   H     H_    0.883830 0.744803 0.289477 0.124024
C175  C     C_3   0.791806 0.713670 0.263595 -0.287007
H52   H     H_    0.785347 0.678250 0.230084 0.244644
H53   H     H_    0.752758 0.708389 0.293519 0.284946
C176  C     C_3   0.788841 0.776724 0.236188 -0.689158
H54   H     H_    0.795499 0.813068 0.268751 0.285291
H55   H     H_    0.743372 0.782769 0.216019 0.302009
H56   H     H_    0.824831 0.781695 0.203165 0.255140
O57   O     O_3   0.833453 0.679499 0.126688 -0.603379
C177  C     C_3   0.861494 0.717692 0.085356 0.132735
H57   H     H_    0.861448 0.765122 0.102175 0.184824
H58   H     H_    0.836500 0.718860 0.043760 0.175525
C178  C     C_3   0.927980 0.699152 0.075810 -0.340765
H59   H     H_    0.953029 0.700182 0.117069 0.265067
H60   H     H_    0.928950 0.652054 0.058564 0.258737
C179  C     C_3   0.960421 0.741717 0.033948 -0.871590
H61   H     H_    0.936739 0.740482 0.992035 0.267729
H62   H     H_    0.008341 0.726788 0.027918 0.291349
H63   H     H_    0.961215 0.789236 0.050573 0.274443
O58   O     O_3   0.328912 0.828940 0.115839 -0.564915
C180  C     C_3   0.306559 0.812615 0.170188 0.143115
H64   H     H_    0.333701 0.837528 0.203185 0.182446
H65   H     H_    0.309268 0.763079 0.179633 0.142070
C181  C     C_3   0.239775 0.832230 0.173853 -0.306482
H66   H     H_    0.236860 0.881790 0.164434 0.254862
H67   H     H_    0.212151 0.806850 0.141525 0.278469
C182  C     C_3   0.212598 0.820245 0.232415 -0.812063
H68   H     H_    0.215424 0.771027 0.243036 0.269752
H69   H     H_    0.163687 0.833346 0.232473 0.315751
H70   H     H_    0.237218 0.848042 0.265048 0.248206
O59   O     O_3   0.168293 0.331296 0.142212 -0.578639
C183  C     C_3   0.137091 0.288909 0.106297 0.174766
H71   H     H_    0.133582 0.244964 0.129612 0.217158
H72   H     H_    0.161901 0.279008 0.065810 0.142836
C184  C     C_3   0.072233 0.310465 0.093120 -0.351891
H73   H     H_    0.047463 0.319065 0.133569 0.280003
H74   H     H_    0.074888 0.353561 0.068644 0.249334
C185  C     C_3   0.036278 0.263277 0.058110 -0.852347
H75   H     H_    0.059710 0.254702 0.016996 0.257286
H76   H     H_    0.989742 0.280604 0.049081 0.293637
H77   H     H_    0.031746 0.219771 0.081979 0.285313
O60   O     O_3   0.610547 0.201363 0.181060 -0.588031
C186  C     C_3   0.662756 0.164904 0.172149 0.115264
H78   H     H_    0.703384 0.190018 0.189285 0.191315
H79   H     H_    0.672000 0.153851 0.126474 0.134119
C187  C     C_3   0.655096 0.104794 0.204601 -0.350330
H80   H     H_    0.639254 0.114019 0.248612 0.262034
H81   H     H_    0.620008 0.075668 0.182964 0.247449
C188  C     C_3   0.714968 0.069967 0.207391 -0.834642
H82   H     H_    0.731328 0.059316 0.163792 0.273098
H83   H     H_    0.707454 0.026515 0.230741 0.293407
H84   H     H_    0.750555 0.097349 0.230249 0.287023
O61   O     O_3   0.216483 0.692175 0.906917 -0.526175
C189  C     C_3   0.169774 0.691588 0.865136 0.148039
H85   H     H_    0.129997 0.662357 0.878253 0.114836
H86   H     H_    0.187182 0.674272 0.823799 0.145831
C190  C     C_3   0.146842 0.756460 0.856654 -0.340689
H87   H     H_    0.110735 0.755826 0.823231 0.226324
H88   H     H_    0.126053 0.773082 0.896856 0.244557
C191  C     C_3   0.198497 0.800309 0.839056 -0.547763
H89   H     H_    0.232533 0.805652 0.874012 0.280118
H90   H     H_    0.179322 0.845800 0.829610 0.239120
H91   H     H_    0.221964 0.783082 0.800442 0.279918
O62   O     O_3   0.672292 0.832431 0.874650 -0.559919
C192  C     C_3   0.681158 0.808321 0.819136 0.146245
H92   H     H_    0.662319 0.841153 0.788091 0.210734
H93   H     H_    0.656707 0.763922 0.810846 0.121399
C193  C     C_3   0.749843 0.802031 0.807454 -0.312008
H94   H     H_    0.768756 0.846701 0.793059 0.262556
H95   H     H_    0.774668 0.789908 0.846949 0.280514
C194  C     C_3   0.762149 0.753113 0.762556 -0.697606
H96   H     H_    0.746232 0.707550 0.777142 0.283964
H97   H     H_    0.812069 0.750886 0.754161 0.305203
H98   H     H_    0.737799 0.763612 0.722511 0.258583
O63   O     O_3   0.805479 0.310303 0.904464 -0.529372
C195  C     C_3   0.858145 0.327193 0.872819 0.137040
H99   H     H_    0.892208 0.351664 0.900376 0.130214
H100  H     H_    0.846251 0.357557 0.836556 0.147077
C196  C     C_3   0.888654 0.270163 0.849302 -0.393454
H101  H     H_    0.932291 0.283783 0.828245 0.201353
H102  H     H_    0.899580 0.238772 0.884857 0.250870
C197  C     C_3   0.847808 0.236968 0.806000 -0.531144
H103  H     H_    0.805271 0.219707 0.826649 0.299438
H104  H     H_    0.872611 0.197592 0.787876 0.234623
H105  H     H_    0.835564 0.268281 0.770849 0.291276
O64   O     O_3   0.358266 0.150530 0.862332 -0.603929
C198  C     C_3   0.339741 0.159040 0.805243 0.193513
H106  H     H_    0.368965 0.130750 0.777304 0.214395
H107  H     H_    0.343686 0.206966 0.789944 0.153785
C199  C     C_3   0.273322 0.136317 0.799568 -0.363051
H108  H     H_    0.269397 0.088864 0.815939 0.246956
H109  H     H_    0.243079 0.165551 0.825525 0.275289
C200  C     C_3   0.251229 0.137071 0.738125 -0.763504
H110  H     H_    0.256807 0.183614 0.720265 0.316780
H111  H     H_    0.202014 0.123649 0.736250 0.264784
H112  H     H_    0.277526 0.103981 0.712495 0.296488
N1    N     N_R   0.365022 0.911948 0.404950 0.199075
O65   O     O_R   0.371792 0.958644 0.371411 -0.450470
O66   O     O_R   0.403418 0.867271 0.401613 -0.359756
N2    N     N_R   0.141733 0.337997 0.495980 0.292941
O67   O     O_R   0.186121 0.372004 0.476142 -0.339620
O68   O     O_R   0.134815 0.334497 0.550921 -0.234833
N3    N     N_R   0.634034 0.053229 0.388765 0.179107
O69   O     O_R   0.629413 0.995961 0.374231 -0.428963
O70   O     O_R   0.600899 0.092692 0.361912 -0.421147
N4    N     N_R   0.955388 0.632834 0.384287 0.198118
O71   O     O_R   0.013869 0.628432 0.374861 -0.393473
O72   O     O_R   0.917624 0.597454 0.356125 -0.358327
N5    N     N_R   0.649251 0.001040 0.625909 0.198995
O73   O     O_R   0.647019 0.057279 0.608475 -0.330205
O74   O     O_R   0.628795 0.989566 0.676758 -0.350171
N6    N     N_R   0.971878 0.355567 0.629811 0.198138
O75   O     O_R   0.030886 0.360724 0.623277 -0.346075
O76   O     O_R   0.948535 0.379203 0.675565 -0.389973
N7    N     N_R   0.356447 0.040295 0.616807 0.198254
O77   O     O_R   0.356664 0.980970 0.619524 -0.392306
O78   O     O_R   0.385257 0.070918 0.656441 -0.406185
N8    N     N_R   0.984479 0.649989 0.623807 0.204836
O79   O     O_R   0.929965 0.648991 0.601261 -0.337706
O80   O     O_R   0.989638 0.629264 0.675354 -0.364998
N9    N     N_R   0.832989 0.356767 0.016822 0.270597
O81   O     O_R   0.860396 0.306479 0.003326 -0.355245
O82   O     O_R   0.831854 0.372967 0.070177 -0.257710
N10   N     N_R   0.544608 0.863224 0.883911 0.191254
O83   O     O_R   0.485396 0.862445 0.877156 -0.422343
O84   O     O_R   0.577654 0.896133 0.849318 -0.377866
N11   N     N_R   0.168730 0.640803 0.008077 0.290502
O85   O     O_R   0.135253 0.685389 0.990045 -0.368948
O86   O     O_R   0.168484 0.628248 0.062190 -0.246947
N12   N     N_R   0.492267 0.142152 0.874054 0.190908
O87   O     O_R   0.549652 0.138130 0.888471 -0.355519
O88   O     O_R   0.477121 0.126530 0.822393 -0.416118
N13   N     N_R   0.136711 0.456681 0.125059 0.192491
O89   O     O_R   0.136951 0.516007 0.128084 -0.372314
O90   O     O_R   0.107047 0.426654 0.164222 -0.407563
N14   N     N_R   0.458317 0.858246 0.115611 0.195711
O91   O     O_R   0.517688 0.860380 0.120869 -0.395281
O92   O     O_R   0.425832 0.889537 0.151300 -0.389163
N15   N     N_R   0.865990 0.552665 0.121349 0.199621
O93   O     O_R   0.864999 0.494184 0.130976 -0.375855
O94   O     O_R   0.898583 0.587335 0.155248 -0.390968
N16   N     N_R   0.502637 0.152708 0.126311 0.202384
O95   O     O_R   0.445988 0.147140 0.109451 -0.334430
O96   O     O_R   0.516060 0.131610 0.176369 -0.374653
N17   N     N_R   0.169639 0.810058 0.398558 0.242007
O97   O     O_R   0.143967 0.807067 0.348633 -0.328064
O98   O     O_R   0.168079 0.762134 0.431090 -0.317250
N18   N     N_R   0.114302 0.216780 0.321341 0.257474
O99   O     O_R   0.076529 0.219322 0.278509 -0.330740
O100  O     O_R   0.171797 0.205880 0.311849 -0.271929
N19   N     N_R   0.819771 0.159540 0.359931 0.261421
O101  O     O_R   0.834439 0.152765 0.306658 -0.332311
O102  O     O_R   0.830049 0.211743 0.384972 -0.321360
N20   N     N_R   0.821620 0.811545 0.387129 0.249153
O103  O     O_R   0.819085 0.870070 0.395612 -0.277720
O104  O     O_R   0.770250 0.781254 0.381303 -0.333167
N21   N     N_R   0.796365 0.839832 0.650759 0.236323
O105  O     O_R   0.827010 0.854667 0.696414 -0.343708
O106  O     O_R   0.801738 0.785344 0.629345 -0.339486
N22   N     N_R   0.804804 0.204252 0.624260 0.262841
O107  O     O_R   0.793218 0.204552 0.678545 -0.324843
O108  O     O_R   0.761655 0.188092 0.588702 -0.288087
N23   N     N_R   0.220671 0.211096 0.577264 0.269551
O109  O     O_R   0.215937 0.235976 0.627365 -0.309365
O110  O     O_R   0.222358 0.245592 0.532402 -0.309457
N24   N     N_R   0.148507 0.797078 0.663570 0.248012
O111  O     O_R   0.137665 0.801406 0.717804 -0.371862
O112  O     O_R   0.201717 0.814181 0.643919 -0.306376
N25   N     N_R   0.717142 0.365900 0.836728 0.254306
O113  O     O_R   0.721178 0.399761 0.791448 -0.350212
O114  O     O_R   0.705471 0.307786 0.831062 -0.279489
N26   N     N_R   0.708609 0.717862 0.915414 0.247131
O115  O     O_R   0.722977 0.677688 0.877026 -0.328137
O116  O     O_R   0.751515 0.742732 0.946687 -0.377500
N27   N     N_R   0.295658 0.626197 0.835392 0.245224
O117  O     O_R   0.288475 0.595946 0.788034 -0.374497
O118  O     O_R   0.317032 0.681933 0.833846 -0.295826
N28   N     N_R   0.314680 0.272950 0.874564 0.242459
O119  O     O_R   0.307798 0.314033 0.835312 -0.281259
O120  O     O_R   0.266770 0.250161 0.900072 -0.345599
N29   N     N_R   0.291144 0.304593 0.130185 0.277263
O121  O     O_R   0.334706 0.310628 0.167762 -0.291382
O122  O     O_R   0.268507 0.250497 0.119484 -0.320842
N30   N     N_R   0.290572 0.712267 0.079370 0.258361
O123  O     O_R   0.273076 0.675017 0.119390 -0.315126
O124  O     O_R   0.249681 0.741768 0.050568 -0.298529
N31   N     N_R   0.709189 0.700555 0.119375 0.263222
O125  O     O_R   0.671455 0.696946 0.162061 -0.311160
O126  O     O_R   0.726153 0.753916 0.100487 -0.359568
N32   N     N_R   0.665731 0.308650 0.141248 0.249394
O127  O     O_R   0.655958 0.357283 0.171594 -0.320721
O128  O     O_R   0.721639 0.291803 0.131765 -0.331150
N33   N     N_R   0.147968 0.944255 0.376991 0.227029
O129  O     O_R   0.163012 0.996344 0.354023 -0.300230
O130  O     O_R   0.097664 0.916830 0.360891 -0.254186
N34   N     N_R   0.008011 0.162447 0.369490 0.257184
O131  O     O_R   0.949370 0.170165 0.365821 -0.268455
O132  O     O_R   0.033266 0.118691 0.340699 -0.240227
N35   N     N_R   0.849304 0.028288 0.366296 0.242527
O133  O     O_R   0.830247 0.978392 0.341504 -0.291090
O134  O     O_R   0.899069 0.054961 0.348032 -0.238488
N36   N     N_R   0.959709 0.845820 0.370702 0.219675
O135  O     O_R   0.010885 0.827264 0.348965 -0.289160
O136  O     O_R   0.929789 0.888343 0.344651 -0.276920
N37   N     N_R   0.861249 0.883515 0.556572 0.213044
O137  O     O_R   0.900276 0.868437 0.595830 -0.298537
O138  O     O_R   0.865986 0.859809 0.506247 -0.429141
N38   N     N_R   0.872966 0.135796 0.546072 0.201327
O139  O     O_R   0.849908 0.097684 0.582926 -0.335929
O140  O     O_R   0.859942 0.129099 0.492568 -0.444068
N39   N     N_R   0.143062 0.130027 0.517142 0.190918
O141  O     O_R   0.108644 0.164322 0.548568 -0.370701
O142  O     O_R   0.134246 0.128293 0.462400 -0.397983
N40   N     N_R   0.110019 0.863977 0.569389 0.219468
O143  O     O_R   0.114796 0.903544 0.610685 -0.307976
O144  O     O_R   0.145839 0.869249 0.525796 -0.438651
N41   N     N_R   0.666034 0.477016 0.874109 0.263346
O145  O     O_R   0.684186 0.530597 0.856801 -0.261660
O146  O     O_R   0.619849 0.450083 0.848760 -0.276861
N42   N     N_R   0.607609 0.634812 0.926914 0.215786
O147  O     O_R   0.584248 0.614313 0.879391 -0.294872
O148  O     O_R   0.657230 0.610232 0.945306 -0.387704
N43   N     N_R   0.329883 0.506566 0.870342 0.264191
O149  O     O_R   0.305482 0.454520 0.855056 -0.258737
O150  O     O_R   0.377471 0.527585 0.842975 -0.260250
N44   N     N_R   0.394160 0.360771 0.921739 0.215530
O151  O     O_R   0.412818 0.393812 0.879059 -0.277150
O152  O     O_R   0.342150 0.373734 0.945114 -0.374333
N45   N     N_R   0.368492 0.385481 0.073167 0.206172
O153  O     O_R   0.400478 0.407357 0.115610 -0.321437
O154  O     O_R   0.385207 0.333928 0.051151 -0.376424
N46   N     N_R   0.373854 0.637447 0.022259 0.188770
O155  O     O_R   0.340085 0.601592 0.053512 -0.360235
O156  O     O_R   0.375237 0.629326 0.967491 -0.421131
N47   N     N_R   0.631131 0.608562 0.078653 0.216330
O157  O     O_R   0.606276 0.583140 0.123157 -0.307606
O158  O     O_R   0.607881 0.659123 0.060688 -0.392668
N48   N     N_R   0.624898 0.357795 0.033981 0.198014
O159  O     O_R   0.661814 0.393671 0.062451 -0.321647
O160  O     O_R   0.627562 0.358374 0.978681 -0.430432

loop_
_geom_bond_atom_site_label_1
_geom_bond_atom_site_label_2
_geom_bond_distance
_ccdc_geom_bond_type
C192  H92   1.109081 S    
C3    C139  1.447190 S    
C90   C106  1.436437 A    
C84   N36   1.435845 S    
N13   O89   1.301680 A    
C174  H50   1.111162 S    
C77   C93   1.412604 A    
C10   C18   1.417914 S    
N30   O124  1.300439 A    
N17   O97   1.299500 A    
C199  H108  1.111969 S    
C14   C22   1.418054 S    
C91   N43   1.432448 S    
C86   N38   1.422190 S    
C89   N41   1.432467 S    
O18   Zn2   1.981457 S    
C70   N22   1.437480 S    
C58   C74   1.391205 A    
C87   N39   1.428361 S    
C163  H25   1.110150 S    
C156  C157  1.532259 S    
O25   C13   1.292012 A    
O34   C146  1.293389 A    
N48   O159  1.299377 A    
C117  C139  1.408860 A    
C193  H94   1.110416 S    
C47   C127  1.419109 A    
N31   O125  1.301144 A    
C74   N26   1.433869 S    
C183  H71   1.111079 S    
C48   C128  1.417833 A    
C46   C126  1.418102 A    
C161  H20   1.110512 S    
C48   N16   1.445958 S    
C104  C120  1.401263 A    
C47   N15   1.441962 S    
C89   C105  1.431227 A    
C179  H63   1.110775 S    
C75   N27   1.434849 S    
C102  C130  1.434337 A    
C98   C114  1.396069 A    
C163  C164  1.525100 S    
N9    O82   1.301835 A    
C74   C90   1.409098 A    
O5    Zn1   2.042503 S    
O39   C147  1.261348 A    
C68   C84   1.400655 A    
O6    C2    1.274886 A    
C79   N31   1.435275 S    
C195  H99   1.114525 S    
C96   C112  1.419298 A    
C113  C137  1.426128 A    
N39   O142  1.300024 A    
C169  H39   1.111564 S    
C161  H21   1.110868 S    
C185  H75   1.110893 S    
C123  C143  1.403989 A    
O59   C183  1.417794 S    
C125  C143  1.414700 A    
C51   C67   1.400163 A    
N6    O76   1.300237 A    
C44   N12   1.439567 S    
N2    O68   1.302067 A    
O17   C9    1.292693 A    
C186  H79   1.118646 S    
C65   N17   1.433247 S    
N40   O143  1.301750 A    
O57   C177  1.417679 S    
O46   C152  1.275569 A    
C181  H66   1.111859 S    
C109  C135  1.445095 A    
C132  C147  1.461906 S    
N38   O140  1.295177 A    
C62   O58   1.386867 S    
N42   O147  1.301696 A    
C97   C113  1.404724 A    
C87   C103  1.424118 A    
C171  H43   1.115398 S    
C69   N21   1.427468 S    
C88   C104  1.430840 A    
O40   Zn10  2.034522 S    
C100  C116  1.404706 A    
C47   C63   1.396751 A    
C101  C117  1.401788 A    
N27   O118  1.301133 A    
C23   C31   1.194782 T    
O26   Zn6   1.981457 S    
C192  C193  1.533586 S    
N32   O128  1.300543 A    
C168  H37   1.114450 S    
N1    O65   1.300238 A    
C57   O63   1.382424 S    
O33   Zn9   2.041913 S    
O27   C13   1.291833 A    
O8    Zn2   2.037378 S    
O31   C15   1.291056 A    
C162  C163  1.529295 S    
C1    C137  1.448391 S    
O32   C16   1.290174 A    
N20   O104  1.300828 A    
C173  H49   1.110298 S    
C71   N23   1.429244 S    
N28   O119  1.300893 A    
C90   N42   1.415049 S    
C85   N37   1.427905 S    
N44   O151  1.301014 A    
C33   C49   1.403795 A    
C45   C125  1.421006 A    
N10   O83   1.302012 A    
C34   C50   1.406502 A    
O38   Zn10  2.032694 S    
C173  H48   1.110248 S    
C116  C140  1.415784 A    
O38   C148  1.246596 A    
C175  H52   1.110787 S    
C105  C121  1.389806 A    
C38   C54   1.407404 A    
C169  C170  1.526635 S    
C111  C127  1.419763 A    
C106  C134  1.444102 A    
O11   C7    1.309605 A    
N34   O131  1.296909 A    
O19   Zn3   1.982015 S    
C102  C118  1.414903 A    
C158  H14   1.110871 S    
C118  C138  1.409390 A    
C187  H81   1.110326 S    
O16   Zn6   2.037378 S    
N19   O102  1.300601 A    
C40   C120  1.423022 A    
N26   O115  1.300594 A    
O7    Zn3   2.042505 S    
C186  H78   1.110354 S    
O4    C4    1.297088 A    
C35   C115  1.419768 A    
O34   Zn9   2.032679 S    
C52   O56   1.385853 S    
N23   O110  1.299154 A    
C91   C107  1.423324 A    
O6    Zn4   2.037378 S    
O64   C198  1.413475 S    
C195  C196  1.527984 S    
C59   O61   1.381449 S    
O15   Zn7   2.042505 S    
C200  H111  1.110291 S    
C182  H69   1.110322 S    
C190  H87   1.111086 S    
N11   O85   1.300946 A    
C126  C142  1.405246 A    
O9    C5    1.311749 A    
N5    O73   1.301534 A    
N15   O94   1.301317 A    
O21   Zn1   1.982013 S    
N25   O113  1.301203 A    
C66   N18   1.435907 S    
C108  C136  1.442503 A    
O23   C11   1.289870 A    
C181  C182  1.521443 S    
C83   N35   1.434203 S    
C181  H67   1.110789 S    
C174  H51   1.118653 S    
O37   C145  1.261875 A    
O56   C174  1.421550 S    
C58   O62   1.387414 S    
O37   Zn10  2.039502 S    
C183  C184  1.531238 S    
C164  H26   1.110825 S    
C153  H2    1.117342 S    
C180  H65   1.111124 S    
C110  C126  1.396430 A    
C191  H91   1.110860 S    
C83   C99   1.438095 A    
C101  C131  1.423295 A    
N38   O139  1.301481 A    
O13   C7    1.287362 A    
C92   N44   1.419798 S    
O53   C165  1.412324 S    
C81   C97   1.430060 A    
C43   N11   1.444728 S    
C197  H103  1.110480 S    
C120  C140  1.410390 A    
O2    Zn2   2.049333 S    
C19   C27   1.194517 T    
C52   C68   1.399461 A    
C61   O59   1.384434 S    
C85   C101  1.427520 A    
C167  H33   1.110371 S    
O7    C1    1.278502 A    
O17   Zn1   1.979541 S    
O28   C14   1.291803 A    
O26   C14   1.286438 A    
O29   C15   1.292971 A    
O46   Zn12  2.032694 S    
O30   C16   1.288036 A    
C78   C94   1.417860 A    
C35   C51   1.395225 A    
O29   Zn5   1.982013 S    
C172  C173  1.525048 S    
C54   O50   1.385481 S    
C176  H55   1.109011 S    
C155  H5    1.110922 S    
C48   C64   1.413247 A    
C179  H62   1.110548 S    
C60   O64   1.387530 S    
C188  H83   1.110539 S    
N36   O136  1.300332 A    
O41   C149  1.284040 A    
N24   O111  1.299750 A    
C42   C58   1.400547 A    
C108  C124  1.404055 A    
C170  H42   1.109815 S    
C109  C125  1.423960 A    
N6    O75   1.301083 A    
C184  H74   1.108044 S    
O60   C186  1.418110 S    
C169  H38   1.111789 S    
C198  C199  1.531100 S    
C42   C122  1.424293 A    
N21   O106  1.301270 A    
C154  H3    1.111663 S    
O36   C148  1.291289 A    
N42   O148  1.291723 A    
N37   O138  1.294673 A    
C197  H105  1.110211 S    
C36   N4    1.430820 S    
O44   C152  1.275301 A    
C7    C143  1.479185 S    
N33   O129  1.301864 A    
C64   O60   1.384528 S    
C189  H86   1.111443 S    
N15   O93   1.301898 A    
C76   C92   1.417345 A    
C99   C115  1.402701 A    
O51   C159  1.418654 S    
C196  C197  1.526034 S    
C66   C82   1.412902 A    
C160  H18   1.108794 S    
C99   C131  1.440736 A    
N45   O154  1.298920 A    
N8    O79   1.301401 A    
C70   C86   1.411104 A    
N46   O156  1.298624 A    
C178  H59   1.111586 S    
C190  C191  1.528541 S    
O32   Zn6   1.979572 S    
C53   O51   1.384950 S    
N12   O87   1.301528 A    
C194  H98   1.105977 S    
N4    O72   1.300734 A    
C190  H88   1.111578 S    
N43   O149  1.300136 A    
C46   C62   1.397663 A    
C67   N19   1.428521 S    
C193  H95   1.108487 S    
N14   O91   1.301983 A    
O18   C10   1.291827 A    
C189  C190  1.528249 S    
C69   C85   1.404006 A    
O22   Zn4   1.981455 S    
O52   C162  1.417823 S    
O23   Zn3   1.979544 S    
N22   O107  1.300594 A    
C166  C167  1.519255 S    
N39   O141  1.300653 A    
C77   N29   1.438241 S    
O20   Zn4   1.979580 S    
C8    C144  1.447628 S    
N29   O122  1.300521 A    
C187  C188  1.525671 S    
O12   C8    1.287888 A    
O1    C1    1.303023 A    
C159  C160  1.529850 S    
C38   N6    1.445983 S    
C27   C30   1.393142 S    
O14   C6    1.281513 A    
C131  C146  1.465037 S    
C165  H29   1.109316 S    
C54   C70   1.398215 A    
C6    C142  1.442222 S    
C177  H58   1.118489 S    
C107  C123  1.391367 A    
C129  C148  1.459382 S    
C167  H35   1.110485 S    
C156  H9    1.116638 S    
C133  C152  1.478643 S    
N48   O160  1.300502 A    
N7    O78   1.300784 A    
C121  C141  1.406141 A    
O30   Zn8   1.981455 S    
C2    C138  1.480175 S    
N26   O116  1.300684 A    
N21   O105  1.300198 A    
C49   C65   1.399776 A    
C172  H45   1.111552 S    
C193  C194  1.528620 S    
C45   N13   1.443614 S    
C53   C69   1.394138 A    
N9    O81   1.301070 A    
N35   O134  1.300019 A    
O45   C149  1.258264 A    
C170  H40   1.110553 S    
C60   C76   1.402828 A    
C171  C172  1.528520 S    
C67   C83   1.409254 A    
O50   C156  1.417419 S    
C157  H11   1.109898 S    
N16   O95   1.301557 A    
C45   C61   1.401526 A    
C198  H106  1.110976 S    
O49   C153  1.417952 S    
O10   C6    1.289517 A    
C154  C155  1.525416 S    
C106  C122  1.404216 A    
C185  H76   1.110608 S    
N11   O86   1.301410 A    
C160  H17   1.111000 S    
C33   N1    1.429962 S    
C15   C23   1.418628 S    
N41   O145  1.300015 A    
C107  C135  1.429087 A    
C16   C24   1.417053 S    
C98   C130  1.431463 A    
N40   O144  1.294402 A    
C196  H101  1.111659 S    
O35   C147  1.280616 A    
C49   O55   1.385971 S    
N18   O99   1.301224 A    
C39   N7    1.443770 S    
O47   Zn12  2.041899 S    
O33   C145  1.297431 A    
C157  H10   1.111460 S    
C177  H57   1.110685 S    
O31   Zn7   1.979544 S    
C28   C29   1.393538 S    
C185  H77   1.110783 S    
C191  H90   1.110261 S    
O48   C150  1.274834 A    
C194  H96   1.107615 S    
C93   N45   1.423114 S    
C162  H23   1.115325 S    
N23   O109  1.300386 A    
C192  H93   1.118525 S    
C43   C59   1.409235 A    
C168  H36   1.115072 S    
O21   C11   1.293717 A    
N13   O90   1.300789 A    
O22   C12   1.288093 A    
C56   O52   1.386206 S    
N30   O123  1.301093 A    
C112  C128  1.393714 A    
C115  C139  1.410218 A    
O13   Zn5   2.042503 S    
N17   O98   1.300861 A    
C82   C98   1.431222 A    
C175  C176  1.528512 S    
C128  C144  1.407560 A    
O3    Zn3   2.030509 S    
C157  C158  1.525219 S    
N44   O152  1.297799 A    
C199  C200  1.520798 S    
C163  H24   1.109204 S    
C36   C116  1.429955 A    
C79   C95   1.414120 A    
C80   C96   1.414678 A    
C44   C60   1.393497 A    
C50   O54   1.382741 S    
C39   C55   1.403450 A    
C51   O53   1.386055 S    
C164  H28   1.110388 S    
O36   Zn9   2.034509 S    
C26   C31   1.393748 S    
C72   N24   1.434385 S    
N34   O132  1.302079 A    
O58   C180  1.412962 S    
C158  H13   1.110524 S    
O48   Zn12  2.034522 S    
C50   C66   1.401454 A    
C73   C89   1.415202 A    
C46   N14   1.440439 S    
C114  C138  1.413278 A    
O9    Zn5   2.030513 S    
C25   C32   1.393167 S    
O11   Zn7   2.030509 S    
N41   O146  1.302062 A    
C200  H110  1.109127 S    
N47   O158  1.297489 A    
C43   C123  1.420647 A    
C41   C121  1.416973 A    
C84   C100  1.429018 A    
C17   C25   1.194118 T    
N2    O67   1.301239 A    
N43   O150  1.301924 A    
C34   N2    1.445587 S    
C186  C187  1.531126 S    
N3    O69   1.301748 A    
C183  H72   1.118015 S    
C103  C119  1.395593 A    
O5    C3    1.284516 A    
C104  C132  1.430422 A    
C155  H6    1.110512 S    
C61   C77   1.392115 A    
O55   C171  1.412253 S    
C9    C17   1.417793 S    
C184  H73   1.111501 S    
O45   Zn12  2.039502 S    
C180  H64   1.111078 S    
C166  H31   1.111907 S    
C12   C20   1.416782 S    
C95   C111  1.442470 A    
C59   C75   1.407517 A    
C13   C21   1.416099 S    
C86   C102  1.425355 A    
C94   N46   1.422560 S    
C197  H104  1.110308 S    
C72   C88   1.408187 A    
C182  H68   1.110468 S    
O43   C151  1.286788 A    
O54   C168  1.415658 S    
C20   C28   1.195147 T    
C167  H34   1.110322 S    
N32   O127  1.300949 A    
C168  C169  1.528479 S    
N1    O66   1.301412 A    
C135  C150  1.489128 S    
N10   O84   1.300402 A    
C64   C80   1.405442 A    
C94   C110  1.427808 A    
O14   Zn8   2.037378 S    
N20   O103  1.299295 A    
C111  C133  1.451231 A    
C37   N5    1.446105 S    
C172  H46   1.111756 S    
C42   N10   1.438878 S    
C176  H54   1.110017 S    
O63   C195  1.415745 S    
C95   N47   1.423574 S    
C4    C140  1.446879 S    
C75   C91   1.413199 A    
C188  H82   1.110760 S    
C159  H15   1.108531 S    
C5    C141  1.475134 S    
C56   C72   1.398220 A    
C177  C178  1.530617 S    
C34   C114  1.422808 A    
O8    C4    1.277476 A    
N24   O112  1.301244 A    
O4    Zn4   2.049329 S    
O28   Zn8   1.979580 S    
C136  C151  1.462749 S    
C170  H41   1.110261 S    
C171  H44   1.108741 S    
C122  C142  1.408704 A    
C78   N30   1.430916 S    
C173  H47   1.110803 S    
N28   O120  1.300406 A    
C198  H107  1.113250 S    
N47   O157  1.301786 A    
C159  H16   1.116119 S    
C80   N32   1.429323 S    
N37   O137  1.301051 A    
C130  C145  1.493901 S    
O42   Zn11  2.032679 S    
O44   Zn11  2.034509 S    
C18   C26   1.194527 T    
C96   N48   1.438586 S    
C196  H102  1.111605 S    
C134  C149  1.464137 S    
N7    O77   1.301896 A    
C40   C56   1.407052 A    
N45   O153  1.301557 A    
N8    O80   1.299820 A    
C44   C124  1.410885 A    
C200  H112  1.109115 S    
C24   C32   1.194510 T    
C182  H70   1.109895 S    
C100  C132  1.433754 A    
C35   N3    1.430528 S    
C191  H89   1.110708 S    
N12   O88   1.300239 A    
C194  H97   1.109975 S    
C22   C30   1.194735 T    
C119  C137  1.412197 A    
N5    O74   1.300136 A    
N14   O92   1.300336 A    
C161  H19   1.110862 S    
N25   O114  1.301043 A    
O25   Zn5   1.979541 S    
O42   C150  1.286751 A    
C38   C118  1.422243 A    
O27   Zn7   1.982015 S    
C92   C108  1.439349 A    
O35   Zn9   2.039516 S    
C174  C175  1.539352 S    
C93   C109  1.438751 A    
C103  C129  1.415360 A    
N22   O108  1.301531 A    
C166  H32   1.109622 S    
C153  H1    1.111012 S    
C180  C181  1.529399 S    
C178  H60   1.108025 S    
N29   O121  1.300849 A    
C165  H30   1.111881 S    
O43   Zn11  2.039516 S    
C195  H100  1.115315 S    
C124  C144  1.407854 A    
O19   C9    1.291433 A    
C164  H27   1.110516 S    
N27   O117  1.300900 A    
C63   O57   1.383323 S    
N35   O133  1.299135 A    
C178  C179  1.525468 S    
O3    C3    1.295733 A    
O47   C151  1.255185 A    
C156  H8    1.111064 S    
O24   C12   1.289948 A    
C65   C81   1.405527 A    
C40   N8    1.446391 S    
O24   Zn2   1.979572 S    
O12   Zn8   2.049329 S    
C36   C52   1.411462 A    
C76   N28   1.432569 S    
C110  C134  1.434027 A    
C105  C133  1.429321 A    
C71   C87   1.411336 A    
C55   O49   1.385297 S    
C176  H56   1.109937 S    
C165  C166  1.527783 S    
C57   C73   1.404449 A    
C41   N9    1.446571 S    
C82   N34   1.430679 S    
C179  H61   1.110937 S    
C37   C53   1.406577 A    
C188  H84   1.110353 S    
C21   C29   1.194383 T    
N36   O135  1.300299 A    
C199  H109  1.109602 S    
C97   C129  1.429695 A    
C63   C79   1.389790 A    
O2    C2    1.316843 A    
C153  C154  1.528480 S    
C62   C78   1.402063 A    
C184  C185  1.525414 S    
N16   O96   1.299379 A    
C162  H22   1.110254 S    
N31   O126  1.300660 A    
C11   C19   1.416672 S    
C154  H4    1.107698 S    
N19   O101  1.301081 A    
N33   O130  1.298403 A    
C55   C71   1.398166 A    
C175  H53   1.111197 S    
N3    O70   1.300200 A    
C68   N20   1.440557 S    
C189  H85   1.115503 S    
C127  C141  1.407979 A    
C41   C57   1.407728 A    
C39   C119  1.422411 A    
O20   C10   1.287950 A    
O62   C192  1.420188 S    
N18   O100  1.301323 A    
C160  C161  1.525330 S    
C155  H7    1.110791 S    
O10   Zn6   2.049333 S    
O41   Zn11  2.041913 S    
C81   N33   1.436525 S    
O39   Zn10  2.041899 S    
C112  C136  1.423775 A    
O15   C5    1.282287 A    
N46   O155  1.299160 A    
O16   C8    1.287666 A    
C187  H80   1.109889 S    
C33   C113  1.431631 A    
C158  H12   1.110883 S    
O40   C146  1.248253 A    
N4    O71   1.301566 A    
O61   C189  1.413453 S    
O1    Zn1   2.030513 S    
C88   N40   1.423705 S    
C37   C117  1.423094 A    
C73   N25   1.436408 S    
