data_mof_unit_46731.cif
_audit_creation_date              2012-12-11T16:19:13-0500
_audit_creation_method            fapswitch 2.2
_symmetry_space_group_name_H-M    P1
_symmetry_Int_Tables_number       1
_space_group_crystal_system       triclinic
_cell_length_a                    6.994336
_cell_length_b                    31.340598
_cell_length_c                    34.985193
_cell_angle_alpha                 90.000252
_cell_angle_beta                  89.999447
_cell_angle_gamma                 90.000909
_cell_volume                      7668.98775525

loop_
_atom_site_label
_atom_site_type_symbol
_atom_type_description
_atom_site_fract_x
_atom_site_fract_y
_atom_site_fract_z
_atom_type_partial_charge
O1    O     O_R   0.417270 0.211480 0.210950 -0.535496
O2    O     O_R   0.582730 0.788520 0.789050 -0.539413
O3    O     O_R   0.582730 0.788520 0.710950 -0.535501
O4    O     O_R   0.417270 0.211480 0.289050 -0.539412
O5    O     O_R   0.917270 0.288520 0.289050 -0.535497
O6    O     O_R   0.082730 0.711480 0.710950 -0.539414
O7    O     O_R   0.082730 0.711480 0.789050 -0.535495
O8    O     O_R   0.917270 0.288520 0.210950 -0.539416
O9    O     O_R   0.746940 0.206370 0.288750 -0.539410
O10   O     O_R   0.253060 0.793630 0.711250 -0.541421
O11   O     O_R   0.253060 0.793630 0.788750 -0.539416
O12   O     O_R   0.746940 0.206370 0.211250 -0.541419
O13   O     O_R   0.246940 0.293630 0.211250 -0.539418
O14   O     O_R   0.753060 0.706370 0.788750 -0.541418
O15   O     O_R   0.753060 0.706370 0.711250 -0.539417
O16   O     O_R   0.246940 0.293630 0.288750 -0.541420
C1    C     C_R   0.578012 0.196056 0.301919 0.709729
C2    C     C_R   0.421888 0.803972 0.698176 0.709000
C3    C     C_R   0.421987 0.803945 0.801919 0.709738
C4    C     C_R   0.578113 0.196027 0.198176 0.708995
C5    C     C_R   0.078015 0.303945 0.198081 0.709730
C6    C     C_R   0.921885 0.696027 0.801824 0.708997
C7    C     C_R   0.921986 0.696055 0.698081 0.709734
C8    C     C_R   0.078114 0.303972 0.301824 0.708995
O17   O     O_3   0.583760 0.276950 0.250000 -0.369258
O18   O     O_3   0.416240 0.723050 0.750000 -0.369254
O19   O     O_3   0.083760 0.223050 0.250000 -0.369250
O20   O     O_3   0.916240 0.776950 0.750000 -0.369257
V1    V     V_3+5 0.858600 0.245000 0.250000 1.402566
V2    V     V_3+5 0.141400 0.755000 0.750000 1.402547
V3    V     V_3+5 0.358600 0.255000 0.250000 1.402558
V4    V     V_3+5 0.641400 0.745000 0.750000 1.402551
C9    C     C_R   0.994135 0.587602 0.538638 0.550099
C10   C     C_R   0.032209 0.411811 0.461872 0.546975
C11   C     C_R   0.005858 0.412397 0.038638 0.550103
C12   C     C_R   0.967774 0.588188 0.961872 0.546974
C13   C     C_R   0.494155 0.912396 0.961362 0.550101
C14   C     C_R   0.532210 0.088187 0.038129 0.546976
C15   C     C_R   0.506031 0.087607 0.461367 0.550088
C16   C     C_R   0.467579 0.911813 0.538122 0.546956
N1    N     N_R   0.979419 0.573124 0.575581 -0.553708
N2    N     N_R   0.043024 0.426312 0.424887 -0.555073
N3    N     N_R   0.020566 0.426876 0.075581 -0.553706
N4    N     N_R   0.956971 0.573687 0.924888 -0.555071
N5    N     N_R   0.479462 0.926875 0.924419 -0.553706
N6    N     N_R   0.543007 0.073686 0.075114 -0.555073
N7    N     N_R   0.520552 0.073130 0.424421 -0.553716
N8    N     N_R   0.456951 0.926312 0.575110 -0.555062
C17   C     C_R   0.979533 0.530133 0.583319 0.579155
C18   C     C_R   0.043660 0.469309 0.417186 0.562588
C19   C     C_R   0.020449 0.469867 0.083319 0.579166
C20   C     C_R   0.956344 0.530690 0.917186 0.562588
C21   C     C_R   0.479601 0.969866 0.916681 0.579167
C22   C     C_R   0.543633 0.030689 0.082815 0.562587
C23   C     C_R   0.520255 0.030139 0.416679 0.579162
C24   C     C_R   0.456484 0.969308 0.582815 0.562609
C25   C     C_R   0.990328 0.500053 0.553439 -0.038698
C26   C     C_R   0.032871 0.499364 0.447047 -0.035758
C27   C     C_R   0.009653 0.499947 0.053439 -0.038696
C28   C     C_R   0.967132 0.500635 0.947047 -0.035759
C29   C     C_R   0.490381 0.999946 0.946561 -0.038694
C30   C     C_R   0.532851 0.000634 0.052954 -0.035758
C31   C     C_R   0.509448 0.000058 0.446558 -0.038697
C32   C     C_R   0.467285 0.999364 0.552956 -0.035760
C33   C     C_R   0.005708 0.514549 0.515487 -0.023877
C34   C     C_R   0.019375 0.484863 0.485024 -0.018685
C35   C     C_R   0.994281 0.485450 0.015487 -0.023877
C36   C     C_R   0.980615 0.515136 0.985024 -0.018687
C37   C     C_R   0.505729 0.985449 0.984513 -0.023877
C38   C     C_R   0.519380 0.015135 0.014977 -0.018687
C39   C     C_R   0.494258 0.014553 0.484513 -0.023862
C40   C     C_R   0.480589 0.984866 0.514975 -0.018695
C41   C     C_R   0.007949 0.558661 0.507928 -0.031935
C42   C     C_R   0.018972 0.440749 0.492605 -0.028737
C43   C     C_R   0.992048 0.441338 0.007928 -0.031939
C44   C     C_R   0.981009 0.559251 0.992606 -0.028737
C45   C     C_R   0.507958 0.941337 0.992073 -0.031934
C46   C     C_R   0.518988 0.059250 0.007395 -0.028735
C47   C     C_R   0.492219 0.058664 0.492077 -0.031912
C48   C     C_R   0.480800 0.940752 0.507390 -0.028742
C49   C     C_R   0.988321 0.455918 0.560642 -0.176396
C50   C     C_R   0.034412 0.543487 0.439816 -0.167224
C51   C     C_R   0.011651 0.544082 0.060643 -0.176400
C52   C     C_R   0.965604 0.456512 0.939816 -0.167221
C53   C     C_R   0.488389 0.044081 0.939358 -0.176395
C54   C     C_R   0.534381 0.956511 0.060185 -0.167225
C55   C     C_R   0.511256 0.955923 0.439350 -0.176418
C56   C     C_R   0.465952 0.043487 0.560191 -0.167219
C57   C     C_R   0.003206 0.426643 0.530629 -0.141931
C58   C     C_R   0.022498 0.572766 0.469880 -0.141641
C59   C     C_R   0.996765 0.573357 0.030630 -0.141931
C60   C     C_R   0.977514 0.427234 0.969880 -0.141641
C61   C     C_R   0.503253 0.073356 0.969371 -0.141934
C62   C     C_R   0.522482 0.927233 0.030120 -0.141642
C63   C     C_R   0.496368 0.926648 0.469363 -0.141927
C64   C     C_R   0.477874 0.072767 0.530128 -0.141637
O21   O     O_2   0.992657 0.629909 0.531532 -0.521363
O22   O     O_2   0.030435 0.369488 0.468893 -0.521558
O23   O     O_2   0.007341 0.370091 0.031532 -0.521362
O24   O     O_2   0.969540 0.630511 0.968894 -0.521558
O25   O     O_2   0.492664 0.870090 0.968468 -0.521365
O26   O     O_2   0.530443 0.130510 0.031108 -0.521557
O27   O     O_2   0.507701 0.129912 0.468478 -0.521363
O28   O     O_2   0.469181 0.869491 0.531096 -0.521563
O29   O     O_2   0.970718 0.516463 0.619837 -0.536323
O30   O     O_2   0.053454 0.482996 0.380702 -0.539592
O31   O     O_2   0.029263 0.483538 0.119837 -0.536322
O32   O     O_2   0.946560 0.517003 0.880702 -0.539592
O33   O     O_2   0.470825 0.983536 0.880163 -0.536321
O34   O     O_2   0.553411 0.017002 0.119300 -0.539592
O35   O     O_2   0.528905 0.016472 0.380159 -0.536324
O36   O     O_2   0.446848 0.982994 0.619302 -0.539593
H1    H     H_    0.976094 0.443823 0.589536 0.163059
H2    H     H_    0.044925 0.555573 0.410891 0.161409
H3    H     H_    0.023871 0.556178 0.089537 0.163057
H4    H     H_    0.955102 0.444426 0.910890 0.161411
H5    H     H_    0.476186 0.056176 0.910463 0.163057
H6    H     H_    0.544877 0.944425 0.089110 0.161409
H7    H     H_    0.523331 0.943829 0.410453 0.163023
H8    H     H_    0.455601 0.055572 0.589119 0.161434
H9    H     H_    0.001747 0.392913 0.537341 0.171319
H10   H     H_    0.024275 0.606496 0.463172 0.171094
H11   H     H_    0.998216 0.607087 0.037342 0.171317
H12   H     H_    0.975747 0.393503 0.963171 0.171094
H13   H     H_    0.501805 0.107086 0.962659 0.171318
H14   H     H_    0.524250 0.893502 0.036829 0.171094
H15   H     H_    0.497672 0.892919 0.462647 0.171316
H16   H     H_    0.476264 0.106497 0.536840 0.171095
C65   C     C_R   0.895693 0.392485 0.367042 0.032597
C66   C     C_R   0.792027 0.606196 0.629047 0.032266
C67   C     C_R   0.104307 0.607516 0.867043 0.032596
C68   C     C_R   0.207966 0.393803 0.129045 0.032268
C69   C     C_R   0.395678 0.107514 0.132959 0.032598
C70   C     C_R   0.292068 0.893807 0.870952 0.032260
C71   C     C_R   0.604359 0.892466 0.632939 0.032597
C72   C     C_R   0.707885 0.106174 0.370934 0.032259
C73   C     C_R   0.906824 0.362274 0.337308 -0.245348
C74   C     C_R   0.780038 0.636567 0.658674 -0.245859
C75   C     C_R   0.093175 0.637726 0.837308 -0.245345
C76   C     C_R   0.219964 0.363432 0.158672 -0.245856
C77   C     C_R   0.406815 0.137725 0.162693 -0.245349
C78   C     C_R   0.280064 0.863437 0.841324 -0.245859
C79   C     C_R   0.593228 0.862257 0.662675 -0.245352
C80   C     C_R   0.719885 0.136543 0.341305 -0.245861
H17   H     H_    0.790461 0.359909 0.316951 0.130608
H18   H     H_    0.651585 0.638078 0.675951 0.131193
H19   H     H_    0.209540 0.640092 0.816952 0.130608
H20   H     H_    0.348422 0.361920 0.175946 0.131192
H21   H     H_    0.290452 0.140091 0.183050 0.130609
H22   H     H_    0.151617 0.861930 0.824046 0.131195
H23   H     H_    0.709632 0.859881 0.683021 0.130613
H24   H     H_    0.848286 0.138034 0.324012 0.131202
C81   C     C_R   0.068071 0.335846 0.333180 -0.061890
C82   C     C_R   0.933513 0.664226 0.666571 -0.062970
C83   C     C_R   0.931926 0.664153 0.833180 -0.061892
C84   C     C_R   0.066488 0.335774 0.166570 -0.062968
C85   C     C_R   0.568068 0.164153 0.166821 -0.061891
C86   C     C_R   0.433520 0.835773 0.833430 -0.062970
C87   C     C_R   0.431934 0.835845 0.666818 -0.061892
C88   C     C_R   0.566479 0.164228 0.333430 -0.062973
C89   C     C_R   0.218939 0.339855 0.359404 -0.199776
C90   C     C_R   0.100145 0.661074 0.644255 -0.201611
C91   C     C_R   0.781057 0.660144 0.859404 -0.199770
C92   C     C_R   0.899848 0.338926 0.144257 -0.201608
C93   C     C_R   0.718936 0.160144 0.140597 -0.199769
C94   C     C_R   0.600145 0.838919 0.855747 -0.201606
C95   C     C_R   0.281023 0.839865 0.640606 -0.199800
C96   C     C_R   0.399906 0.161104 0.355767 -0.201574
H25   H     H_    0.344629 0.319843 0.356996 0.134474
H26   H     H_    0.221053 0.681843 0.649547 0.136315
H27   H     H_    0.655365 0.680155 0.856996 0.134478
H28   H     H_    0.778940 0.318158 0.149551 0.136314
H29   H     H_    0.844631 0.180155 0.143004 0.134479
H30   H     H_    0.721038 0.818147 0.850456 0.136314
H31   H     H_    0.155300 0.819864 0.643023 0.134482
H32   H     H_    0.279058 0.181894 0.350491 0.136306
C97   C     C_R   0.207667 0.369033 0.389552 -0.088887
C98   C     C_R   0.112741 0.631447 0.614526 -0.093442
C99   C     C_R   0.792329 0.630966 0.889552 -0.088886
C100  C     C_R   0.887245 0.368554 0.114529 -0.093452
C101  C     C_R   0.707660 0.130965 0.110449 -0.088886
C102  C     C_R   0.612757 0.868547 0.885476 -0.093440
C103  C     C_R   0.292290 0.869042 0.610457 -0.088872
C104  C     C_R   0.387298 0.131476 0.385496 -0.093444
H33   H     H_    0.324681 0.371108 0.409698 0.134273
H34   H     H_    0.242657 0.629779 0.597766 0.136690
H35   H     H_    0.675312 0.628891 0.909698 0.134276
H36   H     H_    0.757324 0.370223 0.097771 0.136687
H37   H     H_    0.824677 0.128889 0.090303 0.134274
H38   H     H_    0.742668 0.870212 0.902236 0.136689
H39   H     H_    0.175243 0.871123 0.590318 0.134317
H40   H     H_    0.257427 0.129829 0.402272 0.136661
C105  C     C_R   0.047871 0.395735 0.393748 0.348220
C106  C     C_R   0.960445 0.603750 0.606476 0.348917
C107  C     C_R   0.952126 0.604265 0.893748 0.348217
C108  C     C_R   0.039542 0.396250 0.106477 0.348923
C109  C     C_R   0.547857 0.104264 0.106253 0.348218
C110  C     C_R   0.460480 0.896249 0.893524 0.348913
C111  C     C_R   0.452123 0.895731 0.606248 0.348209
C112  C     C_R   0.539528 0.103754 0.393525 0.348909
C113  C     C_R   0.732562 0.422676 0.368169 0.115777
C114  C     C_R   0.634737 0.430727 0.402531 -0.156658
C115  C     C_R   0.511736 0.465646 0.405461 -0.109028
C116  C     C_R   0.479506 0.491783 0.373760 -0.021114
C117  C     C_R   0.565623 0.482273 0.338783 -0.099686
C118  C     C_R   0.692056 0.447904 0.335934 -0.081261
H41   H     H_    0.660558 0.411238 0.427543 0.127852
H42   H     H_    0.444366 0.472858 0.432538 0.111687
H43   H     H_    0.387785 0.519436 0.376275 0.132325
H44   H     H_    0.539144 0.502347 0.314174 0.111145
H45   H     H_    0.766139 0.442466 0.309188 0.106752
C119  C     C_R   0.635619 0.574833 0.624008 0.105299
C120  C     C_R   0.560023 0.566380 0.587546 -0.149191
C121  C     C_R   0.447755 0.530183 0.581505 -0.130288
C122  C     C_R   0.403987 0.503139 0.612030 -0.032463
C123  C     C_R   0.466456 0.513069 0.648862 -0.072981
C124  C     C_R   0.582165 0.548759 0.654907 -0.083133
H46   H     H_    0.596428 0.586470 0.563451 0.132320
H47   H     H_    0.397642 0.522721 0.553022 0.118263
H48   H     H_    0.320477 0.474607 0.607233 0.121427
H49   H     H_    0.430334 0.492346 0.672530 0.111261
H50   H     H_    0.639049 0.554570 0.683228 0.106429
C125  C     C_R   0.267441 0.577325 0.868170 0.115781
C126  C     C_R   0.365258 0.569274 0.902532 -0.156656
C127  C     C_R   0.488262 0.534356 0.905462 -0.109036
C128  C     C_R   0.520504 0.508220 0.873761 -0.021117
C129  C     C_R   0.434397 0.517730 0.838783 -0.099681
C130  C     C_R   0.307961 0.552098 0.835934 -0.081267
H51   H     H_    0.339429 0.588762 0.927544 0.127853
H52   H     H_    0.555625 0.527143 0.932539 0.111687
H53   H     H_    0.612226 0.480567 0.876275 0.132330
H54   H     H_    0.460887 0.497658 0.814173 0.111146
H55   H     H_    0.233885 0.557538 0.809188 0.106750
C131  C     C_R   0.364374 0.425165 0.124004 0.105285
C132  C     C_R   0.439960 0.433618 0.087540 -0.149190
C133  C     C_R   0.552218 0.469816 0.081497 -0.130296
C134  C     C_R   0.595986 0.496862 0.112021 -0.032476
C135  C     C_R   0.533533 0.486931 0.148855 -0.072962
C136  C     C_R   0.417834 0.451241 0.154902 -0.083136
H56   H     H_    0.403551 0.413527 0.063446 0.132325
H57   H     H_    0.602321 0.477278 0.053013 0.118267
H58   H     H_    0.679485 0.525394 0.107223 0.121420
H59   H     H_    0.569660 0.507655 0.172522 0.111261
H60   H     H_    0.360962 0.445429 0.183223 0.106428
C137  C     C_R   0.232537 0.077323 0.131832 0.115784
C138  C     C_R   0.134716 0.069272 0.097470 -0.156656
C139  C     C_R   0.011710 0.034353 0.094541 -0.109034
C140  C     C_R   0.979467 0.008218 0.126242 -0.021115
C141  C     C_R   0.065576 0.017729 0.161219 -0.099685
C142  C     C_R   0.192016 0.052097 0.164068 -0.081267
H61   H     H_    0.160545 0.088760 0.072458 0.127852
H62   H     H_    0.944344 0.027140 0.067463 0.111687
H63   H     H_    0.887743 0.980564 0.123727 0.132324
H64   H     H_    0.039085 0.997656 0.185829 0.111138
H65   H     H_    0.266093 0.057536 0.190814 0.106751
C143  C     C_R   0.135682 0.925174 0.875991 0.105283
C144  C     C_R   0.060062 0.933622 0.912452 -0.149205
C145  C     C_R   0.947821 0.969822 0.918495 -0.130268
C146  C     C_R   0.904102 0.996874 0.887973 -0.032460
C147  C     C_R   0.966603 0.986950 0.851142 -0.072985
C148  C     C_R   0.082282 0.951257 0.845094 -0.083100
H66   H     H_    0.096433 0.913526 0.936545 0.132321
H67   H     H_    0.897689 0.977280 0.946978 0.118257
H68   H     H_    0.820612 0.025407 0.892772 0.121413
H69   H     H_    0.930523 0.007680 0.827476 0.111260
H70   H     H_    0.139191 0.945449 0.816775 0.106438
C149  C     C_R   0.767565 0.922638 0.631794 0.115762
C150  C     C_R   0.865305 0.930678 0.597420 -0.156664
C151  C     C_R   0.988365 0.965586 0.594474 -0.109232
C152  C     C_R   0.020719 0.991725 0.626168 -0.021191
C153  C     C_R   0.934695 0.982224 0.661157 -0.099547
C154  C     C_R   0.808218 0.947864 0.664023 -0.081250
H71   H     H_    0.839373 0.911190 0.572412 0.127886
H72   H     H_    0.055681 0.972789 0.567389 0.111706
H73   H     H_    0.112462 0.019374 0.623640 0.132364
H74   H     H_    0.961277 0.002299 0.685761 0.111151
H75   H     H_    0.734205 0.942434 0.690778 0.106742
C155  C     C_R   0.864219 0.074792 0.375958 0.105324
C156  C     C_R   0.939942 0.066347 0.412412 -0.149243
C157  C     C_R   0.052160 0.030143 0.418447 -0.130174
C158  C     C_R   0.095753 0.003080 0.387925 -0.032319
C159  C     C_R   0.033134 0.012996 0.351100 -0.073090
C160  C     C_R   0.917476 0.048695 0.345060 -0.083058
H76   H     H_    0.903680 0.086453 0.436505 0.132311
H77   H     H_    0.102370 0.022689 0.446925 0.118227
H78   H     H_    0.179237 0.974545 0.392718 0.121375
H79   H     H_    0.069102 0.992257 0.327434 0.111223
H80   H     H_    0.860484 0.054499 0.316748 0.106445

loop_
_geom_bond_atom_site_label_1
_geom_bond_atom_site_label_2
_ccdc_geom_bond_type
O17   V3    S    
C84   C92   A    
C137  C142  A    
C56   C64   A    
O18   V4    S    
C154  H75   S    
C142  H65   S    
O12   V1    S    
O19   V1    S    
C132  H56   S    
C74   C82   A    
C37   C45   A    
C145  H67   S    
C102  C110  A    
C78   H22   S    
C115  C116  A    
C32   C40   A    
C101  C109  A    
C126  C127  A    
C76   H20   S    
C39   C47   A    
C17   C25   A    
O15   V4    S    
C99   C107  A    
C120  C121  A    
C140  C141  A    
O16   V3    S    
C98   C106  A    
C75   H19   S    
C159  C160  A    
C52   H4    S    
C97   C105  A    
C134  H58   S    
O8    V1    S    
C42   C57   A    
C73   H17   S    
C38   C46   A    
C27   C51   A    
C41   C58   A    
C121  H47   S    
C26   C50   A    
C71   C111  A    
C73   C81   A    
C32   C56   A    
C143  C148  A    
C99   H35   S    
C119  C124  A    
C46   C61   A    
C21   O33   S    
C153  C154  A    
C34   C42   A    
C45   C62   A    
O1    V3    S    
C40   C48   A    
C97   H33   S    
C133  C134  A    
C22   O34   S    
O3    C2    A    
N8    C24   A    
C144  C145  A    
C113  C114  A    
C1    C88   S    
C16   N8    A    
C157  H77   S    
C2    C87   S    
C54   C62   A    
C27   C35   A    
C123  H49   S    
C101  H37   S    
C118  H45   S    
C26   C34   A    
C95   C103  A    
C68   C76   A    
C125  C126  A    
O11   V2    S    
C10   N2    A    
C96   C104  A    
C23   C31   A    
C116  H43   S    
C132  C133  A    
C16   C48   A    
C136  H60   S    
C18   O30   S    
C94   C102  A    
C56   H8    S    
C11   N3    A    
C9    O21   S    
C92   C100  A    
O9    V1    S    
C14   O26   S    
C65   C113  S    
O15   C7    A    
N4    C20   A    
C79   H23   S    
C129  H54   S    
O2    C3    A    
N7    C23   A    
N5    C21   A    
C141  H64   S    
O16   C8    A    
O7    V2    S    
C59   H11   S    
C137  C138  A    
C71   C149  S    
C58   H10   S    
C30   C38   A    
C100  H36   S    
O3    V4    S    
C21   C29   A    
C78   C86   A    
C19   O31   S    
C11   O23   S    
N1    C17   A    
C65   C73   A    
O13   V3    S    
C74   H18   S    
C127  C128  A    
O5    V1    S    
C6    C83   S    
C62   H14   S    
C76   C84   A    
O17   V1    S    
C153  H74   S    
C16   O28   S    
C94   H30   S    
O12   C4    A    
C114  C115  A    
N8    C111  S    
O19   V3    S    
C35   C36   A    
C18   C26   A    
C51   H3    S    
O20   V4    S    
C123  C124  A    
C50   H2    S    
C12   O24   S    
C146  H68   S    
C135  C136  A    
C33   C41   A    
C85   C93   A    
C140  H63   S    
N6    C109  S    
C17   O29   S    
C93   C101  A    
C14   C46   A    
C104  C112  A    
C158  C159  A    
C139  H62   S    
C77   C85   A    
C13   C45   A    
C135  H59   S    
C103  C111  A    
C144  H66   S    
C55   C63   A    
N3    C108  S    
C66   C119  S    
C15   C47   A    
C133  H57   S    
C150  H71   S    
N2    C105  S    
C72   C155  S    
C122  C123  A    
C55   H7    S    
N1    C106  S    
C70   C78   A    
C64   H16   S    
C30   C54   A    
C149  C154  A    
O10   V2    S    
C52   C60   A    
C159  H79   S    
C138  H61   S    
C90   H26   S    
C75   C83   A    
N2    C18   A    
C113  C118  A    
O11   C3    A    
C143  C144  A    
N6    C22   A    
C24   C32   A    
O8    C5    A    
C141  C142  A    
O13   C5    A    
C155  C156  A    
C54   H6    S    
C156  H76   S    
C150  C151  A    
C48   C63   A    
C53   H5    S    
C28   C36   A    
C130  H55   S    
C29   C53   A    
C43   C60   A    
C10   C42   A    
O4    C1    A    
C151  H72   S    
O1    C4    A    
C9    C41   A    
O6    V2    S    
C61   H13   S    
C31   C39   A    
O18   V2    S    
C122  H48   S    
C114  H41   S    
C12   C44   A    
C91   C99   A    
C25   C49   A    
N7    C112  S    
C12   N4    A    
C23   O35   S    
C35   C43   A    
C131  C132  A    
C13   N5    A    
C146  C147  A    
C66   C74   A    
C72   C112  A    
C91   H27   S    
C8    C81   S    
C129  C130  A    
C15   N7    A    
C29   C37   A    
C158  H78   S    
C96   H32   S    
C92   H28   S    
C117  C118  A    
C138  C139  A    
C124  H50   S    
N4    C107  S    
C69   C109  A    
C70   C110  A    
C31   C55   A    
C160  H80   S    
C125  C130  A    
C3    C86   S    
C69   C77   A    
C152  H73   S    
C82   C90   A    
C67   C107  A    
C11   C43   A    
O14   V4    S    
C147  C148  A    
C66   C106  A    
C80   H24   S    
C100  C108  A    
C89   H25   S    
C65   C105  A    
C120  H46   S    
C79   C87   A    
C103  H39   S    
C47   C64   A    
C36   C44   A    
O7    C6    A    
C51   C59   A    
C115  H42   S    
C77   H21   S    
C157  C158  A    
C127  H52   S    
C50   C58   A    
C155  C160  A    
C149  C150  A    
C83   C91   A    
O14   C6    A    
C60   H12   S    
C145  C146  A    
N5    C110  S    
C156  C157  A    
C9    N1    A    
C148  H70   S    
C72   C80   A    
C126  H51   S    
C14   N6    A    
C13   O25   S    
C28   C52   A    
N3    C19   A    
C104  H40   S    
C119  C120  A    
O5    C8    A    
C57   H9    S    
C117  H44   S    
O10   C2    A    
C4    C85   S    
O6    C7    A    
C121  C122  A    
O20   V2    S    
C71   C79   A    
C10   O22   S    
C5    C84   S    
C87   C95   A    
C95   H31   S    
O9    C1    A    
C131  C136  A    
C88   C96   A    
C49   C57   A    
C37   C38   A    
C80   C88   A    
C89   C97   A    
C134  C135  A    
C90   C98   A    
O4    V3    S    
C67   C75   A    
C44   C59   A    
C70   C143  S    
C98   H34   S    
C86   C94   A    
C63   H15   S    
C39   C40   A    
C53   C61   A    
C19   C27   A    
C116  C117  A    
C20   O32   S    
C20   C28   A    
C128  C129  A    
C7    C82   S    
C81   C89   A    
C68   C108  A    
C15   O27   S    
C152  C153  A    
C22   C30   A    
C67   C125  S    
C102  H38   S    
C139  C140  A    
C147  H69   S    
C151  C152  A    
C49   H1    S    
C68   C131  S    
C33   C34   A    
C24   O36   S    
C128  H53   S    
C93   H29   S    
C69   C137  S    
O2    V4    S    
C25   C33   A    
