data_mof_unit_11611.cif
_audit_creation_date              2012-12-10T17:43:31-0500
_audit_creation_method            fapswitch 2.2
_symmetry_space_group_name_H-M    P1
_symmetry_Int_Tables_number       1
_space_group_crystal_system       triclinic
_cell_length_a                    14.942661
_cell_length_b                    10.695458
_cell_length_c                    9.969798
_cell_angle_alpha                 86.748472
_cell_angle_beta                  89.121453
_cell_angle_gamma                 92.355547
_cell_volume                      1589.20073032

loop_
_atom_site_label
_atom_site_type_symbol
_atom_type_description
_atom_site_fract_x
_atom_site_fract_y
_atom_site_fract_z
_atom_type_partial_charge
C1    C     C_R   0.505616 0.260153 0.504686 0.884995
C2    C     C_R   0.184053 0.402199 0.429789 0.565552
C3    C     C_R   0.230874 0.487238 0.507867 -0.188718
C4    C     C_R   0.326962 0.497230 0.501703 0.891903
C5    C     C_R   0.186203 0.559420 0.597060 -0.350305
C6    C     C_R   0.448305 0.083575 0.747411 0.510367
C7    C     C_R   0.380822 0.014098 0.821249 -0.279880
C8    C     C_R   0.339000 0.909121 0.768423 0.190426
C9    C     C_R   0.372962 0.865640 0.649147 -0.170673
C10   C     C_R   0.445976 0.930497 0.580452 -0.081768
C11   C     C_R   0.470610 0.050627 0.615123 -0.090256
C12   C     C_R   0.908013 0.562238 0.596971 0.167712
C13   C     C_R   0.520176 0.127245 0.517585 -0.141906
C14   C     C_R   0.575978 0.072917 0.423124 0.158423
C15   C     C_R   0.574978 0.941847 0.423482 0.180077
C16   C     C_R   0.500205 0.739642 0.496428 0.886273
C17   C     C_R   0.502776 0.873351 0.490699 -0.127373
C18   C     C_R   0.375159 0.345043 0.149438 -0.056630
C19   C     C_R   0.310757 0.273648 0.084731 -0.120651
C20   C     C_R   0.308247 0.278878 0.945988 -0.242333
C21   C     C_R   0.372619 0.350991 0.871278 -0.016681
C22   C     C_R   0.437057 0.426806 0.933318 0.065920
C23   C     C_R   0.950226 0.361864 0.308738 0.378013
C24   C     C_R   0.437129 0.426392 0.077258 0.059952
C25   C     C_R   0.563563 0.566050 0.064485 0.086044
C26   C     C_R   0.559047 0.573324 0.920967 0.561011
C27   C     C_R   0.672982 0.501923 0.498933 0.867981
C28   C     C_R   0.815578 0.565036 0.595008 -0.253380
C29   C     C_R   0.768748 0.503228 0.496910 -0.088174
C30   C     C_R   0.812922 0.439794 0.399031 -0.214550
C31   C     C_R   0.905310 0.431294 0.402430 -0.063786
C32   C     C_R   0.953156 0.492989 0.501994 0.023782
C33   C     C_3   0.574290 0.111088 0.868764 -0.309869
C34   C     C_R   0.042321 0.343525 0.322331 0.439767
C35   C     C_3   0.264409 0.836723 0.844013 -0.938093
C36   C     C_3   0.653793 0.878023 0.363921 -0.920485
C37   C     C_3   0.644829 0.621207 0.128713 -0.802140
C38   C     C_3   0.589765 0.775944 0.846967 -0.300858
C39   C     C_3   0.908330 0.389015 0.091878 -0.293438
C40   C     C_3   0.063869 0.144561 0.260045 -0.218768
C41   C     C_3   0.247662 0.213546 0.460871 -0.372016
C42   C     C_3   0.640433 0.154473 0.332807 -0.841541
C43   C     C_R   0.091061 0.409861 0.418393 -0.192391
C44   C     C_R   0.045992 0.486740 0.506259 -0.095052
C45   C     C_R   0.093712 0.556766 0.600033 0.184612
C46   C     C_R   0.048484 0.625633 0.693013 -0.201983
C47   C     C_R   0.955731 0.627009 0.692660 -0.238667
H1    H     H_    0.780008 0.616029 0.668770 0.184223
H2    H     H_    0.084737 0.677717 0.766364 0.142630
H3    H     H_    0.921412 0.679954 0.765830 0.145711
H4    H     H_    0.617005 0.073020 0.789564 0.156902
H5    H     H_    0.552837 0.036033 0.945769 0.151186
H6    H     H_    0.615778 0.181809 0.919850 0.193550
H7    H     H_    0.247210 0.880265 0.939101 0.241449
H8    H     H_    0.284423 0.739312 0.868593 0.247158
H9    H     H_    0.204002 0.834604 0.780780 0.234510
H10   H     H_    0.656681 0.778075 0.397986 0.233673
H11   H     H_    0.652139 0.887819 0.252574 0.239224
H12   H     H_    0.363691 0.039339 0.921730 0.168944
H13   H     H_    0.717419 0.921313 0.399041 0.243225
H14   H     H_    0.688778 0.681059 0.059146 0.226759
H15   H     H_    0.623661 0.677969 0.210827 0.268917
H16   H     H_    0.687208 0.544185 0.164789 0.245126
H17   H     H_    0.515833 0.782922 0.838652 0.180229
H18   H     H_    0.621324 0.831954 0.760452 0.189787
H19   H     H_    0.611723 0.819867 0.939673 0.138575
H20   H     H_    0.877863 0.479778 0.110898 0.151853
H21   H     H_    0.869722 0.345687 0.011111 0.190852
H22   H     H_    0.978664 0.405468 0.054608 0.195310
H23   H     H_    0.345721 0.778060 0.614453 0.151799
H24   H     H_    0.064341 0.117474 0.369601 0.127384
H25   H     H_    0.114516 0.088736 0.210706 0.159965
H26   H     H_    0.997805 0.118542 0.217965 0.196993
H27   H     H_    0.186261 0.176960 0.517194 0.163369
H28   H     H_    0.274582 0.135067 0.406699 0.187881
H29   H     H_    0.299548 0.243498 0.532387 0.145908
H30   H     H_    0.690824 0.102180 0.279161 0.242466
H31   H     H_    0.603216 0.205916 0.253326 0.256145
H32   H     H_    0.677580 0.221781 0.394246 0.226479
H33   H     H_    0.376547 0.331665 0.255579 0.234905
H34   H     H_    0.264008 0.211155 0.142180 0.202670
H35   H     H_    0.259227 0.221433 0.895883 0.149214
H36   H     H_    0.373838 0.338963 0.765903 0.195414
H37   H     H_    0.774676 0.393519 0.323370 0.193617
H38   H     H_    0.223640 0.618402 0.663203 0.173338
N1    N     N_R   0.499150 0.498800 0.142780 -0.142364
N2    N     N_R   0.499120 0.498720 0.857170 -0.171721
O1    O     O_R   0.500000 0.316780 0.614690 -0.579742
O2    O     O_3   0.617926 0.651400 0.843704 -0.592291
O3    O     O_3   0.903457 0.306447 0.207433 -0.617468
O4    O     O_3   0.086312 0.273012 0.231535 -0.560336
O5    O     O_3   0.229078 0.311762 0.365803 -0.596337
O6    O     O_R   0.499990 0.316750 0.385360 -0.644674
O7    O     O_R   0.367850 0.499980 0.614680 -0.665992
O8    O     O_R   0.367840 0.499960 0.385350 -0.604722
O9    O     O_R   0.500010 0.683250 0.614640 -0.597476
O10   O     O_R   0.500000 0.683220 0.385310 -0.617587
O11   O     O_R   0.632160 0.500040 0.614650 -0.563141
O12   O     O_R   0.632150 0.500020 0.385320 -0.640068
O13   O     O_3   0.499808 0.170285 0.813148 -0.588773
Zn1   Zn    Zn3+2 0.500010 0.500020 0.653130 0.985690
Zn2   Zn    Zn3+2 0.499990 0.499980 0.346870 0.929219

loop_
_geom_bond_atom_site_label_1
_geom_bond_atom_site_label_2
_ccdc_geom_bond_type
C8    C9    A    
C27   O11   A    
C40   H24   S    
C20   H35   S    
C27   C29   S    
C39   H21   S    
C19   C20   A    
O1    Zn1   S    
C7    C8    A    
C45   C46   A    
C26   O2    S    
C46   H2    S    
C27   O12   A    
C12   C28   A    
C18   C24   A    
C28   C29   A    
C36   H11   S    
C30   C31   A    
C16   O10   A    
C10   C17   A    
C40   H26   S    
C18   C19   A    
C34   O4    S    
C25   C37   S    
C41   H27   S    
N2    Zn1   S    
C21   H36   S    
O7    Zn1   S    
C16   C17   S    
C13   C14   A    
C9    C10   A    
C39   O3    S    
O10   Zn2   S    
O8    Zn2   S    
C14   C42   S    
C5    H38   S    
C1    O1    A    
C42   H32   S    
C21   C22   A    
C12   C32   A    
C35   H7    S    
C33   H6    S    
C12   C47   A    
C7    H12   S    
C37   H16   S    
C37   H15   S    
C47   H3    S    
C38   H17   S    
C32   C44   A    
C16   O9    A    
C35   H8    S    
C38   H19   S    
C9    H23   S    
C36   H10   S    
C6    C11   A    
C26   N2    A    
C3    C5    A    
C25   C26   A    
C5    C45   A    
C33   H5    S    
C8    C35   S    
C6    O13   S    
C43   C44   A    
C29   C30   A    
C41   H28   S    
C4    O8    A    
C31   C32   A    
C38   O2    S    
C38   H18   S    
C2    C43   A    
C23   C34   A    
O12   Zn2   S    
C39   H22   S    
C23   O3    S    
C22   N2    A    
C2    O5    S    
C4    O7    A    
C18   H33   S    
C42   H31   S    
C22   C24   A    
C1    C13   S    
C3    C4    S    
N1    Zn2   S    
C15   C36   S    
C44   C45   A    
C15   C17   A    
C46   C47   A    
C28   H1    S    
C40   H25   S    
C35   H9    S    
C39   H20   S    
C34   C43   A    
C36   H13   S    
O6    Zn2   S    
C37   H14   S    
C6    C7    A    
C33   H4    S    
O11   Zn1   S    
C33   O13   S    
C2    C3    A    
C19   H34   S    
C41   H29   S    
C11   C13   A    
C25   N1    A    
C40   O4    S    
C30   H37   S    
C10   C11   A    
C41   O5    S    
C20   C21   A    
C42   H30   S    
C1    O6    A    
C14   C15   A    
O9    Zn1   S    
C24   N1    A    
C23   C31   A    
