data_mof_unit_15735.cif
_audit_creation_date              2012-12-11T17:39:27-0500
_audit_creation_method            fapswitch 2.2
_symmetry_space_group_name_H-M    P1
_symmetry_Int_Tables_number       1
_space_group_crystal_system       triclinic
_cell_length_a                    14.827487
_cell_length_b                    15.135951
_cell_length_c                    14.993207
_cell_angle_alpha                 109.802661
_cell_angle_beta                  108.463741
_cell_angle_gamma                 110.577127
_cell_volume                      2575.79538023

loop_
_atom_site_label
_atom_site_type_symbol
_atom_type_description
_atom_site_fract_x
_atom_site_fract_y
_atom_site_fract_z
_atom_type_partial_charge
C1    C     C_R   0.904033 0.976565 0.717051 -0.143454
C2    C     C_R   0.997870 0.323241 0.540206 0.038258
C3    C     C_R   0.355989 0.313997 0.809728 0.154325
C4    C     C_R   0.624963 0.918877 0.421199 0.071911
C5    C     C_R   0.754276 0.687520 0.280164 -0.162149
C6    C     C_R   0.249464 0.028316 0.434696 -0.157056
C7    C     C_R   0.089583 0.790231 0.592379 -0.150461
C8    C     C_R   0.908769 0.001335 0.201368 -0.165349
C9    C     C_R   0.091114 0.096995 0.290976 0.044940
C10   C     C_R   0.906310 0.703342 0.506865 0.020854
C11   C     C_R   0.755679 0.777037 0.187888 -0.118862
C12   C     C_R   0.092015 0.315619 0.557961 -0.155288
C13   C     C_R   0.254192 0.939621 0.527317 -0.115399
C14   C     C_R   0.731262 0.675430 0.179308 0.123329
C15   C     C_R   0.282169 0.957189 0.451212 0.066692
C16   C     C_R   0.995776 0.699251 0.564149 0.029227
C17   C     C_R   0.997775 0.057940 0.192644 0.044554
C18   C     C_R   0.509678 0.591901 0.382193 -0.148603
C19   C     C_R   0.485188 0.665486 0.359891 -0.156149
C20   C     C_R   0.453188 0.726489 0.423334 0.115633
C21   C     C_R   0.436950 0.704807 0.502947 -0.213908
C22   C     C_R   0.455494 0.626059 0.520714 0.091607
C23   C     C_R   0.297480 0.216366 0.804490 -0.163369
C24   C     C_R   0.494610 0.571856 0.461984 -0.116170
C25   C     C_R   0.355028 0.831348 0.417747 -0.238029
C26   C     C_R   0.340328 0.912938 0.402275 0.057001
C27   C     C_R   0.390396 0.955274 0.348224 0.074150
C28   C     C_R   0.463836 0.927862 0.327392 -0.227417
C29   C     C_R   0.504812 0.877521 0.377333 0.036848
C30   C     C_R   0.438636 0.813160 0.406856 0.049268
C31   C     C_R   0.303651 0.018681 0.232944 -0.177667
C32   C     C_R   0.299747 0.103256 0.217875 -0.236124
C33   C     C_R   0.382734 0.212332 0.296568 -0.205005
C34   C     C_R   0.693030 0.986621 0.398184 -0.142381
C35   C     C_R   0.470142 0.237871 0.391038 0.682186
C36   C     C_R   0.473233 0.152303 0.406701 -0.366773
C37   C     C_R   0.387785 0.043389 0.329514 0.067331
C38   C     C_R   0.784501 0.175933 0.184203 -0.115692
C39   C     C_R   0.860825 0.273191 0.284051 -0.111377
C40   C     C_R   0.826917 0.311972 0.358699 0.100454
C41   C     C_R   0.715669 0.253758 0.331612 -0.156597
C42   C     C_R   0.640731 0.154510 0.233479 -0.133444
C43   C     C_R   0.674761 0.116133 0.159387 -0.113881
C44   C     C_R   0.907849 0.505225 0.478364 -0.207659
C45   C     C_R   0.297508 0.306022 0.712865 -0.162386
C46   C     C_R   0.988263 0.605599 0.572757 0.055348
C47   C     C_R   0.066347 0.613388 0.662592 0.024086
C48   C     C_R   0.067669 0.518629 0.651512 -0.256735
C49   C     C_R   0.990308 0.418821 0.553720 0.077215
C50   C     C_R   0.908156 0.411955 0.466845 0.006795
C51   C     C_R   0.258224 0.760480 0.816468 -0.168900
C52   C     C_R   0.330193 0.860031 0.915089 -0.090630
C53   C     C_R   0.288003 0.916275 0.966701 -0.135023
C54   C     C_R   0.173926 0.874965 0.918447 -0.108406
C55   C     C_R   0.101717 0.776231 0.819263 -0.124056
C56   C     C_R   0.692208 0.899650 0.490999 -0.158497
C57   C     C_R   0.143333 0.717843 0.767843 0.104653
C58   C     C_2   0.550662 0.453840 0.888616 -0.137704
C59   C     C_2   0.462760 0.406473 0.899624 -0.240840
C60   C     C_2   0.652059 0.554209 0.983970 -0.151760
C61   C     C_2   0.679269 0.568713 0.083425 -0.187866
C62   C     C_R   0.376890 0.363334 0.117076 0.685959
C63   C     C_R   0.279648 0.274823 0.090172 -0.418889
C64   C     C_R   0.176198 0.263027 0.037816 -0.084106
C65   C     C_R   0.168763 0.336992 0.002900 0.601291
C66   C     C_R   0.267341 0.429949 0.035482 -0.345200
C67   C     C_R   0.907315 0.219132 0.476416 -0.119507
C68   C     C_R   0.370600 0.444390 0.095137 -0.341581
C69   C     C_R   0.077420 0.167199 0.113767 -0.272146
C70   C     C_R   0.987699 0.079852 0.101519 0.044160
C71   C     C_R   0.889190 0.010382 0.997712 0.036933
C72   C     C_R   0.886335 0.028728 0.912847 -0.237470
C73   C     C_R   0.984683 0.094201 0.919439 0.108716
C74   C     C_R   0.077535 0.174062 0.022679 0.127122
C75   C     C_R   0.802814 0.808531 0.906220 -0.130312
C76   C     C_R   0.709345 0.704133 0.849624 -0.175971
C77   C     C_R   0.612780 0.690632 0.853528 -0.330033
C78   C     C_R   0.088053 0.065413 0.812138 -0.151757
C79   C     C_R   0.608685 0.782203 0.913656 0.618211
C80   C     C_R   0.698114 0.886977 0.958225 -0.307827
C81   C     C_R   0.798113 0.901190 0.961030 0.064935
C82   C     C_R   0.993712 0.053993 0.820304 0.051037
H1    H     H_    0.817744 0.947666 0.690934 0.099884
H2    H     H_    0.249531 0.055062 0.377796 0.141812
H3    H     H_    0.174633 0.818016 0.645851 0.113509
H4    H     H_    0.825784 0.983395 0.158068 0.120452
H5    H     H_    0.747556 0.795850 0.123492 0.103911
H6    H     H_    0.266930 0.888469 0.559436 0.091569
H7    H     H_    0.513804 0.514501 0.478007 0.165424
H8    H     H_    0.542305 0.551859 0.338868 0.179661
H9    H     H_    0.496867 0.679097 0.296964 0.124168
H10   H     H_    0.177014 0.381984 0.601975 0.100398
H11   H     H_    0.412565 0.750271 0.553378 0.108353
H12   H     H_    0.304959 0.785732 0.443059 0.124166
H13   H     H_    0.502389 0.963965 0.288723 0.122957
H14   H     H_    0.238864 0.934617 0.172068 0.138393
H15   H     H_    0.230669 0.083213 0.145941 0.147904
H16   H     H_    0.379187 0.278481 0.286269 0.164858
H17   H     H_    0.541674 0.169306 0.477455 0.134574
H18   H     H_    0.615742 0.040195 0.082844 0.114986
H19   H     H_    0.327747 0.191066 0.861000 0.105781
H20   H     H_    0.811010 0.146744 0.126797 0.117286
H21   H     H_    0.946244 0.317616 0.303753 0.113828
H22   H     H_    0.688654 0.282774 0.388693 0.150083
H23   H     H_    0.556313 0.107186 0.214900 0.117401
H24   H     H_    0.849211 0.500044 0.408486 0.144871
H25   H     H_    0.128196 0.522238 0.718592 0.127991
H26   H     H_    0.291979 0.717345 0.777576 0.140211
H27   H     H_    0.418665 0.893040 0.952242 0.158764
H28   H     H_    0.343777 0.991597 0.044254 0.133348
H29   H     H_    0.141335 0.919140 0.957950 0.105595
H30   H     H_    0.668141 0.007235 0.335976 0.099293
H31   H     H_    0.013371 0.744878 0.782881 0.101129
H32   H     H_    0.544969 0.424546 0.809314 0.143162
H33   H     H_    0.467481 0.439393 0.977796 0.145007
H34   H     H_    0.694836 0.621587 0.974833 0.151741
H35   H     H_    0.645742 0.498334 0.092845 0.128215
H36   H     H_    0.445706 0.518079 0.123385 0.146426
H37   H     H_    0.284077 0.213766 0.108743 0.168111
H38   H     H_    0.264124 0.492199 0.016833 0.154378
H39   H     H_    0.326039 0.362682 0.685802 0.106393
H40   H     H_    0.150315 0.227558 0.192061 0.154335
H41   H     H_    0.810594 0.973272 0.835318 0.131414
H42   H     H_    0.877129 0.817748 0.902389 0.114614
H43   H     H_    0.712332 0.633306 0.804406 0.129869
H44   H     H_    0.541895 0.608925 0.811294 0.125961
H45   H     H_    0.691244 0.957490 0.994229 0.128084
H46   H     H_    0.666656 0.844175 0.519702 0.115581
H47   H     H_    0.821726 0.194248 0.451059 0.115777
H48   H     H_    0.172811 0.115254 0.876949 0.108671
H49   H     H_    0.745093 0.624427 0.300911 0.119574
N1    N     N_R   0.941940 0.944580 0.650780 -0.042166
N2    N     N_R   0.206190 0.054080 0.497260 -0.045492
N3    N     N_R   0.056380 0.847410 0.553580 -0.044178
N4    N     N_R   0.944890 0.999100 0.292900 -0.044956
N5    N     N_R   0.058060 0.055420 0.349220 -0.057249
N6    N     N_R   0.943200 0.791100 0.497260 -0.051130
N7    N     N_R   0.795540 0.849750 0.292910 -0.040349
N8    N     N_R   0.205730 0.996760 0.553580 -0.036626
N9    N     N_R   0.056800 0.208900 0.502740 -0.041299
N10   N     N_R   0.204460 0.150250 0.707090 -0.042050
N11   N     N_R   0.794270 0.003240 0.446420 -0.039938
N12   N     N_R   0.204920 0.207570 0.650770 -0.042642
N13   N     N_R   0.793810 0.945920 0.502740 -0.040884
N14   N     N_R   0.943620 0.152590 0.446420 -0.037483
N15   N     N_R   0.055110 0.000900 0.707100 -0.035187
N16   N     N_R   0.795080 0.792430 0.349230 -0.043262
Ni1   Ni    Ni4+2 0.869690 0.869690 0.500000 0.202092
Ni2   Ni    Ni4+2 0.130310 0.130310 0.500000 0.196532
Ni3   Ni    Ni4+2 0.129250 0.998840 0.629170 0.216425
Ni4   Ni    Ni4+2 0.870750 0.001160 0.370830 0.214200
N17   N     N_3   0.192836 0.197733 0.343055 -0.222947
H50   H     H_    0.175275 0.260498 0.364448 0.097906
H51   H     H_    0.245788 0.210227 0.417100 0.110673
N18   N     N_3   0.798251 0.647356 0.493862 -0.215628
H52   H     H_    0.808570 0.656603 0.569404 0.107940
H53   H     H_    0.756671 0.687754 0.476593 0.106124
N19   N     N_3   0.435974 0.601884 0.599318 -0.222720
H54   H     H_    0.351438 0.569408 0.573477 0.097706
H55   H     H_    0.478531 0.675974 0.672527 0.124726
O1    O     O_3   0.554646 0.346453 0.461288 -0.671349
C83   C     C_3   0.575102 0.383315 0.569846 0.265347
H56   H     H_    0.642782 0.470506 0.619560 0.126482
H57   H     H_    0.606774 0.340077 0.605753 0.089537
C84   C     C_3   0.474062 0.377736 0.580580 -1.074145
H58   H     H_    0.424169 0.298114 0.572541 0.252065
H59   H     H_    0.501395 0.444733 0.661209 0.236578
H60   H     H_    0.421257 0.386877 0.517209 0.273433
O2    O     O_3   0.478507 0.378583 0.179315 -0.668586
C85   C     C_3   0.511268 0.322701 0.111653 0.261254
H61   H     H_    0.602856 0.362745 0.158471 0.136871
H62   H     H_    0.491608 0.327799 0.036652 0.073324
C86   C     C_3   0.461287 0.203046 0.080999 -0.994168
H63   H     H_    0.372773 0.154766 0.017095 0.236060
H64   H     H_    0.505657 0.168167 0.047830 0.238674
H65   H     H_    0.468709 0.196402 0.153962 0.281118
O3    O     O_3   0.065733 0.322047 0.945179 -0.632830
C87   C     C_3   0.049709 0.313327 0.843657 0.251917
H66   H     H_    0.079461 0.261880 0.804099 0.097928
H67   H     H_    0.093348 0.395965 0.854478 0.098308
C88   C     C_3   0.926575 0.259978 0.766763 -0.858023
H68   H     H_    0.894197 0.310410 0.801686 0.253642
H69   H     H_    0.913046 0.252691 0.686796 0.212236
H70   H     H_    0.880471 0.176898 0.753874 0.254754
O4    O     O_3   0.517567 0.772850 0.926581 -0.667829
C89   C     C_3   0.480281 0.692239 0.955374 0.237888
H71   H     H_    0.547156 0.680297 0.999003 0.105176
H72   H     H_    0.412617 0.612718 0.880629 0.107692
C90   C     C_3   0.436370 0.726454 0.031940 -0.924746
H73   H     H_    0.357499 0.721474 0.987548 0.260409
H74   H     H_    0.420426 0.670839 0.065217 0.215687
H75   H     H_    0.498236 0.811429 0.101028 0.258117

loop_
_geom_bond_atom_site_label_1
_geom_bond_atom_site_label_2
_ccdc_geom_bond_type
C53   H28   S    
C66   C68   A    
C9    N17   S    
C40   C41   A    
C84   H58   S    
C5    N16   A    
N18   H53   S    
C34   H30   S    
C73   C74   A    
C54   C55   A    
N6    Ni1   S    
C3    C23   A    
C35   C36   A    
N13   Ni1   S    
C1    N1    A    
C2    C12   A    
C24   H7    S    
N3    N6    A    
O1    C83   S    
N4    N5    A    
C20   C30   S    
C86   H63   S    
C65   C66   A    
C26   C27   A    
C29   C30   A    
C65   O3    S    
C28   H13   S    
C18   C24   A    
C13   N8    A    
C28   C29   A    
C11   N7    A    
C27   C37   S    
C33   H16   S    
C6    N2    A    
C69   C70   A    
N10   N12   A    
C38   C39   A    
C11   C14   A    
N4    Ni4   S    
C86   H65   S    
C48   H25   S    
C85   H61   S    
C58   C60   S    
C31   H14   S    
N3    Ni3   S    
C32   H15   S    
C18   C19   A    
C41   C42   A    
C90   H74   S    
C68   H36   S    
C6    C15   A    
N15   Ni3   S    
C34   N11   A    
N16   Ni1   S    
C11   H5    S    
C51   H26   S    
C67   N14   A    
C47   C48   A    
C12   N9    A    
C70   C71   A    
C51   C57   A    
C10   N6    A    
C8    H4    S    
C4    C29   S    
C72   C73   A    
C88   H69   S    
C17   C70   S    
C84   H59   S    
C66   H38   S    
C21   C22   A    
C4    C56   A    
C8    N4    A    
N19   H55   S    
C76   H43   S    
C67   H47   S    
C42   H23   S    
C44   C46   A    
N10   Ni3   S    
N5    Ni2   S    
C83   H57   S    
C86   H64   S    
C4    C34   A    
C6    H2    S    
C63   C64   A    
C61   H35   S    
C75   H42   S    
N1    Ni1   S    
O2    C85   S    
C87   H66   S    
N2    Ni2   S    
C43   H18   S    
C7    N3    A    
C2    C67   A    
C16   C46   S    
C39   C40   A    
C75   C81   A    
C15   C26   S    
C55   H31   S    
C45   H39   S    
C25   C26   A    
C88   H68   S    
C14   C61   S    
C3    C45   A    
C51   C52   A    
C60   C61   D    
C18   H8    S    
N11   Ni4   S    
C10   N18   S    
C90   H75   S    
C75   C76   A    
C62   C63   A    
C2    C49   S    
C47   C57   S    
C83   C84   S    
C63   H37   S    
C78   C82   A    
C31   C32   A    
N12   Ni2   S    
N7    N16   A    
C77   C79   A    
C69   C74   A    
C35   O1    S    
C76   C77   A    
C39   H21   S    
N2    N8    A    
C5    C14   A    
N14   Ni4   S    
C9    C17   A    
C48   C49   A    
N17   H51   S    
O3    C87   S    
C84   H60   S    
C52   H27   S    
C13   C15   A    
C72   H41   S    
N19   H54   S    
C22   C24   A    
C60   H34   S    
C42   C43   A    
C89   H72   S    
C73   C82   S    
N18   H52   S    
C52   C53   A    
C45   N12   A    
C83   H56   S    
C88   H70   S    
C44   C50   A    
C25   C30   A    
C62   O2    S    
C46   C47   A    
C36   C37   A    
C79   O4    S    
C12   H10   S    
C7    C16   A    
C80   C81   A    
N9    N14   A    
C87   H67   S    
C53   C54   A    
C80   H45   S    
C44   H24   S    
N7    Ni4   S    
C1    H1    S    
C22   N19   S    
N8    Ni3   S    
C8    C17   A    
C41   H22   S    
C62   C68   A    
N1    N15   A    
C64   C65   A    
C19   C20   A    
C55   C57   A    
C1    C82   A    
C25   H12   S    
C38   C43   A    
C38   H20   S    
C10   C16   A    
C32   C33   A    
O4    C89   S    
C23   H19   S    
C85   H62   S    
C69   H40   S    
C89   C90   S    
C40   C50   S    
C13   H6    S    
C33   C35   A    
C54   H29   S    
C36   H17   S    
N11   N13   A    
C56   H46   S    
C78   H48   S    
C90   H73   S    
C21   H11   S    
C58   C59   D    
C87   C88   S    
C19   H9    S    
C78   N15   A    
C79   C80   A    
C56   N13   A    
C9    N5    A    
C31   C37   A    
C5    H49   S    
C7    H3    S    
C71   C72   A    
C20   C21   A    
C59   H33   S    
C49   C50   A    
C27   C28   A    
C58   H32   S    
C64   C74   S    
C23   N10   A    
N17   H50   S    
C89   H71   S    
N9    Ni2   S    
C77   H44   S    
C71   C81   S    
C85   C86   S    
C3    C59   S    
