data_mof_unit_45677.cif
_audit_creation_date              2012-12-10T17:26:07-0500
_audit_creation_method            fapswitch 2.2
_symmetry_space_group_name_H-M    P1
_symmetry_Int_Tables_number       1
_space_group_crystal_system       triclinic
_cell_length_a                    26.021365
_cell_length_b                    25.93736
_cell_length_c                    22.365782
_cell_angle_alpha                 89.985521
_cell_angle_beta                  126.642292
_cell_angle_gamma                 90.007345
_cell_volume                      12112.0729249

loop_
_atom_site_label
_atom_site_type_symbol
_atom_type_description
_atom_site_fract_x
_atom_site_fract_y
_atom_site_fract_z
_atom_type_partial_charge
C1    C     C_R   0.900125 0.749738 0.300569 0.822228
C2    C     C_R   0.099834 0.250296 0.699447 0.816094
C3    C     C_R   0.099876 0.749725 0.699427 0.823257
C4    C     C_R   0.900149 0.250285 0.300553 0.816313
C5    C     C_R   0.400124 0.249740 0.300569 0.822295
C6    C     C_R   0.599832 0.750297 0.699447 0.816067
C7    C     C_R   0.599876 0.249726 0.699427 0.823275
C8    C     C_R   0.400149 0.750285 0.300553 0.816311
C9    C     C_3   0.188762 0.759333 0.973305 -0.164092
C10   C     C_3   0.811206 0.243651 0.026513 -0.163711
C11   C     C_3   0.811576 0.756483 0.026640 -0.164518
C12   C     C_3   0.188659 0.256000 0.973617 -0.164964
C13   C     C_3   0.688155 0.255575 0.973328 -0.164773
C14   C     C_3   0.310588 0.739874 0.026538 -0.163385
C15   C     C_3   0.311617 0.243872 0.026508 -0.166557
C16   C     C_3   0.688687 0.743360 0.973484 -0.163954
C17   C     C_1   0.139861 0.749116 0.778874 -0.164136
C18   C     C_1   0.859962 0.250618 0.221063 -0.154967
C19   C     C_1   0.860070 0.749246 0.221119 -0.164123
C20   C     C_1   0.139936 0.250720 0.778930 -0.155088
C21   C     C_1   0.639865 0.249121 0.778874 -0.164107
C22   C     C_1   0.359960 0.750617 0.221063 -0.154963
C23   C     C_1   0.360064 0.249256 0.221119 -0.164095
C24   C     C_1   0.639929 0.750723 0.778929 -0.155084
C25   C     C_3   0.253260 0.703063 0.976257 -0.165484
C26   C     C_3   0.742475 0.294809 0.023480 -0.162048
C27   C     C_3   0.743498 0.704497 0.023671 -0.164682
C28   C     C_3   0.267881 0.289130 0.976754 -0.161949
C29   C     C_3   0.756888 0.204416 0.976366 -0.165251
C30   C     C_3   0.246091 0.796144 0.023586 -0.162299
C31   C     C_3   0.232387 0.210742 0.023358 -0.164244
C32   C     C_3   0.756760 0.795347 0.976443 -0.162485
C33   C     C_3   0.213457 0.749157 0.926888 0.207858
C34   C     C_3   0.785921 0.250067 0.072981 0.206778
C35   C     C_3   0.786362 0.749479 0.073098 0.208208
C36   C     C_3   0.213897 0.250372 0.927005 0.207116
C37   C     C_3   0.713463 0.249167 0.926888 0.207828
C38   C     C_3   0.285917 0.750060 0.072981 0.206674
C39   C     C_3   0.286359 0.249500 0.073098 0.208279
C40   C     C_3   0.713883 0.750366 0.927004 0.206813
C41   C     C_1   0.173189 0.748935 0.845736 -0.093197
C42   C     C_1   0.826398 0.250513 0.154171 -0.091593
C43   C     C_1   0.826681 0.749175 0.154253 -0.093160
C44   C     C_1   0.173449 0.250720 0.845819 -0.091802
C45   C     C_1   0.673194 0.248944 0.845737 -0.093208
C46   C     C_1   0.326395 0.750509 0.154171 -0.091583
C47   C     C_1   0.326674 0.249193 0.154253 -0.093242
C48   C     C_1   0.673437 0.750721 0.845818 -0.091733
C49   C     C_R   0.744223 0.680617 0.398271 -0.135796
C50   C     C_R   0.261798 0.310561 0.611704 -0.143893
C51   C     C_R   0.253656 0.678003 0.597904 -0.134309
C52   C     C_R   0.738957 0.311891 0.389764 -0.143749
C53   C     C_R   0.244222 0.180620 0.398268 -0.135778
C54   C     C_R   0.761791 0.810574 0.611688 -0.143901
C55   C     C_R   0.753659 0.178007 0.597913 -0.134305
C56   C     C_R   0.238974 0.811920 0.389796 -0.143726
C57   C     C_R   0.685421 0.667262 0.332716 -0.200697
C58   C     C_R   0.321303 0.321251 0.677989 -0.221408
C59   C     C_R   0.312063 0.663379 0.663020 -0.199847
C60   C     C_R   0.679674 0.323613 0.323801 -0.221533
C61   C     C_R   0.185420 0.167267 0.332711 -0.200820
C62   C     C_R   0.821295 0.821270 0.677972 -0.221292
C63   C     C_R   0.812066 0.163387 0.663031 -0.199910
C64   C     C_R   0.179694 0.823656 0.323839 -0.221471
C65   C     C_R   0.630144 0.691714 0.313616 -0.204884
C66   C     C_R   0.375681 0.296495 0.694768 -0.152038
C67   C     C_R   0.367870 0.687641 0.683490 -0.206737
C68   C     C_R   0.624861 0.299163 0.306186 -0.152221
C69   C     C_R   0.130144 0.191719 0.313613 -0.204856
C70   C     C_R   0.875674 0.796514 0.694756 -0.152122
C71   C     C_R   0.867872 0.187648 0.683496 -0.206706
C72   C     C_R   0.124876 0.799209 0.306212 -0.152308
C73   C     C_R   0.632478 0.726343 0.363208 0.277227
C74   C     C_R   0.372070 0.263651 0.642315 0.281129
C75   C     C_R   0.366429 0.723400 0.635572 0.278838
C76   C     C_R   0.627852 0.265504 0.357516 0.285613
C77   C     C_R   0.132479 0.226345 0.363208 0.277270
C78   C     C_R   0.872066 0.763663 0.642310 0.281051
C79   C     C_R   0.866429 0.223403 0.635572 0.278870
C80   C     C_R   0.127860 0.765537 0.357527 0.285555
C81   C     C_R   0.691370 0.734324 0.435288 0.045531
C82   C     C_R   0.312335 0.259294 0.569878 -0.006583
C83   C     C_R   0.307867 0.732706 0.563617 0.045389
C84   C     C_R   0.687472 0.259993 0.429845 -0.006419
C85   C     C_R   0.191372 0.234324 0.435290 0.045533
C86   C     C_R   0.812332 0.759301 0.569874 -0.006550
C87   C     C_R   0.807866 0.232707 0.563616 0.045384
C88   C     C_R   0.187478 0.760011 0.429854 -0.006364
C89   C     C_R   0.138475 0.746418 0.496616 0.821243
C90   C     C_R   0.860729 0.252799 0.502467 0.849355
C91   C     C_R   0.861308 0.746573 0.503032 0.823715
C92   C     C_R   0.139289 0.252794 0.497627 0.848734
C93   C     C_R   0.638475 0.246418 0.496617 0.821251
C94   C     C_R   0.360731 0.752801 0.502470 0.849345
C95   C     C_R   0.361308 0.246573 0.503032 0.823731
C96   C     C_R   0.639288 0.752795 0.497625 0.848712
C97   C     C_R   0.748593 0.717878 0.447454 0.045016
C98   C     C_R   0.255418 0.275827 0.558742 0.044035
C99   C     C_R   0.250271 0.716346 0.550553 0.046293
C100  C     C_R   0.744724 0.276370 0.441626 0.044174
C101  C     C_R   0.248593 0.217878 0.447453 0.045059
C102  C     C_R   0.755414 0.775835 0.558735 0.043995
C103  C     C_R   0.750271 0.216346 0.550556 0.046310
C104  C     C_R   0.244733 0.776388 0.441642 0.044155
C105  C     C_R   0.694855 0.757931 0.494862 -0.200795
C106  C     C_R   0.308008 0.238122 0.508960 -0.212388
C107  C     C_R   0.304998 0.757554 0.505060 -0.201720
C108  C     C_R   0.691374 0.237805 0.490001 -0.213501
C109  C     C_R   0.194857 0.257928 0.494866 -0.200802
C110  C     C_R   0.808007 0.738125 0.508959 -0.212375
C111  C     C_R   0.804993 0.257548 0.505053 -0.201710
C112  C     C_R   0.191375 0.737810 0.490001 -0.213500
C113  C     C_R   0.897060 0.946316 0.373967 -0.144658
C114  C     C_R   0.102924 0.053684 0.626040 -0.145839
C115  C     C_R   0.102940 0.946283 0.626018 -0.144521
C116  C     C_R   0.897043 0.053716 0.373989 -0.145547
C117  C     C_R   0.397061 0.446316 0.373965 -0.144669
C118  C     C_R   0.602926 0.553684 0.626039 -0.145831
C119  C     C_R   0.602941 0.446283 0.626018 -0.144538
C120  C     C_R   0.397044 0.553716 0.373988 -0.145533
C121  C     C_R   0.846811 0.973245 0.312520 -0.144551
C122  C     C_R   0.153165 0.026754 0.687494 -0.145545
C123  C     C_R   0.153173 0.973196 0.687483 -0.144645
C124  C     C_R   0.846802 0.026803 0.312531 -0.144868
C125  C     C_R   0.346813 0.473245 0.312518 -0.144729
C126  C     C_R   0.653167 0.526754 0.687492 -0.145364
C127  C     C_R   0.653175 0.473196 0.687481 -0.144681
C128  C     C_R   0.346804 0.526803 0.312530 -0.144827
C129  C     C_R   0.948997 0.027246 0.436920 0.072274
C130  C     C_R   0.050992 0.972753 0.563082 0.072451
C131  C     C_R   0.050984 0.027230 0.563092 0.072346
C132  C     C_R   0.949005 0.972770 0.436909 0.072414
C133  C     C_R   0.448997 0.527246 0.436919 0.072267
C134  C     C_R   0.550992 0.472753 0.563081 0.072458
C135  C     C_R   0.550985 0.527230 0.563092 0.072324
C136  C     C_R   0.449006 0.472770 0.436908 0.072438
C137  C     C_R   0.999990 0.054050 0.500009 -0.156533
C138  C     C_R   0.000004 0.945949 0.499989 -0.156011
C139  C     C_R   0.499990 0.554050 0.500009 -0.156533
C140  C     C_R   0.500004 0.445949 0.499989 -0.156010
C141  C     C_R   1.000000 0.889815 0.499994 0.783324
C142  C     C_R   0.999997 0.110184 0.500004 0.785671
C143  C     C_R   0.500000 0.389815 0.499994 0.783322
C144  C     C_R   0.499997 0.610184 0.500004 0.785671
C145  C     C_R   0.000052 0.609731 0.500221 0.887658
C146  C     C_R   0.000009 0.390094 0.500153 0.921573
C147  C     C_R   0.500051 0.109731 0.500221 0.887655
C148  C     C_R   0.500009 0.890094 0.500150 0.921580
C149  C     C_R   0.977786 0.550913 0.373559 0.093300
C150  C     C_R   0.984072 0.447819 0.600085 0.125243
C151  C     C_R   0.025586 0.550627 0.628528 0.115973
C152  C     C_R   0.017566 0.447630 0.401494 0.112684
C153  C     C_R   0.477767 0.050911 0.373548 0.093212
C154  C     C_R   0.484103 0.947811 0.600106 0.125237
C155  C     C_R   0.525600 0.050624 0.628537 0.115940
C156  C     C_R   0.517546 0.947628 0.401477 0.112683
C157  C     C_R   0.989003 0.525065 0.326818 0.133262
C158  C     C_R   0.993999 0.473740 0.661526 0.149605
C159  C     C_R   0.014702 0.525194 0.675651 0.119183
C160  C     C_R   0.008613 0.473581 0.340787 0.171666
C161  C     C_R   0.488971 0.025062 0.326796 0.133287
C162  C     C_R   0.494053 0.973726 0.661563 0.149648
C163  C     C_R   0.514739 0.025184 0.675675 0.119136
C164  C     C_R   0.508581 0.973577 0.340763 0.171720
C165  C     C_R   0.004558 0.472870 0.447933 -0.059530
C166  C     C_R   0.009024 0.526335 0.561533 -0.060607
C167  C     C_R   0.996896 0.472906 0.553344 -0.057815
C168  C     C_R   0.992961 0.526430 0.439874 -0.041528
C169  C     C_R   0.504548 0.972870 0.447925 -0.059536
C170  C     C_R   0.509033 0.026333 0.561538 -0.060596
C171  C     C_R   0.496908 0.972904 0.553351 -0.057834
C172  C     C_R   0.492952 0.026429 0.439868 -0.041515
C173  C     C_R   0.000235 0.446071 0.500287 -0.078623
C174  C     C_R   0.000476 0.553527 0.500412 -0.088216
C175  C     C_R   0.500236 0.946070 0.500286 -0.078616
C176  C     C_R   0.500475 0.053526 0.500412 -0.088219
C177  C     C_3   0.732265 0.210828 0.024171 -0.164519
C178  C     C_3   0.270113 0.785960 0.975833 -0.163799
C179  C     C_3   0.256968 0.205115 0.975418 -0.164381
C180  C     C_3   0.732220 0.788339 0.024246 -0.163972
C181  C     C_3   0.229251 0.713245 0.024039 -0.164470
C182  C     C_3   0.767110 0.288395 0.975701 -0.163490
C183  C     C_3   0.768035 0.711503 0.975860 -0.164322
C184  C     C_3   0.243299 0.294756 0.024691 -0.163183
H1    H     H_    0.192459 0.952375 0.735135 0.130919
H2    H     H_    0.807510 0.047624 0.264885 0.130953
H3    H     H_    0.807526 0.952436 0.264865 0.130933
H4    H     H_    0.192444 0.047563 0.735156 0.130675
H5    H     H_    0.692461 0.452375 0.735133 0.130876
H6    H     H_    0.307512 0.547624 0.264883 0.130999
H7    H     H_    0.307529 0.452436 0.264862 0.130860
H8    H     H_    0.692447 0.547562 0.735153 0.130750
H9    H     H_    0.894362 0.904671 0.371617 0.127078
H10   H     H_    0.105624 0.095328 0.628390 0.127425
H11   H     H_    0.105653 0.904639 0.628350 0.127101
H12   H     H_    0.894330 0.095361 0.371659 0.127502
H13   H     H_    0.394363 0.404671 0.371615 0.127075
H14   H     H_    0.605625 0.595328 0.628388 0.127426
H15   H     H_    0.605654 0.404639 0.628350 0.127098
H16   H     H_    0.394331 0.595361 0.371658 0.127503
H17   H     H_    0.138135 0.767273 0.950214 0.129909
H18   H     H_    0.862308 0.238789 0.049500 0.129284
H19   H     H_    0.862637 0.761828 0.049697 0.130023
H20   H     H_    0.137602 0.261016 0.950743 0.129236
H21   H     H_    0.637028 0.260424 0.950259 0.130055
H22   H     H_    0.361191 0.731918 0.049550 0.129326
H23   H     H_    0.362698 0.238865 0.049464 0.130482
H24   H     H_    0.637650 0.738004 0.950506 0.129267
H25   H     H_    0.718497 0.178988 0.045197 0.129302
H26   H     H_    0.286350 0.815806 0.954914 0.129493
H27   H     H_    0.262036 0.168313 0.954052 0.129469
H28   H     H_    0.718056 0.819876 0.045245 0.129192
H29   H     H_    0.213013 0.683398 0.044955 0.129312
H30   H     H_    0.780876 0.320234 0.954670 0.129516
H31   H     H_    0.782200 0.679968 0.954863 0.129232
H32   H     H_    0.238233 0.331557 0.046059 0.129431
H33   H     H_    0.737124 0.331930 0.043949 0.131500
H34   H     H_    0.255589 0.664844 0.955645 0.129144
H35   H     H_    0.281885 0.321325 0.956491 0.131031
H36   H     H_    0.738642 0.667195 0.044222 0.129058
H37   H     H_    0.243716 0.834368 0.044147 0.131520
H38   H     H_    0.762196 0.167298 0.955847 0.129313
H39   H     H_    0.761629 0.832655 0.955919 0.130989
H40   H     H_    0.218400 0.178549 0.043644 0.129543
H41   H     H_    0.920189 0.803300 0.749013 0.142177
H42   H     H_    0.085402 0.184268 0.259621 0.133654
H43   H     H_    0.080494 0.806894 0.252202 0.142645
H44   H     H_    0.912334 0.179133 0.737273 0.133404
H45   H     H_    0.420196 0.303277 0.749026 0.142225
H46   H     H_    0.585403 0.684261 0.259625 0.133621
H47   H     H_    0.580478 0.306836 0.252171 0.142955
H48   H     H_    0.412331 0.679122 0.737267 0.133119
H49   H     H_    0.785234 0.659173 0.411204 0.176392
H50   H     H_    0.222390 0.332551 0.601928 0.181266
H51   H     H_    0.212026 0.656878 0.583759 0.174221
H52   H     H_    0.778720 0.333674 0.400165 0.180863
H53   H     H_    0.285232 0.159175 0.411198 0.176374
H54   H     H_    0.722380 0.832564 0.601907 0.181279
H55   H     H_    0.712031 0.156882 0.583772 0.174223
H56   H     H_    0.278743 0.833700 0.400208 0.180856
O1    O     O_3   1.000000 0.750000 0.500000 -0.481058
O2    O     O_3   0.000000 0.250000 0.500000 -0.478312
O3    O     O_3   0.500000 0.250000 0.500000 -0.481056
O4    O     O_3   0.500000 0.750000 0.500000 -0.478313
O5    O     O_R   0.887450 0.719640 0.335600 -0.648190
O6    O     O_R   0.112550 0.280360 0.664400 -0.641515
O7    O     O_R   0.112550 0.719640 0.664400 -0.649466
O8    O     O_R   0.887450 0.280360 0.335600 -0.640825
O9    O     O_R   0.387450 0.219640 0.335600 -0.648248
O10   O     O_R   0.612550 0.780360 0.664400 -0.641496
O11   O     O_R   0.612550 0.219640 0.664400 -0.649491
O12   O     O_R   0.387450 0.780360 0.335600 -0.640807
O13   O     O_R   0.094250 0.780350 0.456890 -0.608965
O14   O     O_R   0.905750 0.219650 0.543110 -0.618788
O15   O     O_R   0.905750 0.780350 0.543110 -0.608310
O16   O     O_R   0.094250 0.219650 0.456890 -0.620491
O17   O     O_R   0.594250 0.280350 0.456890 -0.608958
O18   O     O_R   0.405750 0.719650 0.543110 -0.618794
O19   O     O_R   0.405750 0.280350 0.543110 -0.608302
O20   O     O_R   0.594250 0.719650 0.456890 -0.620499
O21   O     O_R   0.008810 0.865800 0.456890 -0.637216
O22   O     O_R   0.991190 0.134200 0.543110 -0.638850
O23   O     O_R   0.991190 0.865800 0.543110 -0.637367
O24   O     O_R   0.008810 0.134200 0.456890 -0.638698
O25   O     O_R   0.508810 0.365800 0.456890 -0.637239
O26   O     O_R   0.491190 0.634200 0.543110 -0.638830
O27   O     O_R   0.491190 0.365800 0.543110 -0.637355
O28   O     O_R   0.508810 0.634200 0.456890 -0.638711
O29   O     O_R   0.948090 0.634190 0.456900 -0.629665
O30   O     O_R   0.051910 0.365810 0.543100 -0.635761
O31   O     O_R   0.051910 0.634190 0.543100 -0.634814
O32   O     O_R   0.948090 0.365810 0.456900 -0.636117
O33   O     O_R   0.448090 0.134190 0.456900 -0.629680
O34   O     O_R   0.551910 0.865810 0.543100 -0.635780
O35   O     O_R   0.551910 0.134190 0.543100 -0.634804
O36   O     O_R   0.448090 0.865810 0.456900 -0.636114
O37   O     O_R   0.137350 0.719630 0.543100 -0.663636
O38   O     O_R   0.862650 0.280370 0.456900 -0.666245
O39   O     O_R   0.862650 0.719630 0.456900 -0.664955
O40   O     O_R   0.137350 0.280370 0.543100 -0.666442
O41   O     O_R   0.637350 0.219630 0.543100 -0.663642
O42   O     O_R   0.362650 0.780370 0.456900 -0.666231
O43   O     O_R   0.362650 0.219630 0.456900 -0.664967
O44   O     O_R   0.637350 0.780370 0.543100 -0.666428
O45   O     O_R   0.948170 0.780360 0.335600 -0.621432
O46   O     O_R   0.051830 0.219640 0.664400 -0.642872
O47   O     O_R   0.051830 0.780360 0.664400 -0.622000
O48   O     O_R   0.948170 0.219640 0.335600 -0.644050
O49   O     O_R   0.448170 0.280360 0.335600 -0.621408
O50   O     O_R   0.551830 0.719640 0.664400 -0.642880
O51   O     O_R   0.551830 0.280360 0.664400 -0.621971
O52   O     O_R   0.448170 0.719640 0.335600 -0.644068
Zn1   Zn    Zn3+2 0.074160 0.706620 0.561580 0.945302
Zn2   Zn    Zn3+2 0.925840 0.293380 0.438420 0.962917
Zn3   Zn    Zn3+2 0.925840 0.706620 0.438420 0.948136
Zn4   Zn    Zn3+2 0.074160 0.293380 0.561580 0.962393
Zn5   Zn    Zn3+2 0.574160 0.206620 0.561580 0.945299
Zn6   Zn    Zn3+2 0.425840 0.793380 0.438420 0.962930
Zn7   Zn    Zn3+2 0.425840 0.206620 0.438420 0.948098
Zn8   Zn    Zn3+2 0.574160 0.793380 0.561580 0.962392
Zn9   Zn    Zn3+2 0.012590 0.793370 0.438410 0.981335
Zn10  Zn    Zn3+2 0.987410 0.206630 0.561590 0.969122
Zn11  Zn    Zn3+2 0.987410 0.793370 0.561590 0.981996
Zn12  Zn    Zn3+2 0.012590 0.206630 0.438410 0.968697
Zn13  Zn    Zn3+2 0.512590 0.293370 0.438410 0.981359
Zn14  Zn    Zn3+2 0.487410 0.706630 0.561590 0.969112
Zn15  Zn    Zn3+2 0.487410 0.293370 0.561590 0.982035
Zn16  Zn    Zn3+2 0.512590 0.706630 0.438410 0.968667
N1    N     N_2   0.022154 0.552979 0.735405 -0.312888
H57   H     H_    0.983211 0.552962 0.736676 0.213154
C185  C     C_3   0.083784 0.549869 0.807672 -0.793962
H58   H     H_    0.077958 0.533172 0.849045 0.229113
H59   H     H_    0.104005 0.589249 0.826178 0.242411
H60   H     H_    0.118197 0.525542 0.806297 0.240482
N2    N     N_2   0.017766 0.446594 0.292303 -0.301159
H61   H     H_    0.042128 0.467173 0.277036 0.249351
C186  C     C_3   0.960140 0.422961 0.229055 -0.818267
H62   H     H_    0.924399 0.452993 0.192269 0.251973
H63   H     H_    0.938993 0.396349 0.247941 0.238063
H64   H     H_    0.971887 0.400437 0.196455 0.237917
N3    N     N_2   0.978900 0.550111 0.263841 -0.306649
H65   H     H_    0.936300 0.569904 0.230650 0.230398
C187  C     C_3   0.033272 0.579526 0.280463 -0.834974
H66   H     H_    0.022591 0.595480 0.228068 0.246711
H67   H     H_    0.076373 0.554619 0.306927 0.245522
H68   H     H_    0.043711 0.611918 0.318614 0.230437
N4    N     N_2   0.983023 0.447175 0.708823 -0.298342
H69   H     H_    0.961380 0.468649 0.726828 0.224940
C188  C     C_3   0.037132 0.417683 0.768146 -0.813729
H70   H     H_    0.076828 0.443546 0.809029 0.250014
H71   H     H_    0.054867 0.390653 0.745717 0.235916
H72   H     H_    0.022431 0.394991 0.797723 0.235338
N5    N     N_2   0.522196 0.052966 0.735433 -0.312942
H73   H     H_    0.483245 0.052961 0.736691 0.213141
C189  C     C_3   0.583816 0.049829 0.807708 -0.793788
H74   H     H_    0.618237 0.025524 0.806320 0.240369
H75   H     H_    0.577973 0.033095 0.849049 0.229089
H76   H     H_    0.604036 0.089206 0.826261 0.242661
N6    N     N_2   0.517720 0.946589 0.292268 -0.301118
H77   H     H_    0.542070 0.967168 0.276984 0.249352
C190  C     C_3   0.460089 0.922951 0.229034 -0.818541
H78   H     H_    0.424342 0.952979 0.192250 0.251963
H79   H     H_    0.438954 0.896339 0.247936 0.238036
H80   H     H_    0.471827 0.900424 0.196427 0.237989
N7    N     N_2   0.478854 0.050107 0.263811 -0.306625
H81   H     H_    0.436253 0.069899 0.230628 0.230574
C191  C     C_3   0.533220 0.079521 0.280416 -0.835238
H82   H     H_    0.522526 0.095478 0.228016 0.246564
H83   H     H_    0.576319 0.054612 0.306864 0.245579
H84   H     H_    0.543671 0.111910 0.318575 0.230511
N8    N     N_2   0.483121 0.947150 0.708891 -0.298300
H85   H     H_    0.461521 0.968621 0.726953 0.225009
C192  C     C_3   0.537242 0.917640 0.768166 -0.813988
H86   H     H_    0.576965 0.943491 0.809032 0.249753
H87   H     H_    0.554929 0.890609 0.745684 0.235812
H88   H     H_    0.522576 0.894949 0.797779 0.235776
N9    N     N_2   0.942450 0.597758 0.347435 -0.281681
H89   H     H_    0.955985 0.623708 0.324317 0.213298
C193  C     C_3   0.873745 0.590248 0.303014 -0.716439
H90   H     H_    0.849050 0.628065 0.285928 0.252498
H91   H     H_    0.860884 0.569555 0.335915 0.244526
H92   H     H_    0.856437 0.567719 0.251978 0.201345
N10   N     N_2   0.952737 0.399114 0.579670 -0.295202
H93   H     H_    0.972100 0.372910 0.622515 0.232221
C194  C     C_3   0.883774 0.402759 0.536265 -0.739417
H94   H     H_    0.869694 0.422909 0.568310 0.231865
H95   H     H_    0.862872 0.363609 0.522788 0.232478
H96   H     H_    0.864070 0.423758 0.483374 0.243032
N11   N     N_2   0.061268 0.597367 0.654588 -0.272713
H97   H     H_    0.051522 0.621680 0.683138 0.231819
C195  C     C_3   0.129321 0.590169 0.691764 -0.680473
H98   H     H_    0.153858 0.628037 0.707925 0.247504
H99   H     H_    0.137792 0.570706 0.654097 0.236465
H100  H     H_    0.150891 0.566656 0.742869 0.210126
N12   N     N_2   0.047356 0.398341 0.420796 -0.294170
H101  H     H_    0.026940 0.372771 0.377050 0.232956
C196  C     C_3   0.116383 0.400811 0.463769 -0.734964
H102  H     H_    0.136281 0.361369 0.476026 0.234248
H103  H     H_    0.136956 0.421198 0.517296 0.243216
H104  H     H_    0.130707 0.421002 0.431977 0.229218
N13   N     N_2   0.442429 0.097756 0.347428 -0.281698
H105  H     H_    0.455954 0.123704 0.324298 0.213337
C197  C     C_3   0.373725 0.090245 0.303027 -0.716076
H106  H     H_    0.349030 0.128061 0.285945 0.252436
H107  H     H_    0.360878 0.069553 0.335942 0.244398
H108  H     H_    0.356406 0.067713 0.251989 0.201613
N14   N     N_2   0.452760 0.899108 0.579689 -0.295197
H109  H     H_    0.472129 0.872898 0.622526 0.232211
C198  C     C_3   0.383800 0.902760 0.536307 -0.739465
H110  H     H_    0.369738 0.922904 0.568375 0.231876
H111  H     H_    0.362893 0.863612 0.522824 0.232465
H112  H     H_    0.364086 0.923767 0.483420 0.243032
N15   N     N_2   0.561271 0.097368 0.654589 -0.272685
H113  H     H_    0.551520 0.121679 0.683136 0.231826
C199  C     C_3   0.629327 0.090177 0.691772 -0.680477
H114  H     H_    0.637805 0.070713 0.654111 0.236441
H115  H     H_    0.650898 0.066669 0.742881 0.210124
H116  H     H_    0.653858 0.128048 0.707928 0.247476
N16   N     N_2   0.547337 0.898340 0.420776 -0.294179
H117  H     H_    0.526917 0.872769 0.377030 0.232961
C200  C     C_3   0.616363 0.900810 0.463741 -0.735006
H118  H     H_    0.636261 0.861368 0.476000 0.234249
H119  H     H_    0.636940 0.921200 0.517267 0.243221
H120  H     H_    0.630682 0.920999 0.431942 0.229217
H121  H     H_    0.683068 0.639120 0.295407 0.148886
H122  H     H_    0.324954 0.347850 0.717677 0.150220
H123  H     H_    0.313705 0.634423 0.698999 0.148438
H124  H     H_    0.676518 0.350809 0.284985 0.150728
H125  H     H_    0.183066 0.139127 0.295399 0.148772
H126  H     H_    0.824944 0.847874 0.717655 0.150351
H127  H     H_    0.813710 0.134434 0.699015 0.148437
H128  H     H_    0.176544 0.850862 0.285037 0.150724
N17   N     N_2   0.577340 0.756890 0.336981 -0.295897
H129  H     H_    0.534654 0.738506 0.298037 0.236973
C201  C     C_3   0.579988 0.807776 0.312604 -0.845184
H130  H     H_    0.535377 0.828910 0.292408 0.250769
H131  H     H_    0.584097 0.805003 0.266006 0.243513
H132  H     H_    0.621427 0.829668 0.359361 0.256974
N18   N     N_2   0.425524 0.231969 0.662327 -0.284670
H133  H     H_    0.413242 0.197194 0.634577 0.195715
C202  C     C_3   0.481449 0.228641 0.739303 -0.789564
H134  H     H_    0.516397 0.201178 0.743876 0.227948
H135  H     H_    0.467789 0.214390 0.774895 0.227106
H136  H     H_    0.505327 0.266784 0.759141 0.251977
N19   N     N_2   0.422254 0.753447 0.663360 -0.292463
H137  H     H_    0.464542 0.735133 0.703679 0.235391
C203  C     C_3   0.419079 0.804994 0.685413 -0.844180
H138  H     H_    0.464026 0.825626 0.705955 0.247901
H139  H     H_    0.413666 0.803542 0.731069 0.243257
H140  H     H_    0.378299 0.826557 0.637349 0.255879
N20   N     N_2   0.573755 0.234284 0.336411 -0.281329
H141  H     H_    0.585330 0.199569 0.364157 0.191272
C204  C     C_3   0.518681 0.230957 0.258960 -0.800747
H142  H     H_    0.483288 0.203516 0.253425 0.227565
H143  H     H_    0.533329 0.216687 0.224341 0.228586
H144  H     H_    0.494837 0.269081 0.238692 0.253953
N21   N     N_2   0.077340 0.256892 0.336984 -0.295902
H145  H     H_    0.034654 0.238507 0.298040 0.236980
C205  C     C_3   0.079987 0.307778 0.312609 -0.845322
H146  H     H_    0.035375 0.328911 0.292412 0.250731
H147  H     H_    0.084097 0.305008 0.266011 0.243516
H148  H     H_    0.121425 0.329671 0.359366 0.257030
N22   N     N_2   0.925521 0.731981 0.662329 -0.284777
H149  H     H_    0.913240 0.697203 0.634586 0.195688
C206  C     C_3   0.981446 0.728661 0.739304 -0.788991
H150  H     H_    0.016396 0.701195 0.743882 0.227954
H151  H     H_    0.967787 0.714415 0.774900 0.227165
H152  H     H_    0.005322 0.766805 0.759134 0.251812
N23   N     N_2   0.922255 0.253447 0.663354 -0.292411
H153  H     H_    0.964543 0.235131 0.703670 0.235525
C207  C     C_3   0.919087 0.304995 0.685412 -0.844628
H154  H     H_    0.964038 0.325621 0.705958 0.247770
H155  H     H_    0.913674 0.303544 0.731068 0.243206
H156  H     H_    0.878311 0.326561 0.637350 0.256004
N24   N     N_2   0.073758 0.734318 0.336406 -0.281528
H157  H     H_    0.085328 0.699596 0.364132 0.191205
C208  C     C_3   0.018683 0.731011 0.258953 -0.799619
H158  H     H_    0.983287 0.703567 0.253405 0.227831
H159  H     H_    0.033329 0.716755 0.224326 0.228798
H160  H     H_    0.994845 0.769139 0.238707 0.253220

loop_
_geom_bond_atom_site_label_1
_geom_bond_atom_site_label_2
_ccdc_geom_bond_type
C203  H138  S    
N9    H89   S    
C141  O23   A    
C208  H158  S    
C34   C42   S    
C136  C140  A    
O13   Zn9   S    
C161  C164  A    
C79   C87   A    
C152  C165  A    
C170  C176  A    
N21   H145  S    
C135  C139  A    
C96   O44   A    
C38   C181  S    
C65   H46   S    
O20   Zn16  S    
C86   C110  A    
O4    Zn16  S    
C92   C109  S    
O49   Zn13  S    
C62   C70   A    
C51   H51   S    
C120  C133  A    
N19   H137  S    
C196  H104  S    
C20   C44   T    
C171  C175  A    
N23   C207  S    
C114  H10   S    
C79   N23   S    
C68   H47   S    
O1    Zn11  S    
C4    C18   S    
O2    Zn12  S    
C200  H119  S    
C27   H36   S    
N17   C201  S    
C156  N16   S    
C29   C177  S    
C82   C98   A    
C25   H34   S    
C149  C168  A    
C73   C81   A    
C192  H87   S    
O46   Zn10  S    
C183  H31   S    
C29   H38   S    
C166  C174  A    
C115  C123  A    
C6    O10   A    
C187  H66   S    
C84   C100  A    
C146  O30   A    
C54   H54   S    
C189  H75   S    
O19   Zn15  S    
C147  C176  S    
C27   C35   S    
N5    H73   S    
C153  C161  A    
C143  O25   A    
C123  H1    S    
C186  H64   S    
O24   Zn12  S    
C14   C38   S    
C122  H4    S    
C66   H45   S    
C204  H144  S    
N8    C192  S    
O12   Zn6   S    
C125  H7    S    
O3    Zn13  S    
C126  H8    S    
C10   H18   S    
C15   C39   S    
C16   C40   S    
C93   O17   A    
C26   C182  S    
C63   C71   A    
C133  C139  A    
C157  C160  A    
C95   O43   A    
C14   H22   S    
C158  C159  A    
C10   C182  S    
C208  H160  S    
C148  O34   A    
C36   C44   S    
C37   C45   S    
C197  H106  S    
C130  C138  A    
C32   C40   S    
C52   H52   S    
C39   C47   S    
C5    O49   A    
C40   C48   S    
O22   Zn10  S    
C26   C34   S    
C201  H131  S    
C141  O21   A    
C56   H56   S    
C138  C141  S    
N12   H101  S    
C151  N11   S    
N15   H113  S    
C11   C35   S    
C130  C131  A    
C80   C88   A    
C1    O5    A    
C194  H94   S    
C124  H2    S    
O48   Zn12  S    
C91   O15   A    
C157  N3    S    
C198  H110  S    
C3    C17   S    
C128  H6    S    
C71   H44   S    
O15   Zn11  S    
C206  H150  S    
C27   C183  S    
O29   Zn3   S    
C49   C97   A    
C189  H74   S    
O43   Zn7   S    
O2    Zn10  S    
C129  C137  A    
C100  C111  A    
N3    H65   S    
C7    O11   A    
C193  H90   S    
N24   C208  S    
C32   C180  S    
C34   C177  S    
C169  C172  A    
C104  C107  A    
C147  O35   A    
C6    O50   A    
C137  C142  S    
C202  H134  S    
C15   C179  S    
C69   C77   A    
N18   H133  S    
C155  C170  A    
C140  C143  S    
C69   H42   S    
C71   C79   A    
C200  H118  S    
O4    Zn6   S    
N20   C204  S    
C168  C174  A    
C203  H139  S    
C30   C38   S    
C18   C42   T    
O39   Zn3   S    
C191  H83   S    
C170  C171  A    
C37   C182  S    
N16   H117  S    
O38   Zn2   S    
C49   C57   A    
C178  H26   S    
C186  H63   S    
C180  H28   S    
O11   Zn5   S    
C52   C60   A    
C160  N2    S    
C120  H16   S    
C53   C61   A    
C72   H43   S    
C55   C63   A    
C198  H112  S    
C8    C22   S    
C56   C64   A    
C59   H123  S    
C35   C43   S    
C39   C184  S    
O14   Zn10  S    
C194  H96   S    
C207  H156  S    
C16   C27   S    
C90   O14   A    
C77   C85   A    
C188  H71   S    
C90   C111  S    
C88   C104  A    
C21   C45   T    
N1    C185  S    
C81   C105  A    
C94   C107  S    
O50   Zn14  S    
C119  C134  A    
C23   C47   T    
C164  N6    S    
C62   H126  S    
C150  N10   S    
C24   C48   T    
O16   Zn12  S    
C10   C34   S    
C50   C98   A    
C53   H53   S    
N4    C188  S    
C155  C163  A    
O30   Zn4   S    
C52   C100  A    
O45   Zn9   S    
C187  H67   S    
C151  C159  A    
C92   O40   A    
C206  H152  S    
C95   C106  S    
N20   H141  S    
C5    C23   S    
C195  H100  S    
C6    C24   S    
C89   O37   A    
C30   C178  S    
C147  O33   A    
C91   O39   A    
C28   C36   S    
C14   C178  S    
C9    C30   S    
C11   C32   S    
C202  H136  S    
C185  H59   S    
C12   C31   S    
C74   N18   S    
C13   C26   S    
C67   C75   A    
C86   C102  A    
C200  H120  S    
O4    Zn8   S    
N13   C197  S    
C101  C106  A    
C8    O12   A    
N6    C190  S    
C163  N5    S    
C144  O26   A    
N14   C198  S    
C75   N19   S    
O36   Zn6   S    
C134  C135  A    
C161  N7    S    
C68   C76   A    
C94   O42   A    
C28   C184  S    
C197  H108  S    
C72   C80   A    
C191  H84   S    
C94   O18   A    
C153  C172  A    
O40   Zn4   S    
C154  C171  A    
C193  H92   S    
C12   H20   S    
C38   C46   S    
O27   Zn15  S    
C31   H40   S    
C116  H12   S    
O35   Zn5   S    
N2    H61   S    
C113  C121  A    
C145  C174  S    
O3    Zn7   S    
N23   H153  S    
C98   C109  A    
C181  H29   S    
O17   Zn13  S    
C15   H23   S    
C16   C180  S    
C25   C33   S    
N11   C195  S    
C115  C130  A    
C119  C127  A    
C96   C105  S    
N17   H129  S    
C113  C132  A    
C208  H159  S    
C114  C131  A    
C76   C84   A    
C1    O45   A    
C192  H86   S    
C117  H13   S    
C3    O47   A    
C36   C179  S    
C89   C112  S    
C127  H5    S    
C3    O7    A    
C119  H15   S    
C91   C110  S    
N18   C202  S    
C85   C109  A    
C93   C108  S    
O1    Zn1   S    
C199  H116  S    
C184  H32   S    
C87   C111  A    
C132  C138  A    
C195  H98   S    
C102  C105  A    
C50   H50   S    
O31   Zn1   S    
C7    O51   A    
C76   N20   S    
N8    H85   S    
C53   C101  A    
C204  H143  S    
C19   C43   T    
N10   H93   S    
N7    C191  S    
C64   H128  S    
C167  C173  A    
C129  C132  A    
N5    C189  S    
C63   H127  S    
N24   H157  S    
N9    C193  S    
C83   C99   A    
C26   H33   S    
C9    C33   S    
N19   C203  S    
C144  O28   A    
C142  O24   A    
C74   C82   A    
C32   H39   S    
C154  C162  A    
C30   H37   S    
N21   C205  S    
C1    C19   S    
C2    C20   S    
C50   C58   A    
C5    O9    A    
C56   C104  A    
O41   Zn5   S    
C191  H82   S    
C153  N13   S    
C54   C62   A    
C7    C21   S    
O44   Zn8   S    
C58   H122  S    
C31   C179  S    
C205  H146  S    
O33   Zn7   S    
C131  C137  A    
O34   Zn8   S    
C77   N21   S    
N6    H77   S    
C96   O20   A    
C149  N9    S    
C169  C175  A    
O8    Zn2   S    
C11   H19   S    
C9    H17   S    
C92   O16   A    
C22   C46   T    
C67   H48   S    
C28   H35   S    
O51   Zn15  S    
C13   H21   S    
C118  H14   S    
C192  H88   S    
C162  N8    S    
C162  C163  A    
C115  H11   S    
C150  C158  A    
C113  H9    S    
C54   C102  A    
C57   C65   A    
O1    Zn3   S    
C189  H76   S    
C199  H114  S    
C120  C128  A    
O2    Zn4   S    
C90   O38   A    
C33   C41   S    
C205  H147  S    
C2    O6    A    
N4    H69   S    
C10   C29   S    
C75   C83   A    
C15   C28   S    
C12   C184  S    
C126  C127  A    
C13   C177  S    
C150  C167  A    
C84   C108  A    
C14   C25   S    
C88   C112  A    
C60   C68   A    
C29   C37   S    
C198  H111  S    
C152  N12   S    
C142  O22   A    
C117  C136  A    
C149  C157  A    
C118  C135  A    
C207  H155  S    
C66   C74   A    
C185  H58   S    
C152  C160  A    
C179  H27   S    
C70   C78   A    
C188  H70   S    
C8    O52   A    
C70   H41   S    
N22   C206  S    
C93   O41   A    
C9    C181  S    
N16   C200  S    
N1    H57   S    
C95   O19   A    
N15   C199  S    
C4    O48   A    
C81   C97   A    
N13   H105  S    
C194  H95   S    
C134  C140  A    
C121  H3    S    
C165  C173  A    
C146  C173  S    
C55   C103  A    
C156  C169  A    
C65   C73   A    
C145  O29   A    
C177  H25   S    
C206  H151  S    
C4    O8    A    
C121  C124  A    
C49   H49   S    
O18   Zn14  S    
C190  H79   S    
C58   C66   A    
C116  C124  A    
C116  C129  A    
C31   C39   S    
N3    C187  S    
C133  C136  A    
C103  C108  A    
C12   C36   S    
C13   C37   S    
O52   Zn16  S    
O3    Zn5   S    
C2    O46   A    
C59   C67   A    
C78   C86   A    
C82   C106  A    
C158  N4    S    
C202  H135  S    
C89   O13   A    
N10   C194  S    
O28   Zn16  S    
C25   C181  S    
O2    Zn2   S    
N12   C196  S    
C51   C99   A    
C203  H140  S    
N2    C186  S    
C148  C175  S    
C196  H103  S    
O25   Zn13  S    
C205  H148  S    
C78   N22   S    
C195  H99   S    
O21   Zn9   S    
O3    Zn15  S    
C207  H154  S    
C61   H125  S    
O23   Zn11  S    
C197  H107  S    
O4    Zn14  S    
C125  C128  A    
C139  C144  S    
C201  H130  S    
C148  O36   A    
C201  H132  S    
C193  H91   S    
C196  H102  S    
O9    Zn7   S    
C165  C168  A    
O10   Zn8   S    
C166  C167  A    
C188  H72   S    
C87   C103  A    
C51   C59   A    
C73   N17   S    
C85   C101  A    
O42   Zn6   S    
O1    Zn9   S    
N11   H97   S    
C60   H124  S    
C190  H80   S    
C61   C69   A    
C35   C180  S    
C33   C178  S    
C154  N14   S    
C16   H24   S    
C57   H121  S    
C11   C183  S    
C151  C166  A    
O7    Zn1   S    
C145  O31   A    
C187  H68   S    
C40   C183  S    
C146  O32   A    
N7    H81   S    
N22   H149  S    
C159  N1    S    
C97   C110  A    
C199  H115  S    
C155  N15   S    
C117  C125  A    
O5    Zn3   S    
C99   C112  A    
O6    Zn4   S    
C83   C107  A    
C143  O27   A    
C64   C72   A    
C186  H62   S    
C17   C41   T    
C114  C122  A    
C172  C176  A    
O37   Zn1   S    
C156  C164  A    
C204  H142  S    
C185  H60   S    
O32   Zn2   S    
C182  H30   S    
C190  H78   S    
O47   Zn11  S    
C118  C126  A    
C55   H55   S    
C122  C123  A    
C80   N24   S    
N14   H109  S    
O26   Zn14  S    
