data_mof_unit_8968.cif
_audit_creation_date              2012-10-26T19:40:44-0400
_audit_creation_method            fapswitch 2.2
_symmetry_space_group_name_H-M    P1
_symmetry_Int_Tables_number       1
_space_group_crystal_system       triclinic
_cell_length_a                    9.727011
_cell_length_b                    10.932968
_cell_length_c                    13.435578
_cell_angle_alpha                 90.063317
_cell_angle_beta                  72.414832
_cell_angle_gamma                 90.00316
_cell_volume                      1362.03724544

loop_
_atom_site_label
_atom_site_type_symbol
_atom_type_description
_atom_site_fract_x
_atom_site_fract_y
_atom_site_fract_z
_atom_type_partial_charge
C1    C     C_R   0.499437 0.734547 0.501252 0.560650
C2    C     C_R   0.374139 0.493294 0.815319 -0.002646
C3    C     C_2   0.612079 0.067065 0.501940 -0.165666
C4    C     C_R   0.422317 0.494840 0.700135 0.536156
C5    C     C_2   0.500436 0.133470 0.493368 -0.119296
C6    C     C_2   0.613943 0.933060 0.497374 -0.159284
C7    C     C_2   0.495004 0.866599 0.506454 -0.116516
C8    C     C_2   0.049339 0.445848 0.569416 -0.011186
C9    C     C_2   0.893084 0.464151 0.577196 0.052597
C10   C     C_R   0.500476 0.265473 0.498661 0.548991
C11   C     C_R   0.577360 0.498102 0.300065 0.544953
C12   C     C_R   0.432699 0.486932 0.980281 0.036385
C13   C     C_R   0.774666 0.386858 0.030082 -0.133825
C14   C     C_R   0.620230 0.481217 0.186729 -0.002553
C15   C     C_R   0.238766 0.543287 0.867867 -0.134978
C16   C     C_R   0.198212 0.561643 0.975024 -0.145964
C17   C     C_R   0.294567 0.536777 0.030649 -0.123971
C18   C     C_3   0.966523 0.377442 0.354789 -0.249027
C19   C     C_R   0.466143 0.454379 0.873367 0.029799
C20   C     C_R   0.538311 0.467108 0.032437 0.030964
C21   C     C_R   0.668716 0.405444 0.980140 0.052956
C22   C     C_R   0.690296 0.360123 0.879645 -0.148731
C23   C     C_R   0.589164 0.382159 0.827810 -0.132921
C24   C     C_R   0.518918 0.507373 0.134892 -0.129404
C25   C     C_R   0.750280 0.424108 0.133174 -0.143005
Cu1   Cu    Cu3+1 0.361370 0.499980 0.499980 0.930678
Cu2   Cu    Cu3+1 0.638630 0.500020 0.500020 0.930174
H1    H     H_    0.829902 0.403302 0.172184 0.114672
H2    H     H_    0.424381 0.557931 0.177381 0.118210
H3    H     H_    0.165154 0.571306 0.825679 0.132544
H4    H     H_    0.256073 0.555023 0.113251 0.101051
H5    H     H_    0.092976 0.599361 0.014837 0.119957
H6    H     H_    0.607167 0.339679 0.752302 0.131723
H7    H     H_    0.707310 0.111784 0.511070 0.142309
H8    H     H_    0.919736 0.562395 0.353360 0.266335
H9    H     H_    0.046556 0.383439 0.275948 0.106778
H10   H     H_    0.864558 0.339451 0.347037 0.172450
H11   H     H_    0.009478 0.314005 0.402645 0.147507
H12   H     H_    0.406332 0.092457 0.480039 0.102080
H13   H     H_    0.716903 0.888379 0.487809 0.150123
H14   H     H_    0.389706 0.907592 0.520126 0.100455
H15   H     H_    0.075332 0.385674 0.625324 0.119288
H16   H     H_    0.125831 0.574473 0.462685 0.249122
H17   H     H_    0.815310 0.441535 0.651013 0.100404
H18   H     H_    0.785932 0.307475 0.840755 0.095992
H19   H     H_    0.874570 0.340246 0.990354 0.108661
N1    N     N_2   0.152660 0.501340 0.501130 -0.335352
N2    N     N_2   0.846520 0.501370 0.501160 -0.137085
N3    N     N_2   0.943250 0.498138 0.401813 -0.430410
O1    O     O_R   0.382960 0.678040 0.499980 -0.501997
O2    O     O_R   0.617100 0.678080 0.500020 -0.487255
O3    O     O_R   0.325800 0.499940 0.650950 -0.503270
O4    O     O_R   0.559930 0.499980 0.650990 -0.508286
O5    O     O_R   0.382900 0.321920 0.499980 -0.492590
O6    O     O_R   0.617040 0.321960 0.500020 -0.510413
O7    O     O_R   0.440070 0.500020 0.349010 -0.494425
O8    O     O_R   0.674200 0.500060 0.349050 -0.513906

loop_
_geom_bond_atom_site_label_1
_geom_bond_atom_site_label_2
_ccdc_geom_bond_type
Cu2   N2    S    
H8    N3    S    
C19   C23   A    
Cu2   O4    S    
C6    C7    D    
C10   O6    A    
Cu1   O3    S    
C4    O4    A    
C16   H5    S    
C1    O1    A    
C2    C4    S    
C3    C6    S    
C12   C20   A    
Cu1   O1    S    
C18   H11   S    
C8    N1    D    
C13   C21   A    
C5    C10   S    
C1    C7    S    
C21   C22   A    
C12   C17   A    
C2    C15   A    
C1    O2    A    
C13   C25   A    
Cu1   Cu2   S    
C18   H9    S    
Cu1   N1    S    
C4    O3    A    
C17   H4    S    
Cu1   O5    S    
C12   C19   A    
N2    N3    S    
C18   H10   S    
C8    H15   S    
C6    H13   S    
C5    H12   S    
C14   C25   A    
C13   H19   S    
C10   O5    A    
C11   C14   S    
Cu2   O6    S    
C7    H14   S    
C15   C16   A    
C3    C5    D    
C9    N2    D    
C22   H18   S    
C20   C21   A    
C15   H3    S    
Cu2   O8    S    
C14   C24   A    
C24   H2    S    
C8    C9    S    
C9    H17   S    
C3    H7    S    
C23   H6    S    
C2    C19   A    
C11   O8    A    
H16   N1    S    
C22   C23   A    
C11   O7    A    
C20   C24   A    
C18   N3    S    
Cu2   O2    S    
C16   C17   A    
C25   H1    S    
Cu1   O7    S    
