data_mof_unit_17570.cif
_audit_creation_date              2012-12-10T18:18:16-0500
_audit_creation_method            fapswitch 2.2
_symmetry_space_group_name_H-M    P1
_symmetry_Int_Tables_number       1
_space_group_crystal_system       triclinic
_cell_length_a                    14.125903
_cell_length_b                    14.96439
_cell_length_c                    15.404728
_cell_angle_alpha                 88.999459
_cell_angle_beta                  67.232313
_cell_angle_gamma                 91.04263
_cell_volume                      3001.05006595

loop_
_atom_site_label
_atom_site_type_symbol
_atom_type_description
_atom_site_fract_x
_atom_site_fract_y
_atom_site_fract_z
_atom_type_partial_charge
C1    C     C_R   0.501290 0.672669 0.498899 0.911100
C2    C     C_R   0.505073 0.767930 0.495385 -0.311271
C3    C     C_R   0.477197 0.187510 0.432470 0.451996
C4    C     C_R   0.512861 0.811481 0.571777 0.483735
C5    C     C_R   0.487058 0.095150 0.426963 -0.008392
C6    C     C_R   0.517920 0.904420 0.570322 -0.011825
C7    C     C_R   0.503449 0.046689 0.499172 -0.103531
C8    C     C_R   0.506298 0.953124 0.495894 -0.110221
C9    C     C_R   0.515809 0.091604 0.575008 0.029170
C10   C     C_R   0.496523 0.908286 0.418864 0.026628
C11   C     C_R   0.481990 0.051198 0.349495 -0.307790
C12   C     C_R   0.498802 0.327141 0.500564 0.951200
C13   C     C_R   0.532858 0.948763 0.643266 -0.297586
C14   C     C_R   0.486243 0.958377 0.344408 0.508808
C15   C     C_R   0.532624 0.041808 0.646452 0.503701
C16   C     C_R   0.435364 0.502164 0.677021 0.884459
C17   C     C_R   0.564671 0.500212 0.323224 0.946713
C18   C     C_R   0.180707 0.432176 0.545660 0.427757
C19   C     C_R   0.818650 0.568687 0.455823 0.485771
C20   C     C_R   0.224427 0.565847 0.451422 0.522897
C21   C     C_R   0.778123 0.430436 0.542555 0.531604
C22   C     C_R   0.120853 0.572088 0.457677 -0.232447
C23   C     C_R   0.373449 0.445318 0.112743 0.357996
C24   C     C_R   0.878471 0.428616 0.544868 -0.243513
C25   C     C_R   0.051095 0.499581 0.499016 -0.072413
C26   C     C_R   0.949187 0.500199 0.500917 -0.122358
C27   C     C_R   0.083064 0.426750 0.539459 -0.177962
C28   C     C_R   0.918178 0.572328 0.458581 -0.101012
C29   C     C_R   0.084644 0.648745 0.425596 0.283221
C30   C     C_R   0.911461 0.357166 0.587791 0.393665
C31   C     C_R   0.986796 0.646579 0.420268 0.498890
C32   C     C_R   0.013754 0.353240 0.578612 0.468437
C33   C     C_R   0.393708 0.499162 0.781135 -0.314067
C34   C     C_R   0.609144 0.418700 0.900183 0.432380
C35   C     C_R   0.605415 0.490808 0.220578 -0.243141
C36   C     C_R   0.256262 0.471358 0.934348 -0.236107
C37   C     C_R   0.730985 0.435775 0.075196 -0.194992
C38   C     C_R   0.287894 0.484210 0.835945 0.452059
C39   C     C_R   0.703992 0.458028 0.169633 0.425761
C40   C     C_R   0.463963 0.501379 0.825844 0.373364
C41   C     C_R   0.538996 0.506565 0.174517 0.469466
C42   C     C_R   0.434340 0.466339 0.917549 -0.044841
C43   C     C_R   0.557537 0.466330 0.087790 -0.067594
C44   C     C_R   0.328769 0.461114 0.975446 -0.048745
C45   C     C_R   0.297674 0.449516 0.073472 0.348801
C46   C     C_R   0.658300 0.439406 0.033520 -0.099902
C47   C     C_R   0.508202 0.447475 0.955641 -0.120286
C48   C     C_R   0.479163 0.455240 0.052989 -0.087136
C49   C     C_3   0.848363 0.509150 0.185944 -0.236061
C50   C     C_3   0.135953 0.429151 0.829003 -0.219101
C51   C     C_3   0.352539 0.235780 0.384864 -0.235431
C52   C     C_3   0.417868 0.747362 0.714771 -0.334754
C53   C     C_R   0.684241 0.415124 0.939624 0.438496
C54   C     C_R   0.510448 0.185132 0.577614 0.369971
C55   C     C_R   0.499044 0.814576 0.417655 0.378351
C56   C     C_R   0.494451 0.231558 0.504420 -0.325644
H1    H     H_    0.175317 0.468826 0.978679 0.207351
H2    H     H_    0.741711 0.306606 0.548342 0.361730
H3    H     H_    0.172889 0.735716 0.451054 0.374875
H4    H     H_    0.784583 0.314975 0.683517 0.395655
H5    H     H_    0.013005 0.760492 0.348786 0.381400
H6    H     H_    0.108696 0.258395 0.560333 0.346496
H7    H     H_    0.442012 0.591863 0.162854 0.340022
H8    H     H_    0.554235 0.594855 0.746226 0.361523
H9    H     H_    0.896438 0.500254 0.227706 0.201240
H10   H     H_    0.815268 0.576923 0.200424 0.159745
H11   H     H_    0.899394 0.504373 0.110307 0.156999
H12   H     H_    0.807227 0.411400 0.036515 0.215577
H13   H     H_    0.162877 0.361466 0.838213 0.168734
H14   H     H_    0.098457 0.423605 0.777941 0.231676
H15   H     H_    0.076405 0.451734 0.895785 0.157086
H16   H     H_    0.281898 0.388597 0.231117 0.328685
H17   H     H_    0.570500 0.359264 0.807191 0.371370
H18   H     H_    0.485045 0.287544 0.660714 0.324892
H19   H     H_    0.523350 0.710002 0.337105 0.336221
H20   H     H_    0.324831 0.169503 0.371634 0.149239
H21   H     H_    0.337054 0.285758 0.338392 0.213626
H22   H     H_    0.307298 0.254207 0.458876 0.188850
H23   H     H_    0.474879 0.089061 0.291873 0.189187
H24   H     H_    0.371307 0.704482 0.687110 0.176026
H25   H     H_    0.422418 0.711696 0.776679 0.193418
H26   H     H_    0.378402 0.811231 0.739861 0.175422
H27   H     H_    0.472157 0.961280 0.222892 0.330220
H28   H     H_    0.558698 0.039497 0.762325 0.333171
H29   H     H_    0.544537 0.910956 0.698762 0.195936
H30   H     H_    0.183872 0.472791 0.191157 0.338924
H31   H     H_    0.793868 0.381761 0.821577 0.382420
H32   H     H_    0.257268 0.395784 0.619170 0.388613
H33   H     H_    0.744401 0.606811 0.381348 0.354612
H34   H     H_    0.287921 0.638950 0.338475 0.378644
N1    N     N_R   0.249980 0.499930 0.499960 -0.159100
N2    N     N_R   0.750020 0.500070 0.500040 -0.178949
O1    O     O_R   0.419720 0.632140 0.499980 -0.574629
O2    O     O_3   0.783231 0.388238 0.888453 -0.755228
O3    O     O_3   0.203499 0.369999 0.600960 -0.774567
O4    O     O_3   0.792434 0.634103 0.406097 -0.682762
O5    O     O_3   0.302152 0.622954 0.394840 -0.665432
O6    O     O_3   0.708060 0.361435 0.579757 -0.673081
O7    O     O_3   0.139022 0.729264 0.405819 -0.759879
O8    O     O_3   0.846989 0.287923 0.638069 -0.686680
O9    O     O_3   0.954293 0.719261 0.383292 -0.674729
O10   O     O_3   0.042759 0.275663 0.609937 -0.655860
O11   O     O_3   0.459942 0.565211 0.213677 -0.690310
O12   O     O_R   0.580280 0.367860 0.500020 -0.560789
O13   O     O_3   0.559991 0.542519 0.784057 -0.689185
O14   O     O_3   0.770965 0.441402 0.213545 -0.577325
O15   O     O_3   0.217701 0.492871 0.793199 -0.597936
O16   O     O_3   0.347488 0.423613 0.206939 -0.739193
O17   O     O_3   0.633547 0.385427 0.811256 -0.729081
O18   O     O_3   0.519499 0.229466 0.652381 -0.647450
O19   O     O_3   0.494864 0.770369 0.340821 -0.634330
O20   O     O_3   0.459364 0.236583 0.363269 -0.594967
O21   O     O_3   0.518453 0.762373 0.646823 -0.594232
O22   O     O_3   0.479424 0.916210 0.267727 -0.669311
O23   O     O_R   0.580270 0.632160 0.499970 -0.588100
O24   O     O_3   0.548126 0.084416 0.719051 -0.667509
O25   O     O_R   0.419730 0.367840 0.500030 -0.625836
O26   O     O_R   0.373870 0.499980 0.632250 -0.608212
O27   O     O_R   0.626130 0.500020 0.367750 -0.633881
O28   O     O_R   0.534420 0.500000 0.632240 -0.549010
O29   O     O_R   0.465580 0.500000 0.367760 -0.507833
O30   O     O_3   0.193864 0.447728 0.129210 -0.782520
Zn1   Zn    Zn3+2 0.392800 0.499980 0.500010 1.032527
Zn2   Zn    Zn3+2 0.607200 0.500020 0.499990 1.037522

loop_
_geom_bond_atom_site_label_1
_geom_bond_atom_site_label_2
_ccdc_geom_bond_type
C39   O14   S    
C37   H12   S    
C51   O20   S    
C23   C45   A    
C22   C29   A    
H3    O7    S    
C35   C39   A    
H2    O6    S    
C7    C8    A    
O27   Zn2   S    
C49   H9    S    
C18   N1    A    
C31   O9    S    
C50   H13   S    
C24   C26   A    
C12   O12   A    
C2    C55   A    
C16   O28   A    
C8    C10   A    
C11   C14   A    
C23   O16   S    
H31   O2    S    
C30   O8    S    
C54   O18   S    
C1    C2    S    
C38   O15   S    
C19   N2    A    
C20   O5    S    
H16   O16   S    
C22   C25   A    
H30   O30   S    
C23   C48   A    
C43   C48   A    
H34   O5    S    
O26   Zn1   S    
O25   Zn1   S    
C40   C42   A    
C53   O2    S    
H32   O3    S    
H28   O24   S    
N1    Zn1   S    
C18   O3    S    
C41   C43   A    
H27   O22   S    
C42   C44   A    
C37   C39   A    
C20   N1    A    
C54   C56   A    
C33   C40   A    
C49   H10   S    
C29   O7    S    
H17   O17   S    
C4    O21   S    
H8    O13   S    
C51   H20   S    
C4    C6    A    
C36   H1    S    
C10   C14   A    
C5    C7    A    
C6    C8    A    
C3    C5    A    
C25   C26   A    
C14   O22   S    
C41   O11   S    
H5    O9    S    
C50   H15   S    
C51   H21   S    
C19   C28   A    
C16   O26   A    
C16   C33   S    
C3    C56   A    
C47   C48   A    
C3    O20   S    
C52   H26   S    
C10   C55   A    
C12   C56   S    
C11   H23   S    
H7    O11   S    
C9    C54   A    
C20   C22   A    
C13   C15   A    
C50   O15   S    
C32   O10   S    
C36   C44   A    
C44   C45   A    
C17   O29   A    
C7    C9    A    
O23   Zn2   S    
C49   H11   S    
C55   O19   S    
C27   C32   A    
H19   O19   S    
C28   C31   A    
C18   C27   A    
O1    Zn1   S    
H4    O8    S    
H18   O18   S    
C5    C11   A    
C49   O14   S    
O12   Zn2   S    
C45   O30   S    
C25   C27   A    
C17   C35   S    
C26   C28   A    
C33   C38   A    
H33   O4    S    
N2    Zn2   S    
C9    C15   A    
C51   H22   S    
C29   C31   A    
C6    C13   A    
C30   C32   A    
C21   O6    S    
C52   O21   S    
C2    C4    A    
C46   C53   A    
C36   C38   A    
C42   C47   A    
C50   H14   S    
C52   H25   S    
C35   C41   A    
C43   C46   A    
C24   C30   A    
O29   Zn1   S    
C17   O27   A    
C12   O25   A    
C34   C53   A    
C1    O1    A    
C21   C24   A    
C13   H29   S    
C34   O17   S    
C15   O24   S    
C34   C47   A    
C1    O23   A    
C37   C46   A    
C52   H24   S    
C19   O4    S    
O28   Zn2   S    
C40   O13   S    
H6    O10   S    
C21   N2    A    
