data_mof_unit_47041.cif
_audit_creation_date              2012-12-10T20:43:19-0500
_audit_creation_method            fapswitch 2.2
_symmetry_space_group_name_H-M    P1
_symmetry_Int_Tables_number       1
_space_group_crystal_system       triclinic
_cell_length_a                    15.850945
_cell_length_b                    10.734819
_cell_length_c                    9.994392
_cell_angle_alpha                 92.640794
_cell_angle_beta                  88.886439
_cell_angle_gamma                 92.997312
_cell_volume                      1696.23892412

loop_
_atom_site_label
_atom_site_type_symbol
_atom_type_description
_atom_site_fract_x
_atom_site_fract_y
_atom_site_fract_z
_atom_type_partial_charge
C1    C     C_R   0.502263 0.260216 0.497717 0.868797
C2    C     C_R   0.042222 0.522306 0.620966 -0.332955
C3    C     C_1   0.823696 0.495820 0.496375 -0.003882
C4    C     C_1   0.176387 0.515187 0.501905 -0.057620
C5    C     C_1   0.251185 0.509778 0.502872 -0.186529
C6    C     C_1   0.748806 0.496820 0.496412 -0.186091
C7    C     C_R   0.560799 0.069189 0.576831 -0.083321
C8    C     C_R   0.507111 0.127322 0.492688 -0.073494
C9    C     C_R   0.450856 0.054586 0.412674 -0.210577
C10   C     C_R   0.447727 0.926430 0.414952 -0.186302
C11   C     C_R   0.495404 0.870357 0.508312 0.013625
C12   C     C_R   0.339579 0.501961 0.501079 0.906401
C13   C     C_R   0.549794 0.941760 0.591597 -0.076401
C14   C     C_3   0.548203 0.954551 0.741818 0.218507
C15   C     C_3   0.571901 0.091908 0.724804 0.294525
C16   C     C_R   0.432466 0.449213 0.068800 0.103094
C17   C     C_R   0.561363 0.563333 0.074803 -0.160690
C18   C     C_R   0.561927 0.564780 0.931729 0.132787
C19   C     C_R   0.431395 0.455958 0.928268 -0.032375
C20   C     C_3   0.384787 0.334153 0.906162 0.280210
C21   C     C_3   0.391513 0.316787 0.059214 0.057358
C22   C     C_R   0.498095 0.738970 0.502967 0.845818
C23   C     C_R   0.660352 0.499341 0.498859 0.893086
C24   C     C_R   0.953653 0.506487 0.622853 0.493143
C25   C     C_R   0.912818 0.497872 0.499151 0.076080
C26   C     C_R   0.958037 0.495267 0.377666 -0.272513
C27   C     C_R   0.045628 0.502249 0.378079 -0.193916
C28   C     C_R   0.087201 0.515973 0.499903 0.131784
H1    H     H_    0.076694 0.540147 0.712007 0.139724
H2    H     H_    0.610056 0.615219 0.131621 0.154663
H3    H     H_    0.421597 0.268575 0.843293 0.131663
H4    H     H_    0.925502 0.487478 0.283015 0.160296
H5    H     H_    0.080778 0.497399 0.284023 0.144559
H6    H     H_    0.404195 0.095635 0.357891 0.123614
H7    H     H_    0.404561 0.871703 0.349909 0.147197
H8    H     H_    0.597227 0.903159 0.790673 0.050704
H9    H     H_    0.524296 0.152456 0.770722 0.146107
N1    N     N_R   0.499440 0.499140 0.142800 -0.121203
N2    N     N_R   0.499440 0.499180 0.857150 -0.141729
O1    O     O_R   0.500010 0.316790 0.614690 -0.621334
O2    O     O_R   0.500000 0.316760 0.385350 -0.630929
O3    O     O_R   0.378030 0.499990 0.614640 -0.604603
O4    O     O_R   0.378020 0.499950 0.385300 -0.615659
O5    O     O_R   0.500000 0.683240 0.614650 -0.649685
O6    O     O_R   0.499990 0.683210 0.385310 -0.621124
O7    O     O_R   0.621980 0.500050 0.614700 -0.612701
O8    O     O_R   0.621970 0.500010 0.385360 -0.622391
Zn1   Zn    Zn3+2 0.500010 0.500020 0.653130 0.939556
Zn2   Zn    Zn3+2 0.499990 0.499980 0.346870 0.931245
O9    O     O_3   0.654909 0.132023 0.767746 -0.623108
C29   C     C_3   0.721460 0.082375 0.688389 0.115298
H10   H     H_    0.720283 0.114824 0.584366 0.151207
H11   H     H_    0.718318 0.978676 0.686412 0.125119
C30   C     C_3   0.805676 0.128492 0.747310 -0.834785
H12   H     H_    0.807476 0.107350 0.854943 0.255542
H13   H     H_    0.857900 0.081831 0.692847 0.208443
H14   H     H_    0.814887 0.230698 0.736392 0.269446
C31   C     C_3   0.625359 0.655533 0.870034 -0.442742
C32   C     C_3   0.716565 0.617674 0.879986 -0.300280
C33   C     C_3   0.777438 0.719348 0.825843 -0.825815
H15   H     H_    0.770654 0.724020 0.715795 0.254911
H16   H     H_    0.764745 0.811844 0.874424 0.238266
H17   H     H_    0.843460 0.699191 0.847833 0.288783
H18   H     H_    0.731536 0.605170 0.986410 0.200978
H19   H     H_    0.725222 0.528141 0.822417 0.274390
H20   H     H_    0.611071 0.672027 0.765624 0.254119
H21   H     H_    0.620159 0.746587 0.926093 0.154919
O10   O     O_3   0.301244 0.338055 0.854315 -0.600010
C34   C     C_3   0.260143 0.451771 0.879737 0.174058
H22   H     H_    0.270060 0.512096 0.793448 0.182591
H23   H     H_    0.281639 0.506925 0.970384 0.104298
C35   C     C_3   0.165936 0.423545 0.897985 -0.933332
H24   H     H_    0.152136 0.365583 0.985413 0.250277
H25   H     H_    0.134965 0.512945 0.917043 0.198151
H26   H     H_    0.140145 0.373173 0.807023 0.269168
C36   C     C_3   0.301410 0.303047 0.127810 -0.343821
C37   C     C_3   0.291564 0.226359 0.252365 -0.409531
C38   C     C_3   0.200493 0.221717 0.305442 -0.876770
H27   H     H_    0.177891 0.317064 0.321776 0.269384
H28   H     H_    0.158377 0.169036 0.232785 0.256777
H29   H     H_    0.196774 0.174235 0.401919 0.264703
H30   H     H_    0.306284 0.128667 0.223789 0.216674
H31   H     H_    0.333511 0.267508 0.331899 0.254768
H32   H     H_    0.277751 0.396855 0.153782 0.202031
H33   H     H_    0.257544 0.253083 0.056266 0.248799
C39   C     C_3   0.452545 0.210644 0.085992 -0.456367
C40   C     C_3   0.547948 0.237835 0.059125 -0.323129
C41   C     C_3   0.598541 0.123163 0.078420 -0.828826
H34   H     H_    0.588056 0.089302 0.181112 0.254088
H35   H     H_    0.580096 0.047621 0.004636 0.265960
H36   H     H_    0.666947 0.147636 0.063864 0.262147
H37   H     H_    0.559857 0.271868 0.957239 0.230145
H38   H     H_    0.573433 0.309624 0.132513 0.254817
H39   H     H_    0.447921 0.190280 0.191311 0.238430
H40   H     H_    0.430825 0.124593 0.027920 0.216949
O11   O     O_3   0.904365 0.506647 0.740322 -0.628941
C42   C     C_3   0.944323 0.452194 0.846912 0.080295
H41   H     H_    0.993210 0.518865 0.890323 0.151561
H42   H     H_    0.972286 0.362648 0.813249 0.152312
C43   C     C_3   0.880575 0.425284 0.959101 -0.862799
H43   H     H_    0.823059 0.374411 0.919416 0.270118
H44   H     H_    0.909249 0.367604 0.033839 0.212853
H45   H     H_    0.862720 0.514075 0.010484 0.242288
O12   O     O_3   0.463877 0.941138 0.792386 -0.602408
C44   C     C_3   0.455580 0.849140 0.888606 0.103684
H46   H     H_    0.497026 0.872735 0.975364 0.121317
H47   H     H_    0.470424 0.756916 0.843448 0.186028
C45   C     C_3   0.364581 0.839014 0.939605 -0.824000
H48   H     H_    0.321638 0.812906 0.855204 0.258143
H49   H     H_    0.357598 0.766003 0.014860 0.197247
H50   H     H_    0.346513 0.929481 0.987154 0.248662

loop_
_geom_bond_atom_site_label_1
_geom_bond_atom_site_label_2
_ccdc_geom_bond_type
C40   C41   S    
C26   H4    S    
C16   C21   S    
C1    C8    S    
C19   C20   S    
C3    C6    T    
C36   H32   S    
C42   H41   S    
C7    C8    A    
O8    Zn2   S    
N1    Zn2   S    
C37   C38   S    
C27   H5    S    
C44   H47   S    
C21   C36   S    
C26   C27   A    
C33   H17   S    
C12   O4    A    
C24   O11   S    
C14   H8    S    
C38   H28   S    
C37   H31   S    
C45   H48   S    
C33   H16   S    
C15   O9    S    
C34   H23   S    
C15   H9    S    
C12   O3    A    
C39   H39   S    
C1    O1    A    
C4    C28   S    
C21   C39   S    
C18   C31   S    
C22   O5    A    
C8    C9    A    
C10   H7    S    
C9    C10   A    
C35   H24   S    
C7    C15   S    
C32   C33   S    
C23   O7    A    
C40   H37   S    
C17   H2    S    
C35   H26   S    
O2    Zn2   S    
O12   C44   S    
C42   H42   S    
C31   H20   S    
O9    C29   S    
O7    Zn1   S    
C44   C45   S    
C30   H13   S    
C23   O8    A    
C29   H10   S    
C3    C25   S    
C24   C25   A    
C5    C12   S    
C35   H25   S    
C39   H40   S    
C39   C40   S    
O10   C34   S    
C31   C32   S    
C43   H45   S    
C33   H15   S    
C29   H11   S    
C34   C35   S    
C18   N2    A    
C14   O12   S    
C41   H36   S    
O6    Zn2   S    
O11   C42   S    
C20   C21   S    
C43   H44   S    
C17   C18   A    
C32   H18   S    
O3    Zn1   S    
C36   C37   S    
C19   N2    A    
C1    O2    A    
C41   H35   S    
C2    H1    S    
C2    C24   A    
C9    H6    S    
C42   C43   S    
O1    Zn1   S    
C30   H12   S    
C38   H27   S    
C20   O10   S    
O4    Zn2   S    
C4    C5    T    
C44   H46   S    
C11   C22   S    
C45   H50   S    
C29   C30   S    
C25   C26   A    
C32   H19   S    
C11   C13   A    
C38   H29   S    
C37   H30   S    
C16   C19   A    
C6    C23   S    
C40   H38   S    
C43   H43   S    
C45   H49   S    
C17   N1    A    
C34   H22   S    
C10   C11   A    
C31   H21   S    
C7    C13   A    
C22   O6    A    
C41   H34   S    
C27   C28   A    
C14   C15   S    
C2    C28   A    
C13   C14   S    
C36   H33   S    
C30   H14   S    
O5    Zn1   S    
C16   N1    A    
N2    Zn1   S    
C20   H3    S    
