data_mof_unit_56363.cif
_audit_creation_date              2012-12-10T16:32:38-0500
_audit_creation_method            fapswitch 2.2
_symmetry_space_group_name_H-M    P1
_symmetry_Int_Tables_number       1
_space_group_crystal_system       triclinic
_cell_length_a                    16.904897
_cell_length_b                    16.852287
_cell_length_c                    16.906563
_cell_angle_alpha                 65.53241
_cell_angle_beta                  65.711958
_cell_angle_gamma                 65.603683
_cell_volume                      3821.10276366

loop_
_atom_site_label
_atom_site_type_symbol
_atom_type_description
_atom_site_fract_x
_atom_site_fract_y
_atom_site_fract_z
_atom_type_partial_charge
C1    C     C_R   0.594540 0.006676 0.604065 -0.080721
C2    C     C_R   0.821380 0.561133 0.040380 0.958692
C3    C     C_R   0.435922 0.965854 0.179097 0.943256
C4    C     C_R   0.562638 0.036681 0.821282 0.966152
C5    C     C_R   0.564455 0.820956 0.033343 0.960390
C6    C     C_R   0.433254 0.178626 0.971327 0.964869
C7    C     C_R   0.034083 0.564327 0.820857 0.960791
C8    C     C_R   0.971756 0.433152 0.178320 0.971052
C9    C     C_R   0.821381 0.031469 0.564911 0.964907
C10   C     C_R   0.178917 0.968052 0.434909 0.958338
C11   C     C_R   0.555420 0.961668 0.571729 -0.203006
C12   C     C_R   0.420298 0.936308 0.420068 -0.068703
C13   C     C_R   0.475539 0.924307 0.478861 -0.198555
C14   C     C_R   0.994206 0.567846 0.540771 -0.251773
C15   C     C_R   0.944380 0.480129 0.464255 -0.218045
C16   C     C_R   0.570342 0.546782 0.980041 -0.250259
C17   C     C_R   0.480144 0.469446 0.934389 -0.218851
C18   C     C_R   0.610670 0.920488 0.500940 0.404214
C19   C     C_R   0.435963 0.914383 0.573103 0.388194
C20   C     C_R   0.938322 0.509090 0.597525 0.399452
C21   C     C_R   0.955390 0.568505 0.415693 0.423752
C22   C     C_R   0.508296 0.603937 0.927720 0.382768
C23   C     C_R   0.039577 0.596895 0.582617 -0.089315
C24   C     C_R   0.569408 0.421664 0.942150 0.421059
C25   C     C_R   0.570573 0.909684 0.448325 0.368647
C26   C     C_R   0.470482 0.942077 0.618160 0.348731
C27   C     C_R   0.457473 0.565849 0.910720 0.367374
C28   C     C_R   0.611476 0.457050 0.970885 0.356126
C29   C     C_R   0.920697 0.458188 0.560200 0.369926
C30   C     C_R   0.988033 0.608120 0.450030 0.335591
C31   C     C_R   0.546850 0.039013 0.680899 0.475218
C32   C     C_R   0.455917 0.949128 0.325349 0.446726
C33   C     C_R   0.071177 0.674771 0.538582 0.408616
C34   C     C_R   0.950771 0.418105 0.414764 -0.079503
C35   C     C_R   0.950415 0.325805 0.456798 0.459219
C36   C     C_R   0.676921 0.540483 0.059984 0.397861
C37   C     C_R   0.325856 0.459934 0.944097 0.450067
C38   C     C_R   0.324449 0.956529 0.452023 0.441260
C39   C     C_R   0.680747 0.022639 0.556025 0.440645
C40   C     C_R   0.442299 0.321972 0.973301 0.431685
C41   C     C_R   0.552945 0.675293 0.037297 0.473961
C42   C     C_R   0.978549 0.441813 0.318731 0.429325
C43   C     C_R   0.045931 0.550553 0.673066 0.475081
C44   C     C_R   0.594786 0.051384 0.724529 -0.331596
C45   C     C_R   0.600188 0.586543 0.026704 -0.093436
C46   C     C_R   0.406804 0.942683 0.277946 -0.341826
C47   C     C_R   0.067047 0.723139 0.591306 -0.319839
C48   C     C_R   0.941357 0.278679 0.408550 -0.342034
C49   C     C_R   0.723538 0.591824 0.062144 -0.320325
C50   C     C_R   0.278321 0.409750 0.938576 -0.342755
C51   C     C_R   0.277426 0.946748 0.404824 -0.334359
C52   C     C_R   0.724836 0.042582 0.598750 -0.342571
C53   C     C_R   0.400927 0.276874 0.953628 -0.332177
C54   C     C_R   0.597458 0.722867 0.050229 -0.349131
C55   C     C_R   0.955918 0.400821 0.275661 -0.332372
C56   C     C_R   0.418108 0.418598 0.943477 -0.079609
C57   C     C_R   0.053848 0.596791 0.722438 -0.345682
C58   C     C_R   0.678720 0.064307 0.678995 0.333408
C59   C     C_R   0.324831 0.923235 0.324999 0.333735
C60   C     C_R   0.072600 0.679392 0.678583 0.334347
C61   C     C_R   0.923455 0.326188 0.325838 0.336409
C62   C     C_R   0.679077 0.678123 0.070327 0.338767
C63   C     C_R   0.325470 0.326073 0.922356 0.339953
C64   C     C_3   0.339866 0.967981 0.737671 -0.037747
C65   C     C_3   0.696489 0.898328 0.321292 -0.083007
C66   C     C_3   0.935442 0.762907 0.412617 -0.056203
C67   C     C_R   0.964011 0.179359 0.436954 0.942428
C68   C     C_3   0.890626 0.340032 0.692321 -0.082074
C69   C     C_3   0.762700 0.437729 0.902484 -0.079245
C70   C     C_3   0.341741 0.700094 0.876954 -0.085287
C71   C     C_3   0.411915 0.775303 0.632028 -0.288855
C72   C     C_3   0.705774 0.791072 0.566856 -0.348925
C73   C     C_3   0.637524 0.360300 0.823889 -0.255279
C74   C     C_3   0.580832 0.702658 0.809765 -0.285479
C75   C     C_3   0.836759 0.641186 0.354476 -0.269128
C76   C     C_3   0.825553 0.590778 0.690875 -0.377962
C77   C     C_3   0.423715 0.156121 0.650595 -0.386829
C78   C     C_R   0.041917 0.821526 0.560620 0.957830
C79   C     C_3   0.506631 0.073110 0.267274 -0.303925
C80   C     C_3   0.196268 0.630679 0.426453 -0.264843
C81   C     C_3   0.064803 0.259600 0.522675 -0.304174
C82   C     C_3   0.638917 0.421049 0.179084 -0.254320
C83   C     C_3   0.260358 0.527839 0.056630 -0.266109
C84   C     C_3   0.277469 0.086793 0.490062 -0.331905
C85   C     C_3   0.679114 0.110539 0.412209 -0.330795
C86   C     C_3   0.449120 0.290227 0.115581 -0.316751
C87   C     C_3   0.408943 0.671131 0.121947 -0.332683
C88   C     C_3   0.122912 0.446100 0.281415 -0.317622
C89   C     C_R   0.179248 0.437448 0.962959 0.941260
C90   C     C_3   0.128621 0.404931 0.670149 -0.346008
C91   C     C_3   0.696798 0.188991 0.681795 -0.245009
C92   C     C_3   0.317971 0.808020 0.294607 -0.230090
C93   C     C_3   0.184007 0.699819 0.703221 -0.214895
C94   C     C_3   0.802719 0.300033 0.325181 -0.248057
C95   C     C_3   0.689655 0.703039 0.186939 -0.233322
C96   C     C_3   0.299868 0.320980 0.803547 -0.259736
H1    H     H_    0.303960 0.916988 0.759367 0.156717
H2    H     H_    0.848218 0.365650 0.751553 0.161501
H3    H     H_    0.963933 0.323611 0.684652 0.148364
H4    H     H_    0.877377 0.275232 0.707547 0.168891
H5    H     H_    0.746209 0.456542 0.838647 0.110797
H6    H     H_    0.828783 0.383760 0.899321 0.184937
H7    H     H_    0.771137 0.497399 0.906857 0.151019
H8    H     H_    0.370341 0.757745 0.832349 0.204266
H9    H     H_    0.324729 0.694429 0.949811 0.156080
H10   H     H_    0.277140 0.716716 0.863037 0.160097
H11   H     H_    0.468772 0.747018 0.662472 0.170158
H12   H     H_    0.315046 0.029233 0.684042 0.125404
H13   H     H_    0.436111 0.761964 0.565531 0.154508
H14   H     H_    0.360742 0.738514 0.678076 0.190714
H15   H     H_    0.651934 0.759755 0.583749 0.139572
H16   H     H_    0.703562 0.802125 0.628183 0.168984
H17   H     H_    0.770979 0.740814 0.545601 0.156833
H18   H     H_    0.659466 0.423028 0.782837 0.130825
H19   H     H_    0.577362 0.365665 0.808489 0.148056
H20   H     H_    0.693692 0.302542 0.802393 0.179707
H21   H     H_    0.589140 0.667192 0.762755 0.128152
H22   H     H_    0.642916 0.676355 0.831674 0.133507
H23   H     H_    0.321049 0.990290 0.797881 0.169809
H24   H     H_    0.572373 0.775836 0.771528 0.220286
H25   H     H_    0.797376 0.665620 0.415655 0.134697
H26   H     H_    0.818399 0.581679 0.362309 0.153453
H27   H     H_    0.816188 0.696958 0.295893 0.182045
H28   H     H_    0.770001 0.596849 0.667686 0.156097
H29   H     H_    0.852513 0.650412 0.651833 0.155581
H30   H     H_    0.796563 0.593233 0.761728 0.168837
H31   H     H_    0.441407 0.153722 0.580362 0.145790
H32   H     H_    0.451906 0.205459 0.650302 0.143880
H33   H     H_    0.348701 0.181441 0.675563 0.174715
H34   H     H_    0.759175 0.856872 0.341591 0.160809
H35   H     H_    0.448144 0.112602 0.238662 0.151647
H36   H     H_    0.490672 0.084736 0.332961 0.117200
H37   H     H_    0.565285 0.098835 0.219614 0.196549
H38   H     H_    0.182338 0.567254 0.437693 0.155330
H39   H     H_    0.241523 0.616286 0.466531 0.106266
H40   H     H_    0.233022 0.653538 0.353531 0.167328
H41   H     H_    0.080925 0.321598 0.511572 0.123435
H42   H     H_    0.107019 0.231132 0.464497 0.143248
H43   H     H_    0.083039 0.208408 0.584420 0.177559
H44   H     H_    0.573313 0.435646 0.167750 0.143249
H45   H     H_    0.683235 0.971616 0.312392 0.146707
H46   H     H_    0.628611 0.454920 0.228291 0.106202
H47   H     H_    0.663236 0.346390 0.209893 0.173355
H48   H     H_    0.234930 0.467512 0.099667 0.145465
H49   H     H_    0.321526 0.520192 0.071786 0.116734
H50   H     H_    0.206897 0.588516 0.075212 0.197902
H51   H     H_    0.250039 0.126246 0.430748 0.132947
H52   H     H_    0.346910 0.091242 0.471761 0.127365
H53   H     H_    0.234925 0.118776 0.545325 0.167550
H54   H     H_    0.684534 0.167433 0.425205 0.130034
H55   H     H_    0.606788 0.118816 0.423754 0.128387
H56   H     H_    0.709240 0.892234 0.253925 0.168064
H57   H     H_    0.715005 0.114842 0.339598 0.188130
H58   H     H_    0.387515 0.266409 0.149499 0.125519
H59   H     H_    0.430112 0.363563 0.109311 0.129867
H60   H     H_    0.494534 0.253982 0.159622 0.175879
H61   H     H_    0.422731 0.670862 0.181065 0.120983
H62   H     H_    0.419200 0.600325 0.125444 0.137217
H63   H     H_    0.336462 0.709073 0.126838 0.190214
H64   H     H_    0.154701 0.385921 0.255285 0.127108
H65   H     H_    0.119987 0.424279 0.353981 0.131590
H66   H     H_    0.167070 0.491533 0.244596 0.177128
H67   H     H_    0.876448 0.765785 0.397549 0.134304
H68   H     H_    0.188693 0.419640 0.666515 0.124568
H69   H     H_    0.129968 0.412821 0.601040 0.140680
H70   H     H_    0.133935 0.332558 0.710301 0.181010
H71   H     H_    0.733225 0.211759 0.706044 0.187670
H72   H     H_    0.622755 0.221625 0.707344 0.124956
H73   H     H_    0.719926 0.212409 0.606171 0.123836
H74   H     H_    0.392326 0.788144 0.260564 0.117878
H75   H     H_    0.284697 0.790957 0.261805 0.189089
H76   H     H_    0.302882 0.767828 0.367666 0.137102
H77   H     H_    0.216055 0.624869 0.726095 0.126375
H78   H     H_    0.954666 0.826221 0.368189 0.186575
H79   H     H_    0.197534 0.731368 0.740540 0.191911
H80   H     H_    0.215710 0.728279 0.629443 0.132537
H81   H     H_    0.781015 0.270341 0.292793 0.183331
H82   H     H_    0.763732 0.373647 0.312888 0.130567
H83   H     H_    0.786123 0.263613 0.399234 0.120346
H84   H     H_    0.614276 0.726412 0.213448 0.127695
H85   H     H_    0.716792 0.741656 0.204011 0.186380
H86   H     H_    0.716299 0.629275 0.221202 0.126312
H87   H     H_    0.373320 0.308786 0.765325 0.125177
H88   H     H_    0.263135 0.395086 0.784576 0.131809
H89   H     H_    0.916585 0.762120 0.484096 0.133611
H90   H     H_    0.271671 0.285949 0.783209 0.179049
O1    O     O_R   0.982940 0.138950 0.510160 -0.593923
O2    O     O_R   0.982940 0.510160 0.138950 -0.590973
O3    O     O_R   0.861050 0.017060 0.489840 -0.592492
O4    O     O_R   0.138950 0.982940 0.510160 -0.591183
O5    O     O_R   0.867700 0.025880 0.612340 -0.576862
O6    O     O_R   0.132300 0.974120 0.387660 -0.576185
O7    O     O_R   0.025880 0.612340 0.867700 -0.577720
O8    O     O_R   0.974120 0.387660 0.132300 -0.579701
O9    O     O_R   0.612340 0.867700 0.025880 -0.580964
O10   O     O_R   0.387660 0.132300 0.974120 -0.584951
O11   O     O_R   0.387660 0.974120 0.132300 -0.588734
O12   O     O_R   0.017060 0.861050 0.489840 -0.616090
O13   O     O_R   0.612340 0.025880 0.867700 -0.582386
O14   O     O_R   0.132300 0.387660 0.974120 -0.586325
O15   O     O_R   0.867700 0.612340 0.025880 -0.579977
O16   O     O_R   0.974120 0.132300 0.387660 -0.584286
O17   O     O_R   0.025880 0.867700 0.612340 -0.577876
O18   O     O_3   0.435210 0.928009 0.711508 -0.557894
O19   O     O_3   0.623335 0.863136 0.383593 -0.580072
O20   O     O_3   0.009799 0.687588 0.393264 -0.525930
O21   O     O_3   0.864265 0.402454 0.613890 -0.581289
O22   O     O_3   0.696729 0.404364 0.980179 -0.517221
O23   O     O_R   0.138950 0.510160 0.982940 -0.594396
O24   O     O_3   0.401241 0.618924 0.854569 -0.588798
O25   O     O_3   0.370458 0.869127 0.623492 -0.557422
O26   O     O_3   0.700889 0.873398 0.495296 -0.548921
O27   O     O_3   0.619969 0.341912 0.918018 -0.504209
O28   O     O_3   0.503415 0.695163 0.885289 -0.530165
O29   O     O_3   0.931410 0.620286 0.336084 -0.509772
O30   O     O_3   0.893809 0.507113 0.687470 -0.548533
O31   O     O_3   0.453289 0.068702 0.709110 -0.527708
O32   O     O_3   0.531572 0.979550 0.276764 -0.540289
O33   O     O_3   0.115312 0.700549 0.446722 -0.517804
O34   O     O_R   0.861050 0.489840 0.017060 -0.604617
O35   O     O_3   0.971222 0.277676 0.537973 -0.541844
O36   O     O_3   0.704860 0.446916 0.096810 -0.506753
O37   O     O_3   0.278287 0.542158 0.963222 -0.544564
O38   O     O_3   0.275626 0.995551 0.522313 -0.511502
O39   O     O_3   0.720201 0.024902 0.465676 -0.515174
O40   O     O_3   0.496401 0.271605 0.031200 -0.501550
O41   O     O_3   0.462618 0.715064 0.038813 -0.507352
O42   O     O_3   0.036857 0.495307 0.266732 -0.501512
O43   O     O_3   0.046484 0.460130 0.713527 -0.515056
O44   O     O_3   0.717877 0.093193 0.715912 -0.535082
O45   O     O_R   0.510160 0.982940 0.138950 -0.587215
O46   O     O_3   0.282783 0.902304 0.284253 -0.532835
O47   O     O_3   0.089271 0.721014 0.723336 -0.537470
O48   O     O_3   0.896658 0.288436 0.285737 -0.532326
O49   O     O_3   0.718758 0.720962 0.091836 -0.537047
O50   O     O_3   0.287135 0.284483 0.897932 -0.534103
O51   O     O_R   0.489840 0.017060 0.861050 -0.583185
O52   O     O_R   0.489840 0.861050 0.017060 -0.580451
O53   O     O_R   0.510160 0.138950 0.982940 -0.586353
O54   O     O_R   0.017060 0.489840 0.861050 -0.591383
Zn1   Zn    Zn3+2 0.004880 0.004880 0.583590 1.045760
Zn2   Zn    Zn3+2 0.995120 0.995120 0.416410 1.039801
Zn3   Zn    Zn3+2 0.004880 0.583590 0.004880 1.056757
Zn4   Zn    Zn3+2 0.995120 0.416410 0.995120 1.051743
Zn5   Zn    Zn3+2 0.583590 0.004880 0.004880 1.061909
Zn6   Zn    Zn3+2 0.416410 0.995120 0.995120 1.059061

loop_
_geom_bond_atom_site_label_1
_geom_bond_atom_site_label_2
_ccdc_geom_bond_type
C16   C28   A    
C41   O41   S    
C11   C18   A    
C61   O48   S    
C71   H11   S    
C46   C59   A    
C75   H26   S    
C76   H30   S    
C40   O40   S    
C26   O18   S    
C1    C11   S    
O54   Zn4   S    
O1    Zn1   S    
C13   C25   A    
O23   Zn3   S    
C80   O33   S    
C6    O10   A    
C65   H34   S    
C80   H38   S    
C9    C52   S    
C69   H6    S    
O12   Zn2   S    
C81   H41   S    
O9    Zn5   S    
C10   O4    A    
C80   H39   S    
O8    Zn4   S    
C19   O25   S    
C20   O30   S    
C91   H71   S    
C96   H88   S    
C72   O26   S    
C35   O35   S    
C83   H48   S    
C66   O20   S    
C9    O3    A    
C65   O19   S    
C92   O46   S    
C92   H75   S    
C88   H65   S    
O16   Zn2   S    
C71   H14   S    
C71   H13   S    
O11   Zn6   S    
C1    C31   A    
C23   C43   A    
C34   C35   A    
C94   H82   S    
C38   O38   S    
C89   O14   A    
C19   C26   A    
C86   H60   S    
C85   H54   S    
C82   H44   S    
C3    O11   A    
C63   O50   S    
C83   H49   S    
C37   C56   A    
C4    O13   A    
C92   H74   S    
C40   C56   A    
C34   C42   A    
C66   H67   S    
C4    O51   A    
C21   O29   S    
C90   O43   S    
C8    O8    A    
C62   O49   S    
C7    O7    A    
O14   Zn4   S    
C15   C34   S    
C77   H31   S    
C82   H46   S    
C5    O9    A    
C83   O37   S    
C84   H53   S    
C84   H52   S    
C39   C52   A    
C64   O18   S    
C72   H15   S    
C32   O32   S    
C74   O28   S    
C2    O34   A    
C50   C63   A    
O7    Zn3   S    
C73   O27   S    
O45   Zn5   S    
C2    O15   A    
C95   O49   S    
C14   C30   A    
C74   H22   S    
C59   O46   S    
C8    C55   S    
C67   O1    A    
C15   C29   A    
C51   C59   A    
C68   H2    S    
C20   C29   A    
C69   H7    S    
C81   H42   S    
C79   H37   S    
C17   C24   A    
O6    Zn2   S    
C5    O52   A    
C91   H73   S    
C91   O44   S    
C17   C27   A    
C96   H90   S    
C5    C54   S    
C78   O17   A    
C37   O37   S    
C65   H45   S    
C84   O38   S    
C44   C58   A    
C13   C19   A    
C94   O48   S    
C57   C60   A    
C85   H57   S    
C38   C51   A    
C4    C44   S    
C11   C26   A    
C23   C33   A    
C1    C39   A    
C72   H17   S    
C93   H79   S    
C27   O24   S    
C8    O2    A    
C73   H18   S    
C87   H61   S    
C90   H68   S    
C94   H81   S    
O5    Zn1   S    
C14   C23   S    
C18   O26   S    
C86   H59   S    
C85   H55   S    
C58   O44   S    
C2    C49   S    
C14   C20   A    
C42   C55   A    
C83   H50   S    
O34   Zn4   S    
C24   O27   S    
C76   O30   S    
C50   C89   S    
C79   H35   S    
O52   Zn6   S    
C68   O21   S    
C96   O50   S    
C43   C57   A    
C36   C45   A    
C77   H33   S    
C47   C78   S    
C7    O54   A    
C76   H29   S    
C64   H23   S    
C17   C56   S    
C77   H32   S    
C52   C58   A    
O4    Zn1   S    
O17   Zn1   S    
C64   H1    S    
C71   O25   S    
C22   C27   A    
C22   O28   S    
C90   H69   S    
C70   H10   S    
C33   C47   A    
C75   H27   S    
C91   H72   S    
C31   C44   A    
C85   O39   S    
C6    C53   S    
C3    O45   A    
C36   O36   S    
C47   C60   A    
C81   O35   S    
C6    O53   A    
C84   H51   S    
C42   O42   S    
C81   H43   S    
C74   H21   S    
C69   O22   S    
C16   C22   A    
C49   C62   A    
C3    C46   S    
O10   Zn6   S    
C75   H25   S    
C33   O33   S    
C32   C46   A    
C68   H4    S    
C95   H85   S    
C60   O47   S    
C24   C28   A    
C82   H47   S    
C79   O32   S    
C70   H9    S    
C29   O21   S    
C16   C45   S    
C86   O40   S    
C89   O23   A    
C43   O43   S    
C95   H86   S    
C82   O36   S    
C69   H5    S    
C54   C62   A    
C21   C30   A    
C93   H80   S    
C87   O41   S    
O15   Zn3   S    
C87   H62   S    
O53   Zn5   S    
C93   O47   S    
C72   H16   S    
C65   H56   S    
C86   H58   S    
C68   H3    S    
C67   O16   A    
C18   C25   A    
C73   H19   S    
C37   C50   A    
C53   C63   A    
C77   O31   S    
C48   C61   A    
C88   O42   S    
C92   H76   S    
C88   H66   S    
C79   H36   S    
C55   C61   A    
C93   H77   S    
C75   O29   S    
C87   H63   S    
O51   Zn6   S    
C73   H20   S    
C70   H8    S    
C94   H83   S    
C88   H64   S    
C48   C67   S    
C12   C38   A    
C10   O6    A    
C41   C54   A    
C39   O39   S    
C80   H40   S    
C35   C48   A    
O13   Zn5   S    
C76   H28   S    
C74   H24   S    
C10   C51   S    
C95   H84   S    
C15   C21   A    
C90   H70   S    
C12   C13   S    
C25   O19   S    
C28   O22   S    
C40   C53   A    
C66   H89   S    
O3    Zn2   S    
C41   C45   A    
C66   H78   S    
O2    Zn3   S    
C78   O12   A    
C70   O24   S    
C9    O5    A    
C7    C57   S    
C12   C32   A    
C36   C49   A    
C64   H12   S    
C96   H87   S    
C31   O31   S    
C30   O20   S    
