data_mof_unit_24365.cif
_audit_creation_date              2013-03-05T16:03:01-0500
_audit_creation_method            fapswitch 2.2
_symmetry_space_group_name_H-M    P1
_symmetry_Int_Tables_number       1
_space_group_crystal_system       triclinic
_cell_length_a                    14.993396
_cell_length_b                    14.036954
_cell_length_c                    10.54498
_cell_angle_alpha                 90.24374
_cell_angle_beta                  90.049754
_cell_angle_gamma                 89.998748
_cell_volume                      2219.29254913

loop_
_atom_site_label
_atom_site_type_symbol
_atom_site_description
_atom_site_fract_x
_atom_site_fract_y
_atom_site_fract_z
_atom_type_partial_charge
O1    O     O_R   0.367850 0.580280 0.500030 -0.612815
O2    O     O_R   0.632150 0.419720 0.499970 -0.580456
O3    O     O_R   0.632150 0.580280 0.499970 -0.615329
O4    O     O_R   0.367850 0.419720 0.500030 -0.584135
C1    C     C_R   0.327034 0.499968 0.500677 1.002644
C2    C     C_R   0.672964 0.499964 0.500668 1.002732
O5    O     O_R   0.499970 0.580260 0.313950 -0.626170
O6    O     O_R   0.500030 0.419740 0.686050 -0.618208
O7    O     O_R   0.500030 0.580260 0.686050 -0.637960
O8    O     O_R   0.499970 0.419740 0.313950 -0.630881
C3    C     C_R   0.500006 0.499974 0.257078 0.986100
C4    C     C_R   0.500092 0.500112 0.742914 0.953158
Zn1   Zn    Zn3+2 0.500000 0.607200 0.500000 1.025346
Zn2   Zn    Zn3+2 0.500000 0.392800 0.500000 1.049899
C5    C     C_3   0.426684 0.545303 0.041602 -0.068235
C6    C     C_3   0.573602 0.455407 0.958391 -0.075887
C7    C     C_3   0.499780 0.590654 0.958865 -0.156081
C8    C     C_3   0.500474 0.409937 0.041043 -0.152332
C9    C     C_3   0.427034 0.454736 0.958106 -0.086106
C10   C     C_3   0.573157 0.545962 0.041911 -0.075684
H1    H     H_    0.367974 0.415313 0.923502 0.249480
H2    H     H_    0.631827 0.585874 0.077142 0.249641
H3    H     H_    0.367600 0.584601 0.076497 0.249984
H4    H     H_    0.633014 0.416535 0.924063 0.249362
H5    H     H_    0.499703 0.664585 0.921989 0.231398
H6    H     H_    0.500822 0.335888 0.077720 0.205586
C11   C     C_3   0.500161 0.500157 0.877855 -0.078351
C12   C     C_3   0.500067 0.500358 0.122109 -0.060145
C13   C     C_R   0.813470 0.524219 0.389586 0.247923
C14   C     C_R   0.186504 0.479980 0.613523 0.241664
C15   C     C_R   0.768423 0.499997 0.500843 -0.283196
C16   C     C_R   0.231569 0.500008 0.500797 -0.284972
C17   C     C_R   0.813642 0.479737 0.613502 0.244069
C18   C     C_R   0.186370 0.523985 0.389436 0.248748
C19   C     C_R   0.906658 0.482920 0.615348 0.014625
C20   C     C_R   0.093339 0.527072 0.389766 0.008587
C21   C     C_R   0.953237 0.506404 0.503066 0.020701
C22   C     C_R   0.046757 0.506417 0.503047 0.020663
C23   C     C_R   0.906490 0.527175 0.389850 0.011219
C24   C     C_R   0.093496 0.483047 0.615352 0.016777
C25   C     C_R   0.954018 0.460543 0.726011 -0.113816
C26   C     C_R   0.045946 0.547066 0.278315 -0.113662
C27   C     C_R   0.046305 0.460643 0.726026 -0.109539
C28   C     C_R   0.953698 0.547179 0.278378 -0.109803
H7    H     H_    0.920297 0.441222 0.812902 0.210341
H8    H     H_    0.079529 0.561204 0.189576 0.211411
H9    H     H_    0.080172 0.441417 0.812930 0.210812
H10   H     H_    0.919943 0.561445 0.189712 0.211788
C29   C     C_R   0.539114 0.797571 0.402503 0.064879
C30   C     C_R   0.461868 0.202384 0.598240 0.072376
C31   C     C_R   0.460864 0.798235 0.597457 0.047378
C32   C     C_R   0.537979 0.201788 0.401586 0.052541
N1    N     N_R   0.500000 0.750030 0.500000 -0.135727
N2    N     N_R   0.500000 0.249970 0.500000 -0.135739
C33   C     C_R   0.461008 0.899063 0.601633 -0.108715
C34   C     C_R   0.539990 0.100938 0.398997 -0.108655
C35   C     C_R   0.538741 0.898372 0.398037 -0.112204
C36   C     C_R   0.459784 0.101582 0.600646 -0.115599
C37   C     C_R   0.499887 0.949432 0.499827 0.021699
C38   C     C_R   0.499897 0.050549 0.499823 0.021816
C39   C     C_R   0.421841 0.950242 0.703283 0.228120
C40   C     C_R   0.579191 0.049758 0.297318 0.224931
C41   C     C_R   0.577620 0.948852 0.296096 0.226931
C42   C     C_R   0.420370 0.051083 0.702113 0.225737
H11   H     H_    0.570791 0.755985 0.328815 0.187092
H12   H     H_    0.433429 0.243900 0.674607 0.192038
H13   H     H_    0.429416 0.757184 0.671421 0.175652
H14   H     H_    0.566281 0.242899 0.325204 0.179232
N3    N     N_R   0.764235 0.541752 0.275616 0.180845
O9    O     O_R   0.722264 0.472090 0.219913 -0.411824
O10   O     O_R   0.761760 0.626940 0.227561 -0.376373
N4    N     N_R   0.235751 0.456335 0.725449 0.174367
O11   O     O_R   0.271547 0.372339 0.736083 -0.368629
O12   O     O_R   0.240285 0.516682 0.819271 -0.400706
N5    N     N_R   0.764547 0.455946 0.725397 0.175634
O13   O     O_R   0.760477 0.516026 0.819535 -0.399593
O14   O     O_R   0.728623 0.371996 0.735798 -0.376080
N6    N     N_R   0.235451 0.541097 0.275328 0.184280
O15   O     O_R   0.237289 0.625936 0.226151 -0.372214
O16   O     O_R   0.277993 0.471413 0.220661 -0.415311
N7    N     N_R   0.382090 0.900392 0.807513 0.226925
O17   O     O_R   0.299150 0.915703 0.837463 -0.277515
O18   O     O_R   0.430960 0.846683 0.879924 -0.338215
N8    N     N_R   0.619183 0.099682 0.193303 0.220316
O19   O     O_R   0.591804 0.084242 0.077923 -0.271274
O20   O     O_R   0.688167 0.154104 0.212511 -0.332571
N9    N     N_R   0.616889 0.898219 0.191515 0.231305
O21   O     O_R   0.699499 0.913763 0.160174 -0.269803
O22   O     O_R   0.568112 0.842469 0.121076 -0.326748
N10   N     N_R   0.380089 0.101645 0.805895 0.222209
O23   O     O_R   0.407416 0.087236 0.921366 -0.272370
O24   O     O_R   0.310550 0.155070 0.786457 -0.311325

loop_
_geom_bond_atom_site_label_1
_geom_bond_atom_site_label_2
_geom_bond_distance
_ccdc_geom_bond_type
C14   C16   1.397429 A    
N9    O21   1.300891 A    
C33   C37   1.414128 A    
C20   C26   1.402234 A    
C8    H6    1.110593 S    
C42   N10   1.435499 S    
O3    C2    1.282800 A    
N7    O17   1.300935 A    
C5    C12   1.527161 S    
O5    C3    1.274354 A    
C30   N2    1.361301 A    
C29   H11   1.080232 S    
O1    C1    1.282789 A    
C19   C21   1.415286 A    
N8    O20   1.301060 A    
N6    O16   1.300684 A    
C35   C37   1.414102 A    
C36   C38   1.414159 A    
C7    C10   1.540710 S    
C29   C35   1.415939 A    
C8    C9    1.541345 S    
C26   H8    1.082108 S    
N3    O10   1.301223 A    
O7    Zn1   1.999585 S    
C17   N5    1.431950 S    
C24   C27   1.402179 A    
C15   C17   1.397610 A    
C9    C11   1.526771 S    
C13   N3    1.432059 S    
C32   H14   1.079999 S    
O6    C4    1.275377 A    
C1    C16   1.431352 S    
C6    C11   1.526821 S    
C5    H3    1.106009 S    
C2    C15   1.431260 S    
C37   C38   1.419376 A    
C6    H4    1.105047 S    
C25   C27   1.383696 A    
O2    C2    1.281876 A    
C26   C28   1.383120 A    
C19   C25   1.402251 A    
N7    O18   1.300857 A    
C32   N2    1.361501 A    
C35   C41   1.416004 A    
Zn1   N1    2.004898 S    
C36   C42   1.415656 A    
C21   C23   1.415301 A    
C4    C11   1.422944 S    
C30   C36   1.415633 A    
C8    C12   1.527258 S    
N8    O19   1.301029 A    
N4    O12   1.301443 A    
O8    Zn2   1.999586 S    
N6    O15   1.301216 A    
N4    O11   1.300674 A    
C10   C12   1.527130 S    
C34   C38   1.414059 A    
C31   N1    1.361407 A    
C7    C11   1.527824 S    
C39   C42   1.415778 A    
C5    C9    1.543339 S    
N5    O13   1.301283 A    
C21   C22   1.402184 A    
N5    O14   1.300770 A    
N10   O24   1.300915 A    
C6    C10   1.543353 S    
C13   C23   1.395307 A    
C40   C41   1.416602 A    
C14   C24   1.395314 A    
C31   H13   1.080356 S    
C30   H12   1.080050 S    
Zn2   N2    2.004900 S    
C10   H2    1.106066 S    
N9    O22   1.301187 A    
C34   C40   1.416232 A    
O1    Zn1   2.017098 S    
C5    C7    1.540766 S    
C40   N8    1.435745 S    
O6    Zn2   1.996425 S    
C41   N9    1.436118 S    
O4    C1    1.281917 A    
O3    Zn1   2.017080 S    
C14   N4    1.431855 S    
C23   C28   1.402076 A    
C7    H5    1.109773 S    
C20   C22   1.415343 A    
C13   C15   1.397479 A    
C39   N7    1.435477 S    
C18   N6    1.432164 S    
C22   C24   1.415273 A    
N10   O23   1.301015 A    
C3    C12   1.423288 S    
C29   N1    1.361304 A    
C33   C39   1.415792 A    
C17   C19   1.395462 A    
C18   C20   1.395522 A    
C31   C33   1.415809 A    
O4    Zn2   2.017081 S    
N3    O9    1.300646 A    
O2    Zn2   2.017097 S    
O7    C4    1.277103 A    
O8    C3    1.278202 A    
C28   H10   1.082210 S    
O5    Zn1   1.996427 S    
C6    C8    1.541299 S    
C25   H7    1.082427 S    
C27   H9    1.082475 S    
C32   C34   1.416098 A    
C16   C18   1.397665 A    
C9    H1    1.105095 S    
