data_mof_unit_42416.cif
_audit_creation_date              2012-12-10T18:24:39-0500
_audit_creation_method            fapswitch 2.2
_symmetry_space_group_name_H-M    P1
_symmetry_Int_Tables_number       1
_space_group_crystal_system       triclinic
_cell_length_a                    14.104605
_cell_length_b                    14.916401
_cell_length_c                    16.471657
_cell_angle_alpha                 88.689605
_cell_angle_beta                  84.546997
_cell_angle_gamma                 91.982439
_cell_volume                      3446.53142067

loop_
_atom_site_label
_atom_site_type_symbol
_atom_type_description
_atom_site_fract_x
_atom_site_fract_y
_atom_site_fract_z
_atom_type_partial_charge
C1    C     C_R   0.501504 0.672858 0.498902 0.910966
C2    C     C_R   0.466811 0.901680 0.568767 0.108201
C3    C     C_R   0.498507 0.046949 0.501336 0.024083
C4    C     C_R   0.501292 0.953352 0.498837 0.030454
C5    C     C_R   0.461629 0.088757 0.573729 0.109868
C6    C     C_R   0.538094 0.911536 0.426448 0.115199
C7    C     C_R   0.569828 0.057785 0.360411 -0.184223
C8    C     C_R   0.430056 0.942506 0.639770 -0.182899
C9    C     C_R   0.572505 0.965166 0.357807 -0.201829
C10   C     C_R   0.427300 0.035119 0.642377 -0.202139
C11   C     C_R   0.195246 0.424258 0.525384 0.295335
C12   C     C_R   0.498456 0.327207 0.501314 0.884675
C13   C     C_R   0.804807 0.576257 0.476377 0.295198
C14   C     C_R   0.207539 0.574980 0.475451 -0.026995
C15   C     C_R   0.792478 0.424786 0.524116 -0.050613
C16   C     C_R   0.486302 0.502175 0.654512 0.936822
C17   C     C_R   0.513422 0.492840 0.345932 0.953441
C18   C     C_R   0.106836 0.578925 0.479137 -0.015599
C19   C     C_R   0.893211 0.421001 0.521253 -0.014250
C20   C     C_R   0.050525 0.499659 0.499305 -0.022456
C21   C     C_R   0.949526 0.500374 0.501635 -0.021687
C22   C     C_R   0.095616 0.419269 0.515564 -0.013720
C23   C     C_R   0.461052 0.182979 0.575531 0.120023
C24   C     C_R   0.904468 0.580944 0.486001 -0.013773
C25   C     C_R   0.061532 0.660464 0.465771 0.198620
C26   C     C_R   0.938579 0.339526 0.535002 0.199001
C27   C     C_R   0.960673 0.662739 0.478213 0.192646
C28   C     C_R   0.039565 0.337423 0.523548 0.189897
C29   C     C_R   0.478502 0.497416 0.744413 -0.282303
C30   C     C_R   0.518226 0.452346 0.264209 -0.274115
C31   C     C_R   0.562328 0.481724 0.780834 -0.330524
C32   C     C_R   0.432966 0.411426 0.242691 -0.331289
C33   C     C_R   0.561502 0.467234 0.864062 0.443403
C34   C     C_R   0.538467 0.817305 0.424632 0.088146
C35   C     C_R   0.429713 0.365471 0.170936 0.451957
C36   C     C_R   0.473265 0.455484 0.911644 -0.068101
C37   C     C_R   0.513687 0.357542 0.119288 -0.076833
C38   C     C_R   0.387509 0.472727 0.876614 -0.000746
C39   C     C_R   0.602134 0.381292 0.147419 0.016511
C40   C     C_R   0.391526 0.503675 0.794375 0.451635
C41   C     C_R   0.604722 0.438577 0.214745 0.450635
C42   C     C_2   0.469629 0.434810 0.999533 -0.078078
C43   C     C_2   0.507798 0.361850 0.030586 -0.021289
C44   C     C_3   0.235837 0.354890 0.579030 -0.747701
C45   C     C_R   0.495311 0.231922 0.503968 -0.052013
C46   C     C_3   0.764094 0.646879 0.424582 -0.757604
C47   C     C_3   0.120770 0.745058 0.440000 -0.894799
C48   C     C_3   0.879250 0.254879 0.560393 -0.903021
C49   C     C_3   0.915896 0.751331 0.499005 -0.897756
C50   C     C_3   0.084935 0.248771 0.504051 -0.888458
C51   C     C_3   0.292973 0.454727 0.926917 -0.619452
C52   C     C_3   0.691214 0.340459 0.108415 -0.615964
C53   C     C_3   0.427627 0.230018 0.653455 -0.922104
C54   C     C_3   0.571215 0.770297 0.346637 -0.860642
C55   C     C_R   0.504564 0.768282 0.496244 -0.069404
C56   C     C_R   0.530891 0.190790 0.433331 -0.287764
C57   C     C_R   0.469194 0.809506 0.566891 -0.277080
C58   C     C_R   0.533083 0.098618 0.431411 0.119256
H1    H     H_    0.630313 0.482377 0.744301 0.212010
H2    H     H_    0.403270 0.902661 0.693482 0.172914
H3    H     H_    0.601923 0.936602 0.301570 0.170652
H4    H     H_    0.397954 0.063664 0.698644 0.172960
H5    H     H_    0.292144 0.384710 0.612741 0.283219
H6    H     H_    0.264621 0.298360 0.543179 0.232172
H7    H     H_    0.180763 0.328550 0.627102 0.222920
H8    H     H_    0.706095 0.617686 0.392880 0.309903
H9    H     H_    0.736886 0.703302 0.461442 0.229860
H10   H     H_    0.818115 0.672683 0.375421 0.216070
H11   H     H_    0.169471 0.732201 0.384831 0.240350
H12   H     H_    0.366757 0.416142 0.281189 0.238242
H13   H     H_    0.077393 0.801715 0.422687 0.258230
H14   H     H_    0.163040 0.766351 0.490219 0.249989
H15   H     H_    0.837638 0.233475 0.509796 0.246876
H16   H     H_    0.922437 0.198277 0.578149 0.259141
H17   H     H_    0.829927 0.267744 0.615178 0.239134
H18   H     H_    0.850109 0.740998 0.541165 0.247209
H19   H     H_    0.963619 0.793728 0.533396 0.258336
H20   H     H_    0.900983 0.788514 0.442765 0.244200
H21   H     H_    0.151719 0.258854 0.463097 0.253842
H22   H     H_    0.098386 0.211944 0.560885 0.242618
H23   H     H_    0.252907 0.633046 0.457308 0.163323
H24   H     H_    0.038248 0.206168 0.468886 0.257510
H25   H     H_    0.743028 0.643700 0.237751 0.383218
H26   H     H_    0.179288 0.639591 0.815353 0.394741
H27   H     H_    0.292580 0.387775 0.957750 0.260761
H28   H     H_    0.281620 0.506915 0.973464 0.264984
H29   H     H_    0.231916 0.452047 0.889331 0.272544
H30   H     H_    0.673520 0.280362 0.073442 0.213284
H31   H     H_    0.733096 0.388664 0.066293 0.327934
H32   H     H_    0.735900 0.317770 0.156382 0.226403
H33   H     H_    0.199204 0.249326 0.214633 0.393129
H34   H     H_    0.747155 0.366502 0.541555 0.163477
H35   H     H_    0.785506 0.482117 0.805681 0.362287
H36   H     H_    0.436014 0.304032 0.648594 0.231579
H37   H     H_    0.351020 0.212916 0.670710 0.248867
H38   H     H_    0.470026 0.208479 0.703416 0.249830
H39   H     H_    0.561435 0.696405 0.351465 0.256939
H40   H     H_    0.529184 0.792601 0.296695 0.250649
H41   H     H_    0.648046 0.786443 0.329505 0.246176
H42   H     H_    0.543734 0.313777 0.991154 0.181316
H43   H     H_    0.434951 0.482705 0.040237 0.176103
H44   H     H_    0.557307 0.231268 0.379697 0.152799
H45   H     H_    0.443140 0.769142 0.620606 0.191823
H46   H     H_    0.596664 0.097629 0.306707 0.157903
N1    N     N_R   0.249970 0.499930 0.499970 -0.101627
N2    N     N_R   0.750030 0.500070 0.500030 -0.100514
O1    O     O_R   0.419720 0.632140 0.499990 -0.603714
O2    O     O_2   0.782174 0.502617 0.155170 -0.254041
O3    O     O_3   0.682371 0.607935 0.247670 -0.594558
O4    O     O_2   0.328691 0.632648 0.696075 -0.307841
O5    O     O_2   0.226547 0.496879 0.724931 -0.325113
O6    O     O_3   0.235433 0.614288 0.838145 -0.543574
O7    O     O_2   0.258425 0.396624 0.122685 -0.315382
O8    O     O_2   0.330699 0.256044 0.078481 -0.299365
O9    O     O_3   0.263062 0.267536 0.230223 -0.548733
O10   O     O_2   0.665098 0.513993 0.986206 -0.235567
O11   O     O_2   0.704518 0.374861 0.915536 -0.361123
O12   O     O_R   0.580280 0.367860 0.500010 -0.626816
O13   O     O_3   0.755381 0.527239 0.842010 -0.505391
O14   O     O_R   0.580270 0.632160 0.499980 -0.635154
O15   O     O_R   0.419730 0.367840 0.500020 -0.634330
O16   O     O_R   0.410240 0.500000 0.615800 -0.560056
O17   O     O_R   0.589760 0.500000 0.384200 -0.558790
O18   O     O_R   0.570790 0.500020 0.615800 -0.624424
O19   O     O_R   0.429210 0.499980 0.384200 -0.630048
O20   O     O_2   0.756842 0.462450 0.300405 -0.296408
S1    S     S_3+6 0.711340 0.501469 0.229328 0.035766
S2    S     S_3+6 0.294001 0.562371 0.759889 0.017833
S3    S     S_3+6 0.318297 0.320890 0.146890 0.010332
S4    S     S_3+6 0.673050 0.469327 0.905124 0.026452
Zn1   Zn    Zn3+2 0.392800 0.499980 0.500010 0.989136
Zn2   Zn    Zn3+2 0.607200 0.500020 0.499990 0.975875

loop_
_geom_bond_atom_site_label_1
_geom_bond_atom_site_label_2
_ccdc_geom_bond_type
C33   S4    S    
C38   C40   A    
O20   S1    D    
C23   C45   A    
O17   Zn2   S    
C53   H37   S    
C41   S1    S    
C36   C42   S    
C24   C27   A    
C50   H21   S    
C51   H27   S    
C6    C9    A    
C52   H31   S    
C2    C57   A    
N1    Zn1   S    
C44   H6    S    
N2    Zn2   S    
H26   O6    S    
O7    S3    D    
C9    H3    S    
C15   N2    A    
C19   C21   A    
C46   H8    S    
C13   C46   S    
C40   S2    S    
O13   S4    S    
C49   H20   S    
O18   Zn2   S    
C31   H1    S    
C19   C26   A    
C14   C18   A    
C47   H11   S    
C16   O16   A    
C15   H34   S    
C15   C19   A    
C52   H32   S    
O3    S1    S    
C14   N1    A    
C12   O15   A    
C45   C56   A    
C56   C58   A    
C11   N1    A    
C31   C33   A    
C30   C41   A    
C25   C47   S    
C7    C58   A    
C26   C48   S    
C39   C52   S    
C34   C55   A    
C22   C28   A    
C53   H38   S    
C17   C30   S    
C48   H17   S    
C44   H7    S    
C10   H4    S    
C18   C25   A    
C28   C50   S    
O15   Zn1   S    
C51   H28   S    
C17   O17   A    
C23   C53   S    
C44   H5    S    
C57   H45   S    
C33   C36   A    
C32   C35   A    
C48   H16   S    
C52   H30   S    
C43   H42   S    
O1    Zn1   S    
C51   H29   S    
C13   N2    A    
C32   H12   S    
C38   C51   S    
C16   C29   S    
C6    C34   A    
C13   C24   A    
C1    O14   A    
C37   C43   S    
C2    C4    A    
C46   H10   S    
O19   Zn1   S    
C5    C23   A    
H25   O3    S    
C49   H18   S    
C11   C44   S    
C54   H39   S    
O11   S4    D    
C47   H13   S    
C1    O1    A    
C12   O12   A    
C4    C6    A    
C20   C22   A    
C34   C54   S    
C7    H46   S    
C55   C57   A    
O8    S3    D    
C54   H41   S    
C42   C43   D    
C3    C4    A    
C42   H43   S    
O16   Zn1   S    
C50   H24   S    
O9    S3    S    
C7    C9    A    
C35   S3    S    
H33   O9    S    
C35   C37   A    
C53   H36   S    
O14   Zn2   S    
C48   H15   S    
C8    C10   A    
C2    C8    A    
C12   C45   S    
C3    C5    A    
C50   H22   S    
C25   C27   A    
C11   C22   A    
C26   C28   A    
C36   C38   A    
C16   O18   A    
C56   H44   S    
C46   H9    S    
C29   C31   A    
C8    H2    S    
C30   C32   A    
C17   O19   A    
C29   C40   A    
C49   H19   S    
C18   C20   A    
O2    S1    D    
C1    C55   S    
C47   H14   S    
O6    S2    S    
O12   Zn2   S    
C3    C58   A    
C5    C10   A    
O10   S4    D    
C20   C21   A    
C39   C41   A    
C37   C39   A    
C21   C24   A    
O5    S2    D    
C54   H40   S    
H35   O13   S    
C14   H23   S    
C27   C49   S    
O4    S2    D    
