data_mof_unit_39126.cif
_audit_creation_date              2012-12-10T17:15:51-0500
_audit_creation_method            fapswitch 2.2
_symmetry_space_group_name_H-M    P1
_symmetry_Int_Tables_number       1
_space_group_crystal_system       triclinic
_cell_length_a                    10.156864
_cell_length_b                    10.51384
_cell_length_c                    10.641541
_cell_angle_alpha                 90.319234
_cell_angle_beta                  94.417783
_cell_angle_gamma                 81.605745
_cell_volume                      1120.85226782

loop_
_atom_site_label
_atom_site_type_symbol
_atom_type_description
_atom_site_fract_x
_atom_site_fract_y
_atom_site_fract_z
_atom_type_partial_charge
C1    C     C_R   0.445319 0.502449 0.266212 0.866070
C2    C     C_R   0.578006 0.054307 0.377701 0.085654
C3    C     C_R   0.481180 0.128320 0.449492 -0.210999
C4    C     C_R   0.363696 0.076472 0.474674 0.153949
C5    C     C_R   0.357701 0.948952 0.445849 0.136078
C6    C     C_R   0.477672 0.868790 0.428424 -0.211983
C7    C     C_2   0.418702 0.479030 0.133091 -0.257283
C8    C     C_2   0.520330 0.422534 0.069926 -0.280319
C9    C     C_2   0.583890 0.466359 0.867084 -0.446426
C10   C     C_2   0.505010 0.407381 0.935861 0.409785
C11   C     C_2   0.070092 0.497541 0.483196 -0.061184
C12   C     C_R   0.495681 0.259352 0.487492 0.946430
C13   C     C_2   0.926223 0.514361 0.509685 0.233888
C14   C     C_R   0.554713 0.485168 0.733203 1.021815
C15   C     C_R   0.492963 0.736777 0.472695 0.921952
C16   C     C_R   0.668653 0.108865 0.306885 -0.231342
C17   C     C_R   0.762684 0.031481 0.240304 -0.207516
C18   C     C_R   0.766558 0.898415 0.239328 0.520505
C19   C     C_R   0.674612 0.843236 0.304134 -0.225868
C20   C     C_R   0.579717 0.920189 0.373090 0.019449
H1    H     H_    0.318919 0.504737 0.087490 0.202545
H2    H     H_    0.103200 0.437121 0.405354 0.158984
H3    H     H_    0.880711 0.384590 0.382456 0.156220
H4    H     H_    0.128754 0.604902 0.627845 0.218634
H5    H     H_    0.663573 0.211237 0.294620 0.180461
H6    H     H_    0.829575 0.076244 0.186165 0.204522
H7    H     H_    0.672352 0.741445 0.291938 0.190403
H8    H     H_    0.620840 0.397734 0.114356 0.179259
H9    H     H_    0.663534 0.513218 0.912481 0.181084
N1    N     N_2   0.157290 0.551390 0.551110 -0.162198
N2    N     N_2   0.842740 0.448550 0.448960 -0.207758
O1    O     O_R   0.568950 0.489660 0.307530 -0.639103
O2    O     O_R   0.348880 0.522640 0.340350 -0.602939
O3    O     O_R   0.610060 0.300270 0.483590 -0.620434
O4    O     O_R   0.389990 0.333260 0.516410 -0.567603
O5    O     O_R   0.651120 0.477360 0.659650 -0.577665
O6    O     O_R   0.431050 0.510340 0.692470 -0.553822
O7    O     O_R   0.610010 0.666740 0.483590 -0.600255
O8    O     O_R   0.389940 0.699730 0.516410 -0.586483
Zn1   Zn    Zn3+2 0.646940 0.477980 0.478090 0.992504
Zn2   Zn    Zn3+2 0.353060 0.522020 0.521910 1.060222
I1    I     I_    0.195466 0.171892 0.568132 -0.135321
I2    I     I_    0.862856 0.652253 0.650174 -0.177356
S1    S     S_3+6 0.878059 0.800612 0.148103 0.033533
O9    O     O_2   0.946317 0.687966 0.226381 -0.313121
O10   O     O_2   0.800533 0.752100 0.036432 -0.289451
O11   O     O_3   0.992783 0.884621 0.097614 -0.524802
H10   H     H_    0.054378 0.821159 0.053098 0.397539
I3    I     I_    0.166618 0.883649 0.408014 -0.177305
S2    S     S_3+6 0.390773 0.306054 0.874565 0.076566
O12   O     O_2   0.264474 0.385983 0.820684 -0.232140
O13   O     O_2   0.452101 0.222274 0.773394 -0.303359
O14   O     O_3   0.352868 0.212461 0.990293 -0.498625
H11   H     H_    0.438548 0.159570 0.019417 0.354610

loop_
_geom_bond_atom_site_label_1
_geom_bond_atom_site_label_2
_ccdc_geom_bond_type
S2    O13   D    
C9    C14   S    
N1    Zn2   S    
C18   S1    S    
C2    C16   A    
C6    C20   A    
C9    C10   D    
C11   H2    S    
C19   C20   A    
S1    O11   S    
C9    H9    S    
O2    Zn2   S    
C13   I2    S    
C17   C18   A    
C1    O2    A    
C7    C8    D    
O8    Zn2   S    
C7    H1    S    
O14   H11   S    
N2    Zn1   S    
C14   O6    A    
O7    Zn1   S    
C11   C13   S    
C15   O8    A    
C16   C17   A    
C15   O7    A    
C4    I1    S    
C8    H8    S    
C17   H6    S    
S1    O10   D    
C2    C3    A    
O1    Zn1   S    
O6    Zn2   S    
C5    C6    A    
O4    Zn2   S    
H4    N1    S    
C5    I3    S    
S2    O14   S    
C12   O3    A    
C3    C4    A    
C10   S2    S    
O5    Zn1   S    
C19   H7    S    
S1    O9    D    
C8    C10   S    
C18   C19   A    
C16   H5    S    
O3    Zn1   S    
C14   O5    A    
C3    C12   S    
S2    O12   D    
C6    C15   S    
C1    C7    S    
C2    C20   A    
C13   N2    D    
C1    O1    A    
O11   H10   S    
C11   N1    D    
C4    C5    A    
C12   O4    A    
H3    N2    S    
