data_mof_unit_50798.cif
_audit_creation_date              2013-03-05T15:40:59-0500
_audit_creation_method            fapswitch 2.2
_symmetry_space_group_name_H-M    P1
_symmetry_Int_Tables_number       1
_space_group_crystal_system       triclinic
_cell_length_a                    28.176802
_cell_length_b                    7.174762
_cell_length_c                    17.376023
_cell_angle_alpha                 90.156478
_cell_angle_beta                  101.800828
_cell_angle_gamma                 89.966618
_cell_volume                      3438.51173934

loop_
_atom_site_label
_atom_site_type_symbol
_atom_site_description
_atom_site_fract_x
_atom_site_fract_y
_atom_site_fract_z
_atom_type_partial_charge
O1    O     O_R   0.000700 0.436510 0.857920 -0.595942
O2    O     O_R   0.999300 0.563490 0.142080 -0.581679
O3    O     O_R   0.999300 0.936510 0.642080 -0.551272
O4    O     O_R   0.000700 0.063490 0.357920 -0.575455
O5    O     O_R   0.930080 0.766380 0.721890 -0.520910
O6    O     O_R   0.069920 0.233620 0.278110 -0.544397
O7    O     O_R   0.069920 0.266380 0.778110 -0.526365
O8    O     O_R   0.930080 0.733620 0.221890 -0.543368
C1    C     C_R   0.910485 0.597575 0.710596 0.864017
C2    C     C_R   0.089467 0.402723 0.289495 0.849145
C3    C     C_R   0.089510 0.097575 0.789303 0.864915
C4    C     C_R   0.910534 0.902683 0.210342 0.866668
O9    O     O_R   0.996180 0.766230 0.862310 -0.538390
O10   O     O_R   0.003820 0.233770 0.137690 -0.546016
O11   O     O_R   0.003820 0.266230 0.637690 -0.548444
O12   O     O_R   0.996180 0.733770 0.362310 -0.573223
O13   O     O_R   0.065870 0.936460 0.783500 -0.544659
O14   O     O_R   0.934130 0.063540 0.216500 -0.517832
O15   O     O_R   0.934130 0.436460 0.716500 -0.551624
O16   O     O_R   0.065870 0.563540 0.283500 -0.527280
C5    C     C_R   0.999191 0.596066 0.894407 0.848090
C6    C     C_R   0.000757 0.403963 0.105578 0.863294
C7    C     C_R   0.001571 0.095967 0.605905 0.899222
C8    C     C_R   0.999446 0.904611 0.394567 0.805833
O17   O     O_3   0.022790 0.603020 0.723980 -0.250413
O18   O     O_3   0.977210 0.396980 0.276020 -0.264129
O19   O     O_3   0.977210 0.103020 0.776020 -0.274917
O20   O     O_3   0.022790 0.896980 0.223980 -0.254952
V1    V     V_3+5 0.995770 0.877900 0.754830 1.270111
V2    V     V_3+5 0.004230 0.122100 0.245170 1.251864
V3    V     V_3+5 0.004230 0.377900 0.745170 1.252833
V4    V     V_3+5 0.995770 0.622100 0.254830 1.234627
C9    C     C_2   0.997038 0.083246 0.519334 -0.223064
C10   C     C_2   0.007800 0.922336 0.481826 -0.264173
C11   C     C_2   0.002850 0.582944 0.980858 -0.253444
C12   C     C_2   0.996991 0.417271 0.019106 -0.259712
C13   C     C_R   0.683799 0.957294 0.025044 0.619840
C14   C     C_R   0.317246 0.063812 0.968541 0.613850
C15   C     C_R   0.316251 0.458887 0.473816 0.618672
C16   C     C_R   0.682839 0.562968 0.530543 0.614998
O21   O     O_2   0.713556 0.971499 0.973545 -0.516373
O22   O     O_2   0.288590 0.104678 0.019760 -0.515179
O23   O     O_2   0.286505 0.473488 0.525351 -0.518073
O24   O     O_2   0.711527 0.603344 0.479410 -0.513527
N1    N     N_R   0.702996 0.937782 0.103444 -0.430326
N2    N     N_R   0.297206 0.042838 0.890509 -0.430872
N3    N     N_R   0.297041 0.439108 0.395385 -0.430129
N4    N     N_R   0.702851 0.542340 0.608549 -0.430884
C17   C     C_R   0.673593 0.921038 0.156844 0.631500
C18   C     C_R   0.325356 0.999313 0.837356 0.634907
C19   C     C_R   0.326439 0.422095 0.341950 0.632295
C20   C     C_R   0.674690 0.499136 0.661618 0.634784
C21   C     C_R   0.779698 0.082378 0.177092 -0.089871
C22   C     C_R   0.224980 0.216796 0.817289 -0.091746
C23   C     C_R   0.220225 0.582511 0.321780 -0.091397
C24   C     C_R   0.774997 0.717460 0.681670 -0.089505
C25   C     C_R   0.830365 0.068179 0.206932 0.243153
C26   C     C_R   0.173939 0.226122 0.789853 0.239918
C27   C     C_R   0.169534 0.567914 0.292169 0.240333
C28   C     C_R   0.826011 0.726853 0.709333 0.239327
C29   C     C_R   0.831538 0.770954 0.139680 -0.109604
C30   C     C_R   0.164680 0.938252 0.859007 -0.086403
C31   C     C_R   0.168577 0.271762 0.359664 -0.115954
C32   C     C_R   0.835387 0.437541 0.640633 -0.082473
C33   C     C_R   0.781463 0.781052 0.112766 -0.002853
C34   C     C_R   0.214791 0.925918 0.884041 0.004501
C35   C     C_R   0.218664 0.282179 0.386306 -0.003471
C36   C     C_R   0.785287 0.425054 0.615418 0.004074
C37   C     C_R   0.755111 0.935353 0.130495 0.237242
C38   C     C_R   0.245340 0.063484 0.864172 0.233804
C39   C     C_R   0.244922 0.436206 0.368393 0.237553
C40   C     C_R   0.754698 0.563236 0.634987 0.233178
C41   C     C_R   0.602230 0.958696 0.052000 -0.074434
C42   C     C_R   0.397763 0.010480 0.941797 -0.072432
C43   C     C_R   0.397813 0.459758 0.446848 -0.074608
C44   C     C_R   0.602299 0.510215 0.557163 -0.072368
C45   C     C_R   0.633278 0.962754 0.997760 -0.041283
C46   C     C_R   0.367430 0.042861 0.995798 -0.037398
C47   C     C_R   0.366771 0.464129 0.501102 -0.040971
C48   C     C_R   0.632651 0.542222 0.503231 -0.037732
C49   C     C_R   0.613455 0.976046 0.917410 -0.008895
C50   C     C_R   0.387696 0.056431 0.075971 -0.024416
C51   C     C_R   0.386601 0.477426 0.581479 -0.009547
C52   C     C_R   0.612400 0.555667 0.423080 -0.023972
C53   C     C_R   0.622621 0.945999 0.133446 -0.033294
C54   C     C_R   0.376810 0.995092 0.860558 -0.033447
C55   C     C_R   0.377412 0.447033 0.365382 -0.033366
C56   C     C_R   0.623238 0.494900 0.638380 -0.033190
C57   C     C_R   0.856704 0.913343 0.186511 -0.134426
C58   C     C_R   0.143431 0.087544 0.812245 -0.139324
C59   C     C_R   0.143298 0.413529 0.312922 -0.136198
C60   C     C_R   0.856572 0.587533 0.687345 -0.148028
H1    H     H_    0.850814 0.652048 0.122740 0.142162
H2    H     H_    0.142355 0.830653 0.877116 0.142302
H3    H     H_    0.149380 0.153143 0.376773 0.140076
H4    H     H_    0.857753 0.329473 0.622725 0.150993
H5    H     H_    0.762910 0.667961 0.077551 0.127136
H6    H     H_    0.230123 0.808129 0.919458 0.116306
H7    H     H_    0.237301 0.169605 0.421505 0.127265
H8    H     H_    0.769997 0.306668 0.580097 0.117299
H9    H     H_    0.636554 0.983381 0.874722 0.158033
H10   H     H_    0.365208 0.083552 0.118448 0.147324
H11   H     H_    0.363508 0.484968 0.624188 0.157820
H12   H     H_    0.634906 0.582476 0.380662 0.147388
C61   C     C_R   0.479710 0.972403 0.914991 0.032005
C62   C     C_R   0.519907 0.975637 0.079079 0.032585
C63   C     C_R   0.520335 0.472753 0.583871 0.031974
C64   C     C_R   0.480139 0.476068 0.419790 0.032590
C65   C     C_R   0.468972 0.000329 0.051562 0.022082
C66   C     C_R   0.531080 0.972099 0.942289 0.017949
C67   C     C_R   0.531091 0.500345 0.447361 0.022003
C68   C     C_R   0.468969 0.472824 0.556576 0.018074
C69   C     C_R   0.448959 0.994073 0.969463 0.051135
C70   C     C_R   0.550916 0.968539 0.024441 0.050549
C71   C     C_R   0.551098 0.494106 0.529450 0.051112
C72   C     C_R   0.449130 0.469286 0.474419 0.050576
C73   C     C_R   0.458060 0.953924 0.834535 -0.146187
C74   C     C_R   0.541006 0.961463 0.159902 -0.146178
C75   C     C_R   0.541970 0.454128 0.664281 -0.146239
C76   C     C_R   0.459024 0.462065 0.338933 -0.146226
C77   C     C_R   0.408034 0.970505 0.806670 -0.041510
C78   C     C_R   0.591173 0.953971 0.187601 -0.045906
C79   C     C_R   0.591999 0.470415 0.692197 -0.041484
C80   C     C_R   0.408851 0.454884 0.311232 -0.045856
O25   O     O_2   0.303253 0.955946 0.763185 -0.505473
O26   O     O_2   0.693815 0.875773 0.231585 -0.507552
O27   O     O_2   0.696782 0.456195 0.735740 -0.506235
O28   O     O_2   0.306219 0.376493 0.267144 -0.507858
C81   C     C_R   0.563568 0.979855 0.890119 -0.099254
C82   C     C_R   0.437221 0.035163 0.103403 -0.096958
C83   C     C_R   0.436488 0.480944 0.608769 -0.099406
C84   C     C_R   0.562867 0.534712 0.395596 -0.096736
H13   H     H_    0.479523 0.927433 0.790951 0.050403
H14   H     H_    0.519126 0.958476 0.203981 0.050994
H15   H     H_    0.520491 0.427706 0.707790 0.050479
H16   H     H_    0.480891 0.459014 0.294832 0.050952
H17   H     H_    0.551762 0.995103 0.827483 0.071854
H18   H     H_    0.449470 0.052764 0.165849 0.066727
H19   H     H_    0.448306 0.496264 0.671435 0.071857
H20   H     H_    0.550639 0.552154 0.333179 0.066711
C85   C     C_2   0.974744 0.250578 0.475927 0.567187
H21   H     H_    0.992657 0.323097 0.435279 0.041207
O29   O     O_2   0.936884 0.314271 0.488661 -0.539645
C86   C     C_2   0.034513 0.763056 0.525412 0.580179
H22   H     H_    0.025609 0.621420 0.505794 -0.013060
O30   O     O_2   0.068772 0.789104 0.580035 -0.508393
C87   C     C_2   0.015042 0.762080 0.023387 0.610052
H23   H     H_    0.990294 0.824513 0.056345 0.049602
O31   O     O_2   0.052377 0.844221 0.019297 -0.551717
C88   C     C_2   0.984591 0.238437 0.976469 0.574124
H24   H     H_    0.009429 0.175063 0.943923 0.055192
O32   O     O_2   0.946920 0.157883 0.979846 -0.547085
N5    N     N_R   0.153353 0.373686 0.737928 0.085786
O33   O     O_R   0.158471 0.546613 0.760967 -0.364734
O34   O     O_R   0.128912 0.335042 0.667718 -0.328597
N6    N     N_R   0.854794 0.208529 0.259500 0.080752
O35   O     O_R   0.856061 0.380241 0.236211 -0.374234
O36   O     O_R   0.877383 0.163183 0.329938 -0.326847
N7    N     N_R   0.846519 0.875484 0.761006 0.083614
O37   O     O_R   0.842301 0.047425 0.737022 -0.373851
O38   O     O_R   0.870285 0.838630 0.831720 -0.325251
N8    N     N_R   0.144961 0.707519 0.239627 0.081738
O39   O     O_R   0.143816 0.879670 0.262822 -0.375144
O40   O     O_R   0.122046 0.661083 0.169395 -0.326287
C89   C     C_2   0.256365 0.366145 0.795328 0.596805
H25   H     H_    0.244149 0.447580 0.742458 0.092188
O41   O     O_2   0.295705 0.403348 0.836743 -0.580050
C90   C     C_2   0.753042 0.249958 0.196081 0.593159
H26   H     H_    0.766814 0.330227 0.248892 0.085634
O42   O     O_2   0.716092 0.303488 0.152132 -0.578699
C91   C     C_2   0.743613 0.867954 0.703097 0.595053
H27   H     H_    0.756021 0.952221 0.755231 0.091713
O43   O     O_2   0.704055 0.903029 0.662021 -0.580318
C92   C     C_2   0.246781 0.749774 0.302590 0.593377
H28   H     H_    0.232945 0.829058 0.249705 0.084875
O44   O     O_2   0.283715 0.804150 0.346456 -0.578486
C93   C     C_2   0.391623 0.973080 0.720002 0.611523
H29   H     H_    0.405930 0.871478 0.684279 -0.050303
O45   O     O_2   0.365261 0.096977 0.687544 -0.528494
C94   C     C_2   0.607968 0.970623 0.273976 0.618047
H30   H     H_    0.589358 0.894383 0.312842 -0.063801
O46   O     O_2   0.639771 0.080971 0.302359 -0.513012
C95   C     C_2   0.608400 0.472623 0.778872 0.611566
H31   H     H_    0.594117 0.370746 0.814276 -0.050280
O47   O     O_2   0.634723 0.596495 0.811714 -0.528532
C96   C     C_2   0.392045 0.471828 0.224903 0.617648
H32   H     H_    0.410695 0.395970 0.185811 -0.063665
O48   O     O_2   0.360185 0.582025 0.196843 -0.513112

loop_
_geom_bond_atom_site_label_1
_geom_bond_atom_site_label_2
_geom_bond_distance
_ccdc_geom_bond_type
O17   V3    1.760926 S    
C80   C96   1.483087 S    
C91   H27   1.084475 S    
O1    C5    1.311971 A    
C89   H25   1.084979 S    
C23   C27   1.419529 A    
O19   V1    1.758522 S    
O13   V1    1.980772 S    
C63   C68   1.427914 A    
C64   C76   1.412584 A    
O3    C7    1.314743 A    
C87   H23   1.084622 S    
C28   N7    1.435456 S    
C61   C66   1.428007 A    
C73   H13   1.077860 S    
O4    V2    2.027124 S    
C49   H9    1.083653 S    
O7    C3    1.328889 A    
C17   O26   1.347652 S    
C91   O43   1.220827 D    
C10   C86   1.488845 S    
C51   H11   1.083662 S    
C62   C70   1.416444 A    
C19   O28   1.347659 S    
C32   C36   1.392715 A    
O9    V1    2.032052 S    
N6    O35   1.300586 A    
C87   O31   1.220887 D    
O10   V2    2.032053 S    
C14   O22   1.349909 S    
N4    C20   1.370098 A    
C85   O29   1.221175 D    
O16   V4    1.980862 S    
C55   C80   1.419341 A    
O4    C8    1.311243 A    
C29   H1    1.083017 S    
C90   O42   1.220892 D    
C31   H3    1.083026 S    
O1    V3    2.024880 S    
C44   C71   1.429108 A    
C66   C81   1.415142 A    
O2    V4    2.024879 S    
C74   C78   1.398003 A    
O3    V1    2.027124 S    
C73   C77   1.398742 A    
C92   H28   1.084466 S    
C79   C95   1.482310 S    
C1    O15   1.327565 A    
C11   C12   1.389708 D    
C2    O16   1.325019 A    
C24   C40   1.419708 A    
O2    C6    1.311731 A    
C16   C48   1.404461 A    
O12   V4    2.028031 S    
O14   V2    1.980773 S    
N1    C17   1.370005 A    
C50   C82   1.387760 A    
C66   C70   1.422874 A    
O5    V1    1.989890 S    
C74   H14   1.077226 S    
C65   C69   1.423269 A    
O11   C7    1.335453 A    
O15   V3    1.980861 S    
C89   O41   1.220995 D    
C77   C93   1.482349 S    
C62   C74   1.412536 A    
C61   C73   1.412223 A    
N4    C40   1.446750 S    
C56   C79   1.420511 A    
C1    C60   1.491649 S    
C63   C75   1.412163 A    
C20   O27   1.347309 S    
C29   C57   1.403197 A    
N8    O40   1.301109 A    
C28   C60   1.420616 A    
C25   N6    1.435530 S    
C31   C35   1.394392 A    
O7    V3    1.990282 S    
C30   C34   1.392661 A    
N1    C37   1.447491 S    
C48   C52   1.396480 A    
O8    V4    1.990279 S    
C17   C53   1.421753 A    
C4    C57   1.490291 S    
C20   C56   1.423478 A    
C32   H4    1.083287 S    
C86   O30   1.221505 D    
C19   C55   1.421734 A    
C21   C25   1.419404 A    
O18   V4    1.760928 S    
C15   O23   1.349701 S    
C14   C46   1.404483 A    
C7    C9    1.485977 S    
C21   C37   1.419514 A    
C42   C69   1.429112 A    
C13   C45   1.405943 A    
C52   C84   1.387755 A    
C8    C10   1.491139 S    
C41   C70   1.428888 A    
C24   C28   1.420946 A    
C36   C40   1.399463 A    
C76   H16   1.077194 S    
C15   C47   1.405872 A    
C78   C94   1.483037 S    
C95   H31   1.085702 S    
C36   H8    1.083129 S    
C23   C92   1.488811 S    
O5    C1    1.328665 A    
C26   N5    1.435925 S    
C46   C50   1.396496 A    
C21   C90   1.488896 S    
C49   C81   1.388824 A    
N7    O37   1.300785 A    
C22   C38   1.419747 A    
C45   C49   1.397166 A    
O8    C4    1.330514 A    
N3    C39   1.447526 S    
C54   C77   1.420490 A    
N7    O38   1.301212 A    
C9    C10   1.387756 D    
C50   H10   1.083738 S    
O9    C5    1.339049 A    
C53   C78   1.419381 A    
C18   O25   1.347355 S    
C11   C87   1.485759 S    
C42   C54   1.418359 A    
C26   C58   1.420864 A    
C41   C53   1.417486 A    
C25   C57   1.419658 A    
C43   C55   1.417437 A    
C90   H26   1.084456 S    
O6    V2    1.989890 S    
C2    C59   1.489884 S    
C75   C79   1.398672 A    
C30   H2    1.083316 S    
C24   C91   1.489241 S    
C52   H12   1.083730 S    
C88   O32   1.220876 D    
C27   C59   1.419718 A    
N5    O34   1.301609 A    
C32   C60   1.403944 A    
C22   C89   1.489041 S    
C13   N1    1.366579 A    
C82   H18   1.076376 S    
C68   C72   1.422841 A    
N2    C38   1.446958 S    
C94   H30   1.085101 S    
C15   N3    1.366631 A    
N8    O39   1.300623 A    
C22   C26   1.421158 A    
C61   C69   1.416088 A    
C16   N4    1.365814 A    
C44   C56   1.418429 A    
C3    O13   1.327734 A    
C94   O46   1.221061 D    
C44   C48   1.411223 A    
C86   H22   1.084086 S    
O6    C2    1.330204 A    
N3    C19   1.370028 A    
C34   H6    1.083163 S    
O11   V3    2.028031 S    
C5    C11   1.487771 S    
C35   H7    1.083065 S    
C84   H20   1.076335 S    
C6    C12   1.487806 S    
N2    C18   1.370198 A    
C64   C67   1.428093 A    
C9    C85   1.488331 S    
C64   C72   1.416464 A    
C95   O47   1.220890 D    
C51   C83   1.388774 A    
N5    O33   1.301655 A    
C33   H5    1.083065 S    
O20   V2    1.758522 S    
C27   N8    1.435903 S    
C85   H21   1.082801 S    
C47   C51   1.397157 A    
C3    C58   1.491554 S    
O10   C6    1.339312 A    
C34   C38   1.399536 A    
C43   C47   1.411308 A    
C33   C37   1.400919 A    
C30   C58   1.403945 A    
N6    O36   1.300887 A    
C92   O44   1.220902 D    
C93   O45   1.220924 D    
C63   C71   1.416052 A    
C35   C39   1.400908 A    
C68   C83   1.415137 A    
C13   O21   1.349690 S    
C75   H15   1.077870 S    
C14   N2    1.365916 A    
C83   H19   1.076891 S    
C18   C54   1.423500 A    
C12   C88   1.485503 S    
C29   C33   1.394593 A    
C67   C84   1.415048 A    
C16   O24   1.349885 S    
C81   H17   1.076880 S    
C31   C59   1.403080 A    
O12   C8    1.341775 A    
C93   H29   1.085693 S    
C42   C46   1.411201 A    
C4    O14   1.325361 A    
C65   C82   1.415053 A    
C41   C45   1.411339 A    
C88   H24   1.084656 S    
C67   C71   1.423299 A    
C43   C72   1.428845 A    
C96   H32   1.085092 S    
C96   O48   1.221062 D    
C23   C39   1.419650 A    
C76   C80   1.398035 A    
C62   C65   1.428039 A    
