data_mof_unit_5601.cif
_audit_creation_date              2012-12-10T17:42:15-0500
_audit_creation_method            fapswitch 2.2
_symmetry_space_group_name_H-M    P1
_symmetry_Int_Tables_number       1
_space_group_crystal_system       triclinic
_cell_length_a                    15.072008
_cell_length_b                    13.689517
_cell_length_c                    10.731961
_cell_angle_alpha                 90.072621
_cell_angle_beta                  89.906061
_cell_angle_gamma                 89.652777
_cell_volume                      2214.26407589

loop_
_atom_site_label
_atom_site_type_symbol
_atom_type_description
_atom_site_fract_x
_atom_site_fract_y
_atom_site_fract_z
_atom_type_partial_charge
C1    C     C_R   0.328668 0.500315 0.500213 0.804546
C2    C     C_3   0.583852 0.446860 0.927767 -0.340346
C3    C     C_R   0.813436 0.575261 0.452701 -0.162984
C4    C     C_R   0.768318 0.498456 0.509706 -0.159993
C5    C     C_R   0.815531 0.422636 0.569321 0.200589
C6    C     C_R   0.908754 0.422595 0.564968 0.096602
C7    C     C_R   0.953855 0.501361 0.506933 -0.034786
C8    C     C_R   0.906141 0.577626 0.448374 -0.062004
C9    C     C_R   0.958212 0.345303 0.616976 -0.136934
C10   C     C_R   0.050109 0.345282 0.612037 -0.212431
C11   C     C_R   0.094790 0.423269 0.557580 0.156152
C12   C     C_R   0.500185 0.500114 0.259618 0.760703
C13   C     C_R   0.046969 0.502776 0.506188 0.035943
C14   C     C_R   0.092509 0.584122 0.456834 -0.084151
C15   C     C_R   0.044336 0.664861 0.408819 0.234294
C16   C     C_R   0.951842 0.655278 0.389144 0.341828
C17   C     C_R   0.186937 0.422806 0.554619 -0.230538
C18   C     C_R   0.232209 0.501268 0.502646 -0.102336
C19   C     C_R   0.185595 0.581163 0.454216 -0.143427
C20   C     C_R   0.439992 0.793753 0.571968 0.047837
C21   C     C_R   0.440158 0.207157 0.572230 0.028731
C22   C     C_R   0.559747 0.792809 0.427688 0.030267
C23   C     C_R   0.559759 0.206237 0.427740 0.060110
C24   C     C_R   0.561212 0.895868 0.426001 -0.013514
C25   C     C_R   0.561244 0.103134 0.426070 -0.013280
C26   C     C_R   0.671394 0.499536 0.504856 0.855690
C27   C     C_R   0.499873 0.948153 0.499814 0.086482
C28   C     C_R   0.499910 0.051809 0.499876 0.091425
C29   C     C_R   0.438487 0.896835 0.573556 -0.000249
C30   C     C_R   0.438611 0.104088 0.573749 -0.006383
C31   C     C_R   0.622258 0.947660 0.352585 -0.154637
C32   C     C_R   0.622270 0.050358 0.352622 -0.168814
C33   C     C_R   0.377483 0.052280 0.647019 -0.183636
C34   C     C_R   0.377385 0.949589 0.646865 -0.147396
C35   C     C_R   0.500152 0.500185 0.740390 0.767674
C36   C     C_3   0.500768 0.607111 0.071503 -0.361153
C37   C     C_3   0.416343 0.448739 0.071972 -0.364903
C38   C     C_3   0.500744 0.607155 0.928845 -0.367002
C39   C     C_3   0.416315 0.448803 0.928176 -0.385267
C40   C     C_3   0.583890 0.446857 0.071610 -0.383795
C41   C     C_3   0.500305 0.500652 0.121740 0.136426
C42   C     C_3   0.500279 0.500740 0.878235 0.128336
Cu1   Cu    Cu3+1 0.499990 0.597420 0.500010 0.952958
Cu2   Cu    Cu3+1 0.499990 0.402580 0.500010 0.967395
H1    H     H_    0.560576 0.646308 0.105587 0.171830
H2    H     H_    0.414283 0.372036 0.106098 0.178930
H3    H     H_    0.086390 0.284245 0.651801 0.153484
H4    H     H_    0.223560 0.361745 0.593942 0.142643
H5    H     H_    0.222966 0.638496 0.409629 0.222030
H6    H     H_    0.393417 0.753178 0.628393 0.133328
H7    H     H_    0.393690 0.248438 0.628860 0.117916
H8    H     H_    0.606301 0.751517 0.371185 0.134666
H9    H     H_    0.606293 0.246823 0.371269 0.132566
H10   H     H_    0.669971 0.908769 0.295135 0.174514
H11   H     H_    0.670004 0.088482 0.295205 0.157420
H12   H     H_    0.329728 0.091157 0.704404 0.142601
H13   H     H_    0.329545 0.911454 0.704104 0.152414
H14   H     H_    0.441307 0.647728 0.105822 0.185379
H15   H     H_    0.355625 0.486513 0.107046 0.163499
H16   H     H_    0.441284 0.647794 0.894950 0.173402
H17   H     H_    0.355595 0.486622 0.893588 0.159643
H18   H     H_    0.560548 0.646344 0.894640 0.180874
H19   H     H_    0.414205 0.372129 0.893680 0.172184
H20   H     H_    0.644879 0.483331 0.106334 0.176822
H21   H     H_    0.585429 0.370135 0.105816 0.176426
H22   H     H_    0.644870 0.483220 0.892797 0.181799
H23   H     H_    0.585304 0.370130 0.893339 0.202578
H24   H     H_    0.774678 0.634546 0.414258 0.217321
H25   H     H_    0.926984 0.283127 0.660239 0.202360
N1    N     N_R   0.499930 0.743810 0.499950 -0.190888
N2    N     N_R   0.499930 0.256190 0.499950 -0.181537
O1    O     O_R   0.370250 0.582280 0.500040 -0.579889
O2    O     O_R   0.370250 0.417720 0.500040 -0.588475
O3    O     O_R   0.499970 0.582270 0.317700 -0.589131
O4    O     O_R   0.499970 0.417730 0.317700 -0.592912
O5    O     O_R   0.629730 0.582260 0.499980 -0.595656
O6    O     O_R   0.629730 0.417740 0.499980 -0.539612
O7    O     O_R   0.500000 0.582270 0.682320 -0.594161
O8    O     O_R   0.500000 0.417730 0.682320 -0.575379
S1    S     S_3+6 0.097994 0.780056 0.389275 0.062838
O9    O     O_2   0.143025 0.781983 0.264291 -0.227106
O10   O     O_2   0.033002 0.863522 0.397420 -0.187837
O11   O     O_3   0.175010 0.796405 0.500641 -0.543308
H26   H     H_    0.142202 0.790801 0.580315 0.342932
S2    S     S_3+6 0.895099 0.732020 0.280013 0.038603
O12   O     O_2   0.847298 0.811799 0.349853 -0.294045
O13   O     O_2   0.958319 0.776519 0.188089 -0.184168
O14   O     O_3   0.820866 0.666028 0.199135 -0.571847
H27   H     H_    0.781942 0.714841 0.158161 0.360433
Br1   Br    Br    0.753565 0.324985 0.666971 -0.539515

loop_
_geom_bond_atom_site_label_1
_geom_bond_atom_site_label_2
_ccdc_geom_bond_type
Cu1   O1    S    
C12   O3    A    
C27   C29   A    
C3    H24   S    
C24   C27   A    
C6    C9    A    
C7    C8    A    
S2    O12   D    
C25   C28   A    
C1    C18   S    
C21   N2    A    
Cu2   O6    S    
C9    H25   S    
C38   C42   S    
C36   H14   S    
C5    C6    A    
C15   C16   A    
Cu2   N2    S    
C18   C19   A    
C35   C42   S    
C20   H6    S    
C31   C32   A    
C34   H13   S    
C26   O5    A    
C17   H4    S    
C9    C10   A    
C32   H11   S    
C5    Br1   S    
C33   H12   S    
C8    C16   A    
C13   C14   A    
C20   N1    A    
C36   C41   S    
S1    O11   S    
C23   H9    S    
C39   C42   S    
C20   C29   A    
S2    O13   D    
C39   H17   S    
C10   H3    S    
C26   O6    A    
C1    O1    A    
C23   N2    A    
S1    O10   D    
C3    C8    A    
C4    C5    A    
C29   C34   A    
Cu1   O7    S    
Cu1   O3    S    
Cu2   O4    S    
Cu1   Cu2   S    
C12   C41   S    
C19   H5    S    
O11   H26   S    
C17   C18   A    
C36   H1    S    
C37   H15   S    
C38   H16   S    
C40   C41   S    
C2    H23   S    
Cu1   N1    S    
C40   H21   S    
C16   S2    S    
C22   C24   A    
C3    C4    A    
C21   H7    S    
C22   H8    S    
S2    O14   S    
Cu1   O5    S    
C11   C17   A    
C30   C33   A    
C14   C19   A    
Cu2   O8    S    
S1    O9    D    
C2    H22   S    
C4    C26   S    
C6    C7    A    
C39   H19   S    
C21   C30   A    
C35   O7    A    
C40   H20   S    
C1    O2    A    
C36   C38   S    
C24   C31   A    
C28   C30   A    
C37   C39   S    
C11   C13   A    
C2    C42   S    
C35   O8    A    
C33   C34   A    
C23   C25   A    
C31   H10   S    
C37   C41   S    
Cu2   O2    S    
C15   S1    S    
C10   C11   A    
C2    C40   S    
C7    C13   A    
O14   H27   S    
C12   O4    A    
C27   C28   A    
C14   C15   A    
C37   H2    S    
C22   N1    A    
C38   H18   S    
C25   C32   A    
