data_mof_unit_41834.cif
_audit_creation_date              2012-12-10T17:42:41-0500
_audit_creation_method            fapswitch 2.2
_symmetry_space_group_name_H-M    P1
_symmetry_Int_Tables_number       1
_space_group_crystal_system       triclinic
_cell_length_a                    9.925207
_cell_length_b                    10.613975
_cell_length_c                    13.05793
_cell_angle_alpha                 90.987095
_cell_angle_beta                  70.004253
_cell_angle_gamma                 89.864879
_cell_volume                      1292.43385452

loop_
_atom_site_label
_atom_site_type_symbol
_atom_type_description
_atom_site_fract_x
_atom_site_fract_y
_atom_site_fract_z
_atom_type_partial_charge
C1    C     C_R   0.501675 0.739241 0.495835 0.860136
C2    C     C_R   0.430235 0.444100 0.983703 0.099487
C3    C     C_R   0.464361 0.422433 0.871601 0.002112
C4    C     C_R   0.541560 0.434860 0.027599 0.039881
C5    C     C_R   0.677214 0.381272 0.965593 0.005247
C6    C     C_R   0.699694 0.337173 0.858442 0.424623
C7    C     C_R   0.592843 0.357436 0.813313 -0.277417
C8    C     C_R   0.522689 0.485535 0.130162 -0.084492
C9    C     C_R   0.758679 0.417196 0.120045 -0.229330
C10   C     C_R   0.369563 0.468677 0.820801 -0.074639
C11   C     C_R   0.487736 0.868071 0.303886 -0.277937
C12   C     C_R   0.420602 0.490633 0.703707 0.847747
C13   C     C_R   0.482111 0.932870 0.212465 0.423010
C14   C     C_R   0.482775 0.065988 0.214558 0.025584
C15   C     C_R   0.488922 0.130286 0.306880 -0.230239
C16   C     C_R   0.494587 0.065175 0.398670 0.053354
C17   C     C_R   0.494206 0.933469 0.397373 0.030814
C18   C     C_R   0.504624 0.871630 0.489425 -0.059567
C19   C     C_R   0.520443 0.936482 0.578061 -0.195019
C20   C     C_R   0.520514 0.065237 0.579117 -0.149180
C21   C     C_R   0.504777 0.128311 0.491516 -0.069364
C22   C     C_R   0.796894 0.664597 0.643302 -0.151458
C23   C     C_R   0.500675 0.260653 0.499061 0.854235
C24   C     C_R   0.835035 0.741898 0.715907 -0.137294
C25   C     C_R   0.973728 0.738896 0.717370 -0.169796
C26   C     C_R   0.075403 0.659270 0.645651 -0.145612
C27   C     C_R   0.040400 0.579064 0.571529 0.208955
C28   C     C_R   0.896171 0.580220 0.570925 0.191447
C29   C     C_R   0.959373 0.423710 0.431934 -0.081523
C30   C     C_R   0.102462 0.423966 0.431764 -0.097888
C31   C     C_R   0.579671 0.497034 0.295525 0.830034
C32   C     C_R   0.785071 0.373609 0.013408 -0.107321
C33   C     C_R   0.626203 0.472383 0.178582 -0.044198
C34   C     C_R   0.229673 0.505811 0.884176 -0.147024
C35   C     C_R   0.187097 0.504814 0.997041 -0.119874
C36   C     C_R   0.286749 0.477022 0.046960 -0.099236
H1    H     H_    0.839621 0.404426 0.157481 0.151609
H2    H     H_    0.489301 0.766154 0.300417 0.180256
H3    H     H_    0.491677 0.232061 0.304866 0.165991
H4    H     H_    0.530201 0.115989 0.649060 0.162752
H5    H     H_    0.930890 0.361309 0.376337 0.139490
H6    H     H_    0.689094 0.675069 0.646316 0.202974
H7    H     H_    0.756428 0.805076 0.771018 0.196234
H8    H     H_    0.003189 0.799421 0.773773 0.176034
H9    H     H_    0.180223 0.663219 0.650421 0.198960
H10   H     H_    0.181327 0.361744 0.375959 0.142411
H11   H     H_    0.889089 0.332274 0.970476 0.209821
H12   H     H_    0.426123 0.536946 0.174682 0.182980
H13   H     H_    0.154217 0.537966 0.846616 0.175745
H14   H     H_    0.248333 0.479504 0.134968 0.120566
H15   H     H_    0.078383 0.531207 0.045986 0.148050
H16   H     H_    0.610176 0.320733 0.732142 0.221817
H17   H     H_    0.530230 0.887070 0.647267 0.150866
N1    N     N_R   0.856860 0.501200 0.500990 -0.109272
N2    N     N_R   0.142450 0.501280 0.501020 -0.108269
O1    O     O_R   0.385310 0.683220 0.500000 -0.631234
O2    O     O_R   0.614640 0.683250 0.500010 -0.628477
O3    O     O_R   0.328400 0.499950 0.653610 -0.610094
O4    O     O_R   0.557730 0.499970 0.653620 -0.630333
O5    O     O_R   0.385360 0.316750 0.499990 -0.598801
O6    O     O_R   0.614690 0.316780 0.500000 -0.601807
O7    O     O_R   0.442270 0.500030 0.346380 -0.632118
O8    O     O_R   0.671600 0.500050 0.346390 -0.607857
Zn1   Zn    Zn3+2 0.346880 0.499980 0.499990 0.965519
Zn2   Zn    Zn3+2 0.653120 0.500020 0.500010 0.957250
S1    S     S_3+6 0.477245 0.841693 0.098582 -0.009315
O9    O     O_2   0.347268 0.759270 0.134906 -0.296230
O10   O     O_2   0.470837 0.919460 0.005294 -0.318345
O11   O     O_3   0.624483 0.749393 0.054820 -0.556835
H18   H     H_    0.705882 0.808617 0.031641 0.354449
N3    N     N_3   0.478879 0.139459 0.124734 -0.453659
H19   H     H_    0.384723 0.119509 0.108965 0.236150
H20   H     H_    0.568466 0.116712 0.056532 0.241756
S2    S     S_3+6 0.861586 0.262805 0.775916 -0.008667
O12   O     O_2   0.983575 0.352904 0.759301 -0.333835
O13   O     O_2   0.887887 0.147709 0.832113 -0.314075
O14   O     O_3   0.852655 0.219866 0.653761 -0.566984
H21   H     H_    0.951364 0.192784 0.609654 0.386270

loop_
_geom_bond_atom_site_label_1
_geom_bond_atom_site_label_2
_ccdc_geom_bond_type
S1    O10   D    
O8    Zn2   S    
C16   C21   A    
C14   N3    S    
C35   C36   A    
C4    C8    A    
N1    Zn2   S    
O14   H21   S    
C1    C18   S    
S2    O13   D    
C1    O1    A    
C7    H16   S    
C34   C35   A    
C3    C7    A    
C5    C6    A    
C20   H4    S    
C27   N2    A    
S1    O11   S    
C29   N1    A    
C15   C16   A    
C18   C19   A    
O7    Zn1   S    
C9    C32   A    
C12   O4    A    
C19   C20   A    
C16   C17   A    
C34   H13   S    
S2    O14   S    
O1    Zn1   S    
C26   H9    S    
C5    C32   A    
C12   O3    A    
C19   H17   S    
S1    O9    D    
C22   C28   A    
C13   C14   A    
C9    C33   A    
C31   O7    A    
C25   H8    S    
C6    S2    S    
C13   S1    S    
O3    Zn1   S    
C23   O5    A    
S2    O12   D    
C31   O8    A    
C24   C25   A    
N3    H20   S    
C28   N1    A    
C25   C26   A    
C11   H2    S    
C2    C4    A    
C8    H12   S    
C29   C30   A    
C1    O2    A    
N2    Zn1   S    
C9    H1    S    
C17   C18   A    
C26   C27   A    
C10   C34   A    
C15   H3    S    
C10   C12   S    
C21   C23   S    
C35   H15   S    
C32   H11   S    
C22   C24   A    
C36   H14   S    
C2    C36   A    
C11   C17   A    
C31   C33   S    
C29   H5    S    
C30   H10   S    
O2    Zn2   S    
C4    C5    A    
C6    C7    A    
C30   N2    A    
O5    Zn1   S    
C2    C3    A    
N3    H19   S    
C3    C10   A    
O4    Zn2   S    
C11   C13   A    
C22   H6    S    
C8    C33   A    
O11   H18   S    
O6    Zn2   S    
C23   O6    A    
C20   C21   A    
C27   C28   A    
C24   H7    S    
C14   C15   A    
