data_mof_unit_35145.cif
_audit_creation_date              2012-10-26T19:53:26-0400
_audit_creation_method            fapswitch 2.2
_symmetry_space_group_name_H-M    P1
_symmetry_Int_Tables_number       1
_space_group_crystal_system       triclinic
_cell_length_a                    9.090578
_cell_length_b                    7.811216
_cell_length_c                    10.692599
_cell_angle_alpha                 90.601076
_cell_angle_beta                  90.022548
_cell_angle_gamma                 90.014597
_cell_volume                      759.223212708

loop_
_atom_site_label
_atom_site_type_symbol
_atom_type_description
_atom_site_fract_x
_atom_site_fract_y
_atom_site_fract_z
_atom_type_partial_charge
C1    C     C_R   0.220130 0.499988 0.500021 0.552368
C2    C     C_3   0.632047 0.537059 0.049939 -0.191013
C3    C     C_3   0.509431 0.504513 0.876859 0.042990
C4    C     C_3   0.490569 0.495487 0.123141 0.042990
C5    C     C_1   0.065402 0.499984 0.500003 -0.008963
C6    C     C_1   0.934598 0.500016 0.499997 -0.008964
C7    C     C_2   0.283623 0.739673 0.076622 0.253184
C8    C     C_2   0.716377 0.260327 0.923378 0.253184
C9    C     C_2   0.597161 0.832711 0.938477 0.222319
C10   C     C_2   0.402838 0.167289 0.061523 0.222319
C11   C     C_R   0.779870 0.500012 0.499979 0.552367
C12   C     C_R   0.493011 0.498717 0.259217 0.583196
C13   C     C_R   0.506989 0.501283 0.740783 0.583196
C14   C     C_3   0.401343 0.615120 0.039352 -0.019086
C15   C     C_3   0.598657 0.384880 0.960648 -0.019086
C16   C     C_3   0.541384 0.656636 0.965181 -0.005900
C17   C     C_3   0.458616 0.343363 0.034819 -0.005900
C18   C     C_3   0.367953 0.462941 0.950061 -0.191013
Cu1   Cu    Cu3+1 0.500000 0.669080 0.500000 1.131756
Cu2   Cu    Cu3+1 0.500000 0.330920 0.500000 1.131756
H1    H     H_    0.259171 0.432859 0.907828 0.118804
H2    H     H_    0.740829 0.567141 0.092172 0.118804
H3    H     H_    0.230573 0.816055 0.005548 0.104281
H4    H     H_    0.769427 0.183945 0.994452 0.104281
H5    H     H_    0.621104 0.918331 0.016180 0.101743
H6    H     H_    0.378896 0.081669 0.983820 0.101743
N1    N     N_1   0.500000 0.076820 0.500000 -0.039077
N2    N     N_1   0.500000 0.923180 0.500000 -0.039077
O1    O     O_R   0.288390 0.642760 0.500000 -0.487632
O2    O     O_2   0.754964 0.245906 0.814542 -0.451337
O3    O     O_2   0.618894 0.879785 0.831765 -0.452028
O4    O     O_2   0.381106 0.120215 0.168235 -0.452028
O5    O     O_R   0.711610 0.357240 0.500000 -0.487631
O6    O     O_R   0.711610 0.642760 0.500000 -0.500890
O7    O     O_R   0.288390 0.357240 0.500000 -0.500890
O8    O     O_R   0.499960 0.642760 0.316850 -0.480937
O9    O     O_R   0.500040 0.357240 0.683150 -0.480937
O10   O     O_R   0.500040 0.642760 0.683150 -0.473777
O11   O     O_R   0.499960 0.357240 0.316850 -0.473778
O12   O     O_2   0.245036 0.754094 0.185458 -0.451337

loop_
_geom_bond_atom_site_label_1
_geom_bond_atom_site_label_2
_ccdc_geom_bond_type
C2    H2    S    
C2    C4    S    
C7    O12   D    
C2    C15   S    
Cu2   N1    S    
Cu2   O9    S    
C12   O8    A    
C18   H1    S    
C2    C16   S    
C14   C18   S    
C13   O9    A    
Cu1   Cu2   S    
C3    C13   S    
C8    O2    D    
C10   H6    S    
C12   O11   A    
C1    O1    A    
C17   C18   S    
C9    H5    S    
Cu1   N2    S    
C13   O10   A    
C7    H3    S    
C4    C17   S    
C8    H4    S    
C9    C16   S    
C8    C15   S    
C14   C16   S    
Cu1   O8    S    
C6    C11   S    
C4    C14   S    
C5    C6    T    
C1    C5    S    
C4    C12   S    
C9    O3    D    
C10   C17   S    
Cu1   O1    S    
C10   O4    D    
C11   O5    A    
Cu1   O10   S    
C3    C15   S    
C1    O7    A    
C3    C18   S    
Cu2   O5    S    
N1    N2    T    
C15   C17   S    
Cu2   O11   S    
Cu2   O7    S    
C11   O6    A    
C7    C14   S    
C3    C16   S    
Cu1   O6    S    
