data_mof_unit_43164.cif
_audit_creation_date              2012-12-10T16:52:36-0500
_audit_creation_method            fapswitch 2.2
_symmetry_space_group_name_H-M    P1
_symmetry_Int_Tables_number       1
_space_group_crystal_system       triclinic
_cell_length_a                    7.900311
_cell_length_b                    8.554334
_cell_length_c                    13.724436
_cell_angle_alpha                 94.252584
_cell_angle_beta                  93.100265
_cell_angle_gamma                 93.936147
_cell_volume                      921.154330782

loop_
_atom_site_label
_atom_site_type_symbol
_atom_type_description
_atom_site_fract_x
_atom_site_fract_y
_atom_site_fract_z
_atom_type_partial_charge
Br1   Br    Br    0.501778 0.290267 0.389720 -0.423465
Br2   Br    Br    0.498272 0.709292 0.610657 -0.422376
C1    C     C_R   0.044736 0.794350 0.497735 0.954534
C2    C     C_R   0.937198 0.489264 0.317866 0.861020
C3    C     C_R   0.099930 0.546474 0.786507 -0.065398
C4    C     C_R   0.907649 0.482710 0.212181 -0.054895
C5    C     C_R   0.080103 0.714115 0.934176 -0.189480
C6    C     C_R   0.963343 0.378585 0.049867 -0.189778
C7    C     C_R   0.013976 0.657234 0.841082 -0.179464
C8    C     C_R   0.012572 0.404178 0.149022 -0.185796
C9    C     C_R   0.246499 0.489283 0.825873 -0.243483
C10   C     C_R   0.762624 0.546648 0.175366 -0.242948
C11   C     C_R   0.325829 0.558107 0.913233 0.098195
C12   C     C_R   0.955282 0.205659 0.502333 0.954726
C13   C     C_R   0.710755 0.523489 0.076337 0.085120
C14   C     C_R   0.237180 0.667357 0.969949 0.166711
C15   C     C_R   0.809880 0.432286 0.013916 0.175247
C16   C     C_R   0.491202 0.521918 0.944697 0.064516
C17   C     C_R   0.556105 0.578046 0.039877 0.059487
C18   C     C_R   0.464362 0.686556 0.095283 -0.211780
C19   C     C_R   0.595706 0.435653 0.882955 -0.209309
C20   C     C_R   0.308166 0.731027 0.060276 -0.216803
C21   C     C_R   0.752860 0.392852 0.917126 -0.222577
C22   C     C_2   0.068018 0.958061 0.496404 -0.363505
C23   C     C_2   0.932022 0.041954 0.503753 -0.366271
C24   C     C_R   0.063431 0.513840 0.682040 0.856744
H1    H     H_    0.242822 0.815842 0.104131 0.154276
H2    H     H_    0.561902 0.403276 0.806633 0.170252
H3    H     H_    0.196382 0.008939 0.489359 0.212787
H4    H     H_    0.803659 0.991076 0.510807 0.212824
H5    H     H_    0.828549 0.325730 0.867981 0.152568
H6    H     H_    0.685418 0.604961 0.227010 0.166814
H7    H     H_    0.300278 0.395149 0.784033 0.151250
H8    H     H_    0.127078 0.355830 0.176906 0.175987
H9    H     H_    0.899916 0.703230 0.810679 0.177198
H10   H     H_    0.012365 0.799078 0.976374 0.142814
H11   H     H_    0.041768 0.312122 0.002047 0.143721
H12   H     H_    0.513147 0.744540 0.164516 0.157115
N1    N     N_2   0.440860 0.456490 0.474790 0.082850
N2    N     N_2   0.559140 0.543510 0.525210 0.081199
O1    O     O_R   0.891570 0.738930 0.506190 -0.600548
O2    O     O_R   0.108430 0.261070 0.493810 -0.599573
O3    O     O_R   0.174650 0.711050 0.490030 -0.584892
O4    O     O_R   0.825350 0.288950 0.509970 -0.585437
O5    O     O_R   0.909850 0.521900 0.644940 -0.613239
O6    O     O_R   0.090150 0.478100 0.355060 -0.608994
O7    O     O_R   0.192930 0.494020 0.628780 -0.582906
O8    O     O_R   0.807070 0.505980 0.371220 -0.587864
Zn1   Zn    Zn3+2 0.810990 0.518620 0.510790 1.044074
Zn2   Zn    Zn3+2 0.189010 0.481380 0.489210 1.048749

loop_
_geom_bond_atom_site_label_1
_geom_bond_atom_site_label_2
_ccdc_geom_bond_type
O4    Zn1   S    
C4    C8    A    
C23   H4    S    
O3    Zn2   S    
C3    C7    A    
C3    C24   S    
C16   C19   A    
C18   H12   S    
C5    H10   S    
O6    Zn2   S    
C6    C15   A    
C10   C13   A    
O5    Zn1   S    
C12   O2    A    
C8    H8    S    
C2    O6    A    
C10   H6    S    
C13   C17   A    
C9    C11   A    
C1    O3    A    
C1    C22   S    
C15   C21   A    
C11   C16   A    
O2    Zn2   S    
C24   O7    A    
O1    Zn1   S    
O8    Zn1   S    
C19   H2    S    
C18   C20   A    
C3    C9    A    
O7    Zn2   S    
C5    C7    A    
C20   H1    S    
C19   C21   A    
C12   C23   S    
C4    C10   A    
C2    C4    S    
C6    H11   S    
Br1   N1    S    
N2    Zn1   S    
Br2   N2    S    
C9    H7    S    
N1    Zn2   S    
C22   C23   D    
C12   O4    A    
C16   C17   A    
C2    O8    A    
C11   C14   A    
N1    N2    D    
C7    H9    S    
C22   H3    S    
C5    C14   A    
C14   C20   A    
C24   O5    A    
C13   C15   A    
C6    C8    A    
C1    O1    A    
C17   C18   A    
C21   H5    S    
