data_mof_unit_38893.cif
_audit_creation_date              2012-12-10T20:31:59-0500
_audit_creation_method            fapswitch 2.2
_symmetry_space_group_name_H-M    P1
_symmetry_Int_Tables_number       1
_space_group_crystal_system       triclinic
_cell_length_a                    9.87785
_cell_length_b                    10.686336
_cell_length_c                    15.475006
_cell_angle_alpha                 90.109981
_cell_angle_beta                  68.080005
_cell_angle_gamma                 90.088758
_cell_volume                      1515.41465865

loop_
_atom_site_label
_atom_site_type_symbol
_atom_type_description
_atom_site_fract_x
_atom_site_fract_y
_atom_site_fract_z
_atom_type_partial_charge
C1    C     C_R   0.500969 0.739816 0.498404 0.939443
C2    C     C_R   0.706556 0.610262 0.043334 0.165904
C3    C     C_R   0.568590 0.555932 0.093611 0.096849
C4    C     C_R   0.408447 0.502586 0.675953 0.901089
C5    C     C_R   0.811920 0.619414 0.083955 -0.211872
C6    C     C_R   0.779872 0.577292 0.174800 -0.211867
C7    C     C_R   0.545390 0.503290 0.180306 -0.245694
C8    C     C_R   0.375330 0.936051 0.507132 -0.009642
C9    C     C_R   0.505231 0.871469 0.488864 -0.050920
C10   C     C_R   0.638858 0.935344 0.456900 -0.202224
C11   C     C_R   0.638709 0.064833 0.456669 -0.173478
C12   C     C_R   0.396572 0.558229 0.917279 0.099554
C13   C     C_R   0.504935 0.128446 0.487844 -0.117292
C14   C     C_R   0.375190 0.063540 0.505167 0.044335
C15   C     C_3   0.232777 0.072032 0.586140 0.177198
C16   C     C_R   0.500780 0.260113 0.498320 0.879935
C17   C     C_3   0.233072 0.929789 0.588614 0.132985
C18   C     C_R   0.899708 0.586594 0.550808 0.229699
C19   C     C_R   0.961242 0.422474 0.442990 -0.104649
C20   C     C_R   0.105216 0.422590 0.442892 -0.047352
C21   C     C_R   0.042384 0.586976 0.550474 0.198217
C22   C     C_3   0.989790 0.604329 0.653141 -0.468324
C23   C     C_R   0.253884 0.515328 0.971106 0.172570
C24   C     C_3   0.836054 0.602020 0.653910 -0.526316
C25   C     C_R   0.591004 0.501126 0.323985 0.854810
C26   C     C_R   0.348890 0.513964 0.777252 -0.037310
C27   C     C_R   0.644704 0.521102 0.223579 -0.051511
C28   C     C_R   0.157629 0.480421 0.927669 -0.203719
C29   C     C_R   0.205494 0.478557 0.830840 -0.169263
C30   C     C_R   0.439683 0.559474 0.820484 -0.225626
C31   C     C_R   0.496377 0.586663 0.960855 0.065757
C32   C     C_R   0.458786 0.553393 0.055345 0.072327
C33   C     C_R   0.312386 0.519965 0.108689 -0.221679
C34   C     C_R   0.211188 0.503114 0.067087 -0.238399
C35   C     C_R   0.633721 0.643555 0.912841 -0.215793
C36   C     C_R   0.736417 0.655998 0.953942 -0.221166
Cl1   Cl    Cl    0.091826 0.133424 0.552498 -0.638283
Cl2   Cl    Cl    0.250034 0.870124 0.692155 -0.651908
H1    H     H_    0.101187 0.474238 0.109615 0.148187
H2    H     H_    0.774425 0.517832 0.689610 0.228724
H3    H     H_    0.778237 0.692846 0.674629 0.206061
H4    H     H_    0.857779 0.592690 0.207801 0.156406
H5    H     H_    0.840353 0.699983 0.915032 0.172922
H6    H     H_    0.048099 0.448516 0.968337 0.151272
H7    H     H_    0.132617 0.445228 0.798125 0.155214
H8    H     H_    0.547011 0.588911 0.776697 0.144242
H9    H     H_    0.663172 0.683031 0.844304 0.159033
H10   H     H_    0.242113 0.118933 0.647924 0.155312
H11   H     H_    0.447916 0.450150 0.217062 0.148289
H12   H     H_    0.916759 0.662895 0.046713 0.156449
H13   H     H_    0.272300 0.507983 0.183260 0.145119
H14   H     H_    0.741870 0.886075 0.436733 0.169117
H15   H     H_    0.741638 0.114397 0.436688 0.178309
H16   H     H_    0.145586 0.884548 0.570628 0.157294
H17   H     H_    0.932909 0.357946 0.398462 0.144367
H18   H     H_    0.185360 0.358096 0.398272 0.161210
H19   H     H_    0.014741 0.522952 0.689277 0.222286
H20   H     H_    0.021147 0.696784 0.672757 0.236080
N1    N     N_R   0.856900 0.500860 0.500610 -0.109464
N2    N     N_R   0.142540 0.500820 0.500610 -0.105689
O1    O     O_R   0.385310 0.683210 0.499990 -0.607555
O2    O     O_R   0.614650 0.683240 0.500000 -0.626926
O3    O     O_R   0.319830 0.499970 0.632240 -0.603862
O4    O     O_R   0.549170 0.500000 0.632250 -0.614228
O5    O     O_R   0.385350 0.316760 0.500000 -0.587674
O6    O     O_R   0.614690 0.316790 0.500010 -0.612261
O7    O     O_R   0.450830 0.500000 0.367750 -0.625264
O8    O     O_R   0.680170 0.500030 0.367760 -0.627151
Zn1   Zn    Zn3+2 0.346870 0.499980 0.499990 0.980028
Zn2   Zn    Zn3+2 0.653130 0.500020 0.500010 0.957768

loop_
_geom_bond_atom_site_label_1
_geom_bond_atom_site_label_2
_ccdc_geom_bond_type
C22   H20   S    
C4    C26   S    
C23   C28   A    
C35   C36   A    
O4    Zn2   S    
C20   N2    A    
C18   C21   A    
C9    C10   A    
C4    O4    A    
C19   C20   A    
C11   H15   S    
C6    C27   A    
C20   H18   S    
C23   C34   A    
C10   H14   S    
C1    O2    A    
C25   O7    A    
C22   H19   S    
C33   C34   A    
C1    C9    S    
C3    C32   A    
C13   C14   A    
C32   C33   A    
C24   H3    S    
C11   C13   A    
C4    O3    A    
C7    H11   S    
O6    Zn2   S    
C25   O8    A    
C15   H10   S    
C21   N2    A    
C18   C24   S    
N2    Zn1   S    
C31   C35   A    
C28   C29   A    
C24   H2    S    
C28   H6    S    
C26   C30   A    
C3    C7    A    
C17   Cl2   S    
C12   C31   A    
C5    C6    A    
O5    Zn1   S    
C5    H12   S    
C13   C16   S    
C2    C5    A    
C16   O6    A    
C10   C11   A    
N1    Zn2   S    
O1    Zn1   S    
C34   H1    S    
O3    Zn1   S    
C18   N1    A    
C7    C27   A    
O2    Zn2   S    
C26   C29   A    
O8    Zn2   S    
C6    H4    S    
C22   C24   S    
C2    C36   A    
C12   C23   A    
C15   C17   S    
C19   H17   S    
C14   C15   S    
C15   Cl1   S    
C36   H5    S    
C2    C3    A    
C16   O5    A    
C8    C14   A    
C19   N1    A    
C35   H9    S    
C21   C22   S    
C12   C30   A    
C17   H16   S    
C30   H8    S    
C31   C32   A    
C33   H13   S    
C8    C17   S    
C29   H7    S    
C8    C9    A    
O7    Zn1   S    
C25   C27   S    
C1    O1    A    
