data_mof_unit_55129.cif
_audit_creation_date              2012-12-11T14:25:41-0500
_audit_creation_method            fapswitch 2.2
_symmetry_space_group_name_H-M    P1
_symmetry_Int_Tables_number       1
_space_group_crystal_system       triclinic
_cell_length_a                    7.021928
_cell_length_b                    15.033421
_cell_length_c                    16.058046
_cell_angle_alpha                 90.647138
_cell_angle_beta                  88.657356
_cell_angle_gamma                 90.469048
_cell_volume                      1694.518434

loop_
_atom_site_label
_atom_site_type_symbol
_atom_type_description
_atom_site_fract_x
_atom_site_fract_y
_atom_site_fract_z
_atom_type_partial_charge
O1    O     O_R   0.494490 0.416160 0.413410 -0.537034
O2    O     O_R   0.823830 0.407240 0.585990 -0.567065
O3    O     O_R   0.994160 0.583840 0.586590 -0.531376
C1    C     C_R   0.649936 0.386091 0.614063 0.634859
O4    O     O_R   0.824200 0.405280 0.414020 -0.516761
O5    O     O_R   0.994530 0.581860 0.413390 -0.519714
C2    C     C_R   0.657084 0.385011 0.384235 0.795953
O6    O     O_R   0.494110 0.418140 0.586610 -0.499636
O7    O     O_3   0.660810 0.557940 0.500000 -0.335666
V1    V     V_3+5 0.935650 0.489250 0.500000 1.735820
O8    O     O_R   0.324250 0.592760 0.414010 -0.518117
C3    C     C_R   0.156539 0.613693 0.385462 0.794013
O9    O     O_R   0.323880 0.594720 0.585980 -0.499388
C4    C     C_R   0.154798 0.616770 0.614530 0.853673
V2    V     V_3+5 0.435660 0.510750 0.500000 1.831512
O10   O     O_3   0.160630 0.442060 0.500000 -0.375736
C5    C     C_3   0.979800 0.667793 0.748385 -0.426240
H1    H     H_    0.845003 0.690504 0.726156 0.270354
H2    H     H_    0.958376 0.595937 0.759718 0.235870
C6    C     C_3   0.015958 0.718651 0.829533 0.179027
H3    H     H_    0.115479 0.673454 0.860033 0.221439
C7    C     C_3   0.101666 0.783315 0.646184 0.548075
C8    C     C_3   0.341907 0.694866 0.733792 0.640946
C9    C     C_3   0.146716 0.688504 0.683370 -0.309456
C10   C     C_3   0.126049 0.808501 0.809667 -0.337187
C11   C     C_3   0.092094 0.852596 0.720882 0.188986
C12   C     C_3   0.331838 0.773837 0.799080 -0.549234
H4    H     H_    0.375082 0.752739 0.860929 0.255672
H5    H     H_    0.429087 0.829236 0.782009 0.240894
H6    H     H_    0.218453 0.896611 0.710787 0.142069
C13   C     C_2   0.997752 0.721662 0.291214 0.311929
C14   C     C_2   0.151589 0.671002 0.310470 0.190299
C15   C     C_2   0.981709 0.772863 0.212666 -0.029521
C16   C     C_2   0.123558 0.824158 0.182429 -0.260080
H7    H     H_    0.843227 0.775047 0.184018 0.198299
H8    H     H_    0.257781 0.826809 0.214576 0.179259
C17   C     C_2   0.738673 0.226344 0.792941 0.362171
C18   C     C_2   0.633038 0.151153 0.798893 0.274274
C19   C     C_2   0.757960 0.275286 0.714107 -0.238107
C20   C     C_2   0.615671 0.324827 0.685232 0.257769
H9    H     H_    0.896645 0.276033 0.683096 0.161977
C21   C     C_2   0.773990 0.220721 0.199316 -0.170682
C22   C     C_2   0.611063 0.183558 0.172121 -0.292310
H10   H     H_    0.908049 0.196743 0.172967 0.156918
H11   H     H_    0.474866 0.209173 0.194283 0.136363
C23   C     C_2   0.785183 0.298252 0.258576 0.439601
C24   C     C_2   0.647900 0.314590 0.318153 -0.343324
H12   H     H_    0.521295 0.272781 0.320230 0.133559
O11   O     O_R   0.770850 0.076180 0.907410 -0.513534
O12   O     O_R   0.440600 0.088970 0.079950 -0.557221
O13   O     O_R   0.270430 0.912340 0.080550 -0.546988
C25   C     C_R   0.608237 0.111751 0.107516 0.747720
O14   O     O_R   0.441120 0.087010 0.907980 -0.530253
O15   O     O_R   0.270950 0.910370 0.907350 -0.551029
C26   C     C_R   0.612481 0.103107 0.877313 0.772148
O16   O     O_R   0.770320 0.078150 0.080620 -0.551488
O17   O     O_3   0.604200 0.936340 0.994000 -0.358817
V3    V     V_3+5 0.329300 0.004970 0.993950 1.603436
O18   O     O_R   0.941240 0.899420 0.907920 -0.497361
C27   C     C_R   0.111643 0.876902 0.880272 0.878151
O19   O     O_R   0.940720 0.901380 0.079890 -0.535058
C28   C     C_R   0.108423 0.882233 0.109327 0.772899
V4    V     V_3+5 0.829310 0.983370 0.993880 1.683063
O20   O     O_3   0.104280 0.052120 0.993920 -0.376594
Cl1   Cl    Cl    0.269162 0.822062 0.567704 -0.418694
Cl2   Cl    Cl    0.796871 0.731379 0.358975 -0.481163
Cl3   Cl    Cl    0.346020 0.657179 0.239491 -0.484419
Cl4   Cl    Cl    0.848641 0.274900 0.880318 -0.480195
Cl5   Cl    Cl    0.552572 0.094771 0.708708 -0.454908
S1    S     S_3+6 0.383395 0.325219 0.736883 0.106322
O21   O     O_2   0.300601 0.233552 0.745714 -0.313826
O22   O     O_2   0.404434 0.364707 0.822603 -0.236541
O23   O     O_3   0.222429 0.383459 0.684613 -0.470692
H13   H     H_    0.106911 0.383819 0.721131 0.375095
S2    S     S_3+6 0.989044 0.367980 0.245711 0.073803
O24   O     O_2   0.932500 0.464051 0.252460 -0.280344
O25   O     O_2   0.129669 0.348422 0.312139 -0.364467
O26   O     O_3   0.092747 0.350407 0.151443 -0.425196
H14   H     H_    0.185824 0.302307 0.159559 0.338878
S3    S     S_3+6 0.853569 0.706674 0.916576 0.134229
O27   O     O_2   0.786807 0.611683 0.919837 -0.207900
O28   O     O_2   0.959478 0.726382 0.994975 -0.308081
O29   O     O_3   0.668864 0.774833 0.913670 -0.458882
H15   H     H_    0.683654 0.803177 0.858970 0.345461
Cl6   Cl    Cl    0.894880 0.779497 0.583559 -0.356909
S4    S     S_3+6 0.914576 0.937598 0.714753 0.116336
O30   O     O_2   0.898831 0.968748 0.626541 -0.207920
O31   O     O_2   0.724073 0.904438 0.744867 -0.308283
O32   O     O_3   0.982856 0.025085 0.773166 -0.507274
H16   H     H_    0.093711 0.051335 0.742714 0.368661
Cl7   Cl    Cl    0.535350 0.719575 0.666755 -0.482384
S5    S     S_3+6 0.403101 0.590163 0.783660 0.098453
O33   O     O_2   0.436902 0.602849 0.874968 -0.242197
O34   O     O_2   0.244022 0.524403 0.776368 -0.316474
O35   O     O_3   0.599199 0.545872 0.738201 -0.493075
H17   H     H_    0.649159 0.504169 0.779539 0.388561

loop_
_geom_bond_atom_site_label_1
_geom_bond_atom_site_label_2
_ccdc_geom_bond_type
C13   Cl2   S    
O11   V4    S    
C12   H5    S    
O23   H13   S    
O35   H17   S    
C1    O6    A    
C19   H9    S    
O15   C27   A    
C20   S1    S    
O29   H15   S    
O5    C3    A    
S4    O31   D    
C22   C25   S    
C6    C10   S    
V2    O10   S    
C17   Cl4   S    
C16   C28   S    
C5    C6    S    
C21   C23   S    
C7    Cl6   S    
C4    C9    S    
O19   V4    S    
C5    H2    S    
O8    V2    S    
C18   C26   S    
C1    C20   S    
O12   C25   A    
C8    C9    S    
C13   C15   S    
S1    O21   D    
O1    V2    S    
C10   C27   S    
C8    C12   S    
O7    V1    S    
C16   H8    S    
C18   Cl5   S    
O18   C27   A    
O9    C4    A    
C3    C14   S    
O13   C28   A    
C21   H10   S    
S3    O29   S    
C23   S2    S    
O17   V4    S    
O14   C26   A    
V3    O20   S    
C5    C9    S    
C6    S3    S    
O12   V3    S    
C24   H12   S    
S3    O28   D    
C19   C20   D    
O4    C2    A    
S4    O30   D    
C10   C11   S    
O11   C26   A    
S5    O35   S    
C2    C24   S    
O2    C1    A    
S2    O24   D    
C7    Cl1   S    
C17   C18   D    
S2    O25   D    
C13   C14   D    
C11   S4    S    
S1    O23   S    
S5    O34   D    
C5    H1    S    
O16   V4    S    
O13   V3    S    
C22   H11   S    
O3    C4    A    
C14   Cl3   S    
C11   H6    S    
O6    V2    S    
O9    V2    S    
C8    Cl7   S    
C21   C22   D    
O2    V1    S    
O15   V3    S    
C23   C24   D    
O1    C2    A    
S3    O27   D    
S4    O32   S    
O5    V1    S    
O14   V3    S    
C10   C12   S    
O18   V4    S    
O7    V2    S    
O4    V1    S    
C17   C19   S    
O3    V1    S    
V1    O10   S    
O26   H14   S    
O17   V3    S    
S5    O33   D    
C15   H7    S    
C15   C16   D    
C7    C9    S    
O19   C28   A    
S2    O26   S    
V4    O20   S    
C6    H3    S    
C7    C11   S    
C12   H4    S    
C8    S5    S    
S1    O22   D    
O32   H16   S    
C25   O16   A    
O8    C3    A    
