data_mof_unit_27060.cif
_audit_creation_date              2012-12-10T18:29:33-0500
_audit_creation_method            fapswitch 2.2
_symmetry_space_group_name_H-M    P1
_symmetry_Int_Tables_number       1
_space_group_crystal_system       triclinic
_cell_length_a                    11.516841
_cell_length_b                    15.046925
_cell_length_c                    15.229155
_cell_angle_alpha                 81.190182
_cell_angle_beta                  91.13268
_cell_angle_gamma                 103.549841
_cell_volume                      2535.02509164

loop_
_atom_site_label
_atom_site_type_symbol
_atom_type_description
_atom_site_fract_x
_atom_site_fract_y
_atom_site_fract_z
_atom_type_partial_charge
C1    C     C_R   0.483884 0.441415 0.663192 0.905044
C2    C     C_R   0.682425 0.675384 0.975172 0.123242
C3    C     C_R   0.690412 0.836094 0.637636 0.472447
C4    C     C_R   0.324003 0.156119 0.362737 0.478865
C5    C     C_R   0.655592 0.749190 0.611307 -0.192050
C6    C     C_R   0.343921 0.242918 0.391025 -0.247961
C7    C     C_R   0.512709 0.798658 0.511320 0.633023
C8    C     C_R   0.503440 0.210768 0.482540 0.717974
C9    C     C_R   0.558493 0.891005 0.526297 -0.124105
C10   C     C_R   0.473833 0.117575 0.469374 -0.196863
C11   C     C_R   0.635136 0.906009 0.598576 -0.098794
C12   C     C_R   0.524147 0.558760 0.337370 0.870554
C13   C     C_R   0.396587 0.096326 0.397984 -0.072109
C14   C     C_R   0.519993 0.966652 0.478149 -0.013836
C15   C     C_R   0.526978 0.047786 0.516612 -0.062079
C16   C     C_R   0.717640 0.500615 0.500352 0.878525
C17   C     C_R   0.282320 0.499250 0.499939 0.860366
C18   C     C_R   0.585889 0.055281 0.599502 0.553753
C19   C     C_R   0.484474 0.967055 0.389098 0.520675
C20   C     C_R   0.647390 0.987357 0.634934 -0.308630
C21   C     C_R   0.404925 0.021518 0.356478 -0.262199
C22   C     C_1   0.838689 0.501795 0.500450 -0.208791
C23   C     C_R   0.534462 0.347794 0.939010 -0.167624
C24   C     C_1   0.161250 0.498169 0.499610 -0.192668
C25   C     C_1   0.940812 0.500947 0.500158 -0.028310
C26   C     C_1   0.059123 0.499064 0.499733 -0.013756
C27   C     C_R   0.489144 0.405475 0.758529 -0.288708
C28   C     C_R   0.567986 0.595438 0.245281 -0.284489
C29   C     C_R   0.484023 0.280977 0.883112 0.437684
C30   C     C_R   0.665978 0.717963 0.127041 0.466378
C31   C     C_R   0.460859 0.310583 0.793007 0.425591
C32   C     C_R   0.633013 0.687658 0.217810 0.428553
C33   C     C_R   0.529689 0.469525 0.815223 -0.250301
C34   C     C_R   0.652664 0.651750 0.067391 -0.186003
C35   C     C_R   0.554466 0.532741 0.185964 -0.229147
C36   C     C_R   0.561399 0.443511 0.902387 0.001239
C37   C     C_R   0.607139 0.556818 0.101524 0.000291
C38   C     C_3   0.439772 0.186620 0.121859 -0.592351
C39   C     C_3   0.646590 0.818712 0.895833 -0.570499
C40   C     C_3   0.674660 0.161952 0.690960 -0.229866
C41   C     C_3   0.559653 0.965072 0.248521 -0.315896
C42   C     C_3   0.759189 0.739190 0.325830 -0.261258
C43   C     C_3   0.284969 0.232930 0.743411 -0.244521
C44   C     C_3   0.511271 0.134263 0.886073 -0.297131
C45   C     C_R   0.609044 0.512578 0.955707 -0.125399
C46   C     C_3   0.810622 0.854124 0.119949 -0.350625
C47   C     C_3   0.746960 0.384332 0.176432 -0.318559
C48   C     C_3   0.815491 0.608291 0.827203 -0.289843
C49   C     C_3   0.704692 0.254564 0.459781 -0.330896
C50   C     C_3   0.381325 0.753129 0.398660 -0.117788
C51   C     C_3   0.886675 0.859870 0.672215 -0.306635
C52   C     C_3   0.133531 0.152143 0.309165 -0.344502
C53   C     C_R   0.601778 0.487318 0.047911 -0.119607
C54   C     C_R   0.591588 0.393086 0.084031 0.481396
C55   C     C_R   0.663199 0.606182 0.920635 0.482515
C56   C     C_R   0.556860 0.323577 0.030714 0.127526
H1    H     H_    0.499798 0.463756 0.205663 0.226568
H2    H     H_    0.444248 0.115972 0.153069 0.199815
H3    H     H_    0.804975 0.804243 0.963300 0.239082
H4    H     H_    0.584917 0.825916 0.947998 0.228585
H5    H     H_    0.593615 0.782653 0.844472 0.246820
H6    H     H_    0.694415 0.888805 0.863990 0.223119
H7    H     H_    0.754864 0.175256 0.646837 0.148768
H8    H     H_    0.687540 0.118889 0.754688 0.108857
H9    H     H_    0.666148 0.229802 0.706620 0.209343
H10   H     H_    0.624665 0.935139 0.217282 0.242590
H11   H     H_    0.600747 0.040147 0.246709 0.156509
H12   H     H_    0.532363 0.541099 0.790986 0.242183
H13   H     H_    0.477446 0.954152 0.208340 0.160260
H14   H     H_    0.753008 0.666546 0.357164 0.161082
H15   H     H_    0.769756 0.782285 0.379724 0.189602
H16   H     H_    0.841230 0.761989 0.283618 0.120578
H17   H     H_    0.244424 0.181530 0.699913 0.181811
H18   H     H_    0.256914 0.298125 0.718624 0.131131
H19   H     H_    0.249577 0.204924 0.812080 0.169507
H20   H     H_    0.608252 0.168720 0.880365 0.116175
H21   H     H_    0.476651 0.114199 0.821764 0.255890
H22   H     H_    0.502393 0.069253 0.933615 0.174014
H23   H     H_    0.695617 0.993339 0.696166 0.186393
H24   H     H_    0.873261 0.807183 0.125858 0.131612
H25   H     H_    0.807070 0.883527 0.181977 0.210898
H26   H     H_    0.848102 0.913492 0.067800 0.175537
H27   H     H_    0.770888 0.360649 0.245460 0.177746
H28   H     H_    0.789520 0.459452 0.160497 0.161422
H29   H     H_    0.783743 0.344823 0.132131 0.153653
H30   H     H_    0.806214 0.532231 0.842776 0.153750
H31   H     H_    0.882564 0.644818 0.871136 0.154749
H32   H     H_    0.849644 0.630635 0.757812 0.185236
H33   H     H_    0.718111 0.185183 0.453002 0.137586
H34   H     H_    0.359672 0.011185 0.294632 0.183077
H35   H     H_    0.788568 0.293556 0.486156 0.187964
H36   H     H_    0.690237 0.292603 0.393364 0.173219
H37   H     H_    0.337160 0.803490 0.358753 0.154239
H38   H     H_    0.319049 0.685241 0.397407 0.150798
H39   H     H_    0.465974 0.754263 0.364936 0.233990
H40   H     H_    0.909724 0.918311 0.616220 0.152021
H41   H     H_    0.897501 0.794632 0.651143 0.156437
H42   H     H_    0.951165 0.875572 0.725963 0.192514
H43   H     H_    0.136719 0.225876 0.283572 0.161623
H44   H     H_    0.103617 0.134509 0.380172 0.157838
H45   H     H_    0.294562 0.293263 0.363542 0.168177
H46   H     H_    0.065330 0.109822 0.270541 0.191709
H47   H     H_    0.695406 0.693666 0.641151 0.203043
H48   H     H_    0.584497 0.189472 0.037548 0.238951
H49   H     H_    0.361488 0.181587 0.077605 0.254445
H50   H     H_    0.427860 0.226502 0.175251 0.262831
N1    N     N_R   0.566020 0.731700 0.552730 -0.173428
N2    N     N_R   0.433980 0.268300 0.447270 -0.165988
N3    N     N_2   0.548959 0.230794 0.071937 -0.283818
N4    N     N_2   0.732159 0.767549 0.933768 -0.244836
O1    O     O_R   0.466720 0.383110 0.605620 -0.531415
O2    O     O_3   0.535449 0.918124 0.336204 -0.634007
O3    O     O_3   0.656399 0.750594 0.276973 -0.586847
O4    O     O_3   0.410163 0.246137 0.739205 -0.561575
O5    O     O_3   0.442394 0.188694 0.918837 -0.617325
O6    O     O_3   0.694284 0.811998 0.095149 -0.608445
O7    O     O_3   0.621452 0.367582 0.171347 -0.607674
O8    O     O_3   0.704634 0.631623 0.833493 -0.598668
O9    O     O_3   0.610126 0.248613 0.519913 -0.544556
O10   O     O_3   0.393927 0.773010 0.486527 -0.623108
O11   O     O_3   0.770525 0.850336 0.705777 -0.591746
O12   O     O_R   0.533280 0.616890 0.394380 -0.596830
O13   O     O_3   0.244751 0.131696 0.295538 -0.616846
O14   O     O_R   0.509090 0.531900 0.639510 -0.614470
O15   O     O_R   0.490910 0.468100 0.360490 -0.607320
O16   O     O_R   0.644370 0.425610 0.483050 -0.555202
O17   O     O_R   0.355630 0.574390 0.516950 -0.573178
O18   O     O_R   0.686740 0.574390 0.516930 -0.636545
O19   O     O_R   0.313260 0.425610 0.483070 -0.622644
O20   O     O_3   0.568276 0.120846 0.650051 -0.561646
Zn1   Zn    Zn3+2 0.471710 0.400660 0.477370 0.995583
Zn2   Zn    Zn3+2 0.528290 0.599340 0.522630 0.956944

loop_
_geom_bond_atom_site_label_1
_geom_bond_atom_site_label_2
_ccdc_geom_bond_type
C51   H41   S    
C15   C18   A    
C30   C32   A    
C5    H47   S    
C43   H17   S    
C34   C37   A    
H3    N4    S    
C23   C56   A    
C41   H11   S    
C30   O6    S    
C53   C54   A    
C27   C33   A    
C52   H46   S    
C33   H12   S    
C40   H7    S    
C12   C28   S    
C50   O10   S    
C47   H29   S    
C44   H21   S    
C19   C21   A    
C24   C26   T    
C2    C55   A    
C43   O4    S    
H48   N3    S    
C52   O13   S    
C50   H39   S    
C8    N2    A    
C42   H14   S    
C33   C36   A    
O14   Zn2   S    
C6    H45   S    
C4    C13   A    
C44   H20   S    
O17   Zn2   S    
N2    Zn1   S    
C46   H26   S    
C39   N4    S    
C44   O5    S    
C41   O2    S    
C48   H32   S    
C47   H27   S    
C32   O3    S    
C31   O4    S    
C18   C20   A    
C51   H40   S    
C37   C53   A    
C2    C34   A    
C43   H18   S    
C29   O5    S    
C45   C53   A    
C38   H2    S    
C49   H35   S    
O18   Zn2   S    
O12   Zn2   S    
C21   H34   S    
C43   H19   S    
C39   H5    S    
C54   C56   A    
C11   C20   A    
C17   C24   S    
C30   C34   A    
C27   C31   A    
C28   C32   A    
C28   C35   A    
C4    C6    A    
C14   C19   A    
C17   O17   A    
C48   O8    S    
C12   O15   A    
C25   C26   S    
C19   O2    S    
C17   O19   A    
C22   C25   T    
C4    O13   S    
C38   H50   S    
C9    C14   A    
C46   H25   S    
C9    C11   A    
O15   Zn1   S    
C42   O3    S    
C42   H16   S    
C48   H31   S    
C13   C21   A    
C36   C45   A    
C47   H28   S    
C38   N3    S    
C16   O18   A    
O1    Zn1   S    
C23   C36   A    
C40   H9    S    
C51   O11   S    
C7    N1    A    
C18   O20   S    
C49   H36   S    
C23   C29   A    
C56   N3    S    
C41   H13   S    
C5    N1    A    
C7    C9    A    
C39   H6    S    
C40   O20   S    
C2    N4    S    
C16   C22   S    
C20   H23   S    
C35   C37   A    
C7    O10   S    
C50   H38   S    
C49   H33   S    
N1    Zn2   S    
C3    C5    A    
C10   C13   A    
C50   H37   S    
C41   H10   S    
C52   H43   S    
C40   H8    S    
C46   O6    S    
C10   C15   A    
C38   H49   S    
C44   H22   S    
C1    O14   A    
C29   C31   A    
C1    O1    A    
C46   H24   S    
C49   O9    S    
O16   Zn1   S    
C51   H42   S    
C39   H4    S    
C42   H15   S    
C52   H44   S    
C48   H30   S    
C3    C11   A    
C47   O7    S    
C12   O12   A    
C45   C55   A    
C8    C10   A    
C35   H1    S    
C54   O7    S    
C1    C27   S    
C6    N2    A    
C14   C15   A    
C16   O16   A    
C3    O11   S    
C8    O9    S    
O19   Zn1   S    
C55   O8    S    
