data_mof_unit_44303.cif
_audit_creation_date              2012-10-26T19:42:18-0400
_audit_creation_method            fapswitch 2.2
_symmetry_space_group_name_H-M    P1
_symmetry_Int_Tables_number       1
_space_group_crystal_system       triclinic
_cell_length_a                    9.601114
_cell_length_b                    10.838901
_cell_length_c                    17.382647
_cell_angle_alpha                 93.323776
_cell_angle_beta                  86.074546
_cell_angle_gamma                 89.888485
_cell_volume                      1801.62289692

loop_
_atom_site_label
_atom_site_type_symbol
_atom_type_description
_atom_site_fract_x
_atom_site_fract_y
_atom_site_fract_z
_atom_type_partial_charge
C1    C     C_R   0.498376 0.738271 0.498881 0.531516
C2    C     C_R   0.528465 0.504520 0.265902 0.019404
C3    C     C_R   0.228975 0.890453 0.506250 -0.125793
C4    C     C_R   0.482425 0.501346 0.649523 0.542241
C5    C     C_R   0.109603 0.951708 0.538494 -0.062406
C6    C     C_R   0.117888 0.068045 0.576008 0.298958
C7    C     C_R   0.249136 0.127733 0.573673 -0.075204
C8    C     C_R   0.369016 0.068884 0.535621 0.021281
C9    C     C_R   0.363208 0.942084 0.513447 0.029884
C10   C     C_R   0.491831 0.874008 0.501088 -0.017363
C11   C     C_R   0.618623 0.937518 0.501213 -0.166819
C12   C     C_R   0.372587 0.433715 0.773245 -0.135779
C13   C     C_R   0.620444 0.064819 0.507157 -0.158605
C14   C     C_R   0.495949 0.131763 0.520175 -0.000208
C15   C     C_R   0.873988 0.298790 0.418892 0.001702
C16   C     C_R   0.498760 0.264185 0.508396 0.541254
C17   C     C_R   0.951893 0.188765 0.413874 -0.139010
C18   C     C_R   0.096105 0.197090 0.403358 0.210834
C19   C     C_R   0.157362 0.311299 0.417054 -0.050788
C20   C     C_R   0.081232 0.408571 0.457267 0.070155
C21   C     C_R   0.931961 0.405866 0.457701 0.137561
C22   C     C_R   0.920876 0.588354 0.540068 -0.031987
C23   C     C_R   0.447636 0.440053 0.141015 -0.112442
C24   C     C_R   0.068587 0.587774 0.540453 -0.030753
C25   C     C_R   0.518107 0.501180 0.350314 0.571070
C26   C     C_R   0.478445 0.497165 0.733105 0.020587
C27   C     C_R   0.592035 0.544392 0.771787 -0.128556
C28   C     C_R   0.602213 0.525131 0.849243 -0.109539
C29   C     C_R   0.497448 0.459878 0.889446 0.041875
C30   C     C_R   0.382500 0.414432 0.851205 -0.116457
C31   C     C_3   0.983408 0.242414 0.624702 0.012014
C32   C     C_3   0.996806 0.287060 0.708834 -0.265993
C33   C     C_3   0.984778 0.427470 0.719429 -0.485524
C34   C     C_R   0.430420 0.440557 0.221795 0.224464
C35   C     C_3   0.796243 0.308054 0.346936 -0.343597
C36   C     C_3   0.191738 0.390928 0.228741 0.002596
C37   C     C_3   0.141234 0.526229 0.235581 -0.268444
C38   C     C_3   0.016597 0.543145 0.187370 -0.464604
C39   C     C_3   0.169772 0.052503 0.307934 0.005340
C40   C     C_3   0.260980 0.936874 0.291386 -0.250452
C41   C     C_3   0.254381 0.885354 0.208191 -0.496027
C42   C     C_3   0.678383 0.760012 0.291253 0.030789
C43   C     C_3   0.798478 0.847106 0.310103 -0.248095
C44   C     C_3   0.897551 0.792661 0.364660 -0.390011
C45   C     C_R   0.634454 0.574678 0.228952 0.188027
C46   C     C_R   0.645999 0.575884 0.148658 -0.128095
C47   C     C_R   0.553484 0.508597 0.104389 -0.048437
C48   C     C_2   0.505908 0.437295 0.971171 -0.133739
C49   C     C_2   0.562283 0.519972 0.020316 -0.132635
Cu1   Cu    Cu3+1 0.359340 0.500010 0.500010 0.910562
Cu2   Cu    Cu3+1 0.640660 0.499990 0.499990 0.925503
H1    H     H_    0.675149 0.593495 0.741491 0.115658
H2    H     H_    0.264067 0.319315 0.396980 0.234617
H3    H     H_    0.119168 0.658829 0.574575 0.118819
H4    H     H_    0.610766 0.602933 0.999014 0.116849
H5    H     H_    0.301054 0.363524 0.881601 0.097948
H6    H     H_    0.376398 0.388544 0.106819 0.105113
H7    H     H_    0.286199 0.394756 0.743618 0.112319
H8    H     H_    0.457709 0.353536 0.991030 0.110801
H9    H     H_    0.693979 0.558239 0.876661 0.099538
H10   H     H_    0.877058 0.266593 0.608683 0.171562
H11   H     H_    0.056201 0.292284 0.585561 0.135574
H12   H     H_    0.727543 0.630207 0.120931 0.121408
H13   H     H_    0.912828 0.244959 0.745803 0.178822
H14   H     H_    0.098879 0.256674 0.727726 0.153322
H15   H     H_    0.071650 0.471486 0.685809 0.164524
H16   H     H_    0.990242 0.456729 0.781422 0.140821
H17   H     H_    0.883779 0.459253 0.699834 0.161374
H18   H     H_    0.818264 0.397650 0.321127 0.174308
H19   H     H_    0.833140 0.238924 0.299978 0.063355
H20   H     H_    0.683983 0.287994 0.358430 0.171898
H21   H     H_    0.114167 0.336920 0.262821 0.129805
H22   H     H_    0.188716 0.348830 0.169250 0.112390
H23   H     H_    0.717625 0.889258 0.495234 0.132825
H24   H     H_    0.111886 0.552652 0.297242 0.165283
H25   H     H_    0.224384 0.589787 0.215112 0.159137
H26   H     H_    0.046870 0.520827 0.125293 0.133053
H27   H     H_    0.980621 0.640768 0.194026 0.178856
H28   H     H_    0.929979 0.481748 0.206052 0.176695
H29   H     H_    0.208536 0.124865 0.269029 0.153061
H30   H     H_    0.060384 0.028550 0.295898 0.115190
H31   H     H_    0.225301 0.864586 0.330931 0.162915
H32   H     H_    0.371048 0.959870 0.302177 0.167498
H33   H     H_    0.146234 0.856177 0.197379 0.142441
H34   H     H_    0.211170 0.805229 0.473676 0.139492
H35   H     H_    0.324789 0.803793 0.197829 0.138892
H36   H     H_    0.288596 0.956154 0.167317 0.148318
H37   H     H_    0.603956 0.757071 0.342906 0.139844
H38   H     H_    0.622957 0.800419 0.244090 0.091105
H39   H     H_    0.859089 0.868423 0.255735 0.133726
H40   H     H_    0.753704 0.935222 0.337025 0.105458
H41   H     H_    0.839010 0.748290 0.412637 0.187292
H42   H     H_    0.963990 0.866731 0.389053 0.117091
H43   H     H_    0.966443 0.722326 0.332776 0.169151
H44   H     H_    0.009218 0.906804 0.535569 0.103959
H45   H     H_    0.260662 0.216349 0.604332 0.112975
H46   H     H_    0.719963 0.110805 0.501528 0.152830
H47   H     H_    0.861567 0.660420 0.573345 0.114008
H48   H     H_    0.903132 0.102068 0.397478 0.111289
N1    N     N_R   0.852190 0.498790 0.499250 -0.234020
N2    N     N_R   0.148060 0.498710 0.499220 -0.254048
O1    O     O_R   0.381190 0.680360 0.500010 -0.519695
O2    O     O_3   0.323759 0.374927 0.259306 -0.585584
O3    O     O_3   0.179515 0.093798 0.385798 -0.566408
O4    O     O_3   0.730835 0.639890 0.270372 -0.564645
O5    O     O_R   0.618760 0.680340 0.500000 -0.513501
O6    O     O_R   0.367440 0.500030 0.613600 -0.512393
O7    O     O_R   0.605010 0.500010 0.613590 -0.509958
O8    O     O_R   0.381240 0.319660 0.500000 -0.528736
O9    O     O_R   0.618810 0.319640 0.499990 -0.510805
O10   O     O_R   0.394990 0.499990 0.386410 -0.490700
O11   O     O_R   0.632560 0.499970 0.386400 -0.483658
O12   O     O_3   0.996451 0.112320 0.617141 -0.589310

loop_
_geom_bond_atom_site_label_1
_geom_bond_atom_site_label_2
_ccdc_geom_bond_type
Cu2   O11   S    
C22   H47   S    
C3    H34   S    
C31   H10   S    
C19   C20   A    
C31   H11   S    
C16   O9    A    
C7    C8    A    
C47   C49   S    
C45   C46   A    
C7    H45   S    
C4    O7    A    
C26   C27   A    
C37   C38   S    
C36   O2    S    
C28   C29   A    
C18   C19   A    
C5    C6    A    
C38   H28   S    
C24   H3    S    
C23   H6    S    
C24   N2    A    
C44   H42   S    
C25   O11   A    
C35   H19   S    
Cu2   O7    S    
C33   H15   S    
C9    C10   A    
C44   H41   S    
C1    O5    A    
C12   H7    S    
C19   H2    S    
C37   H24   S    
C35   H20   S    
C13   C14   A    
C40   H32   S    
C15   C35   S    
C5    H44   S    
C45   O4    S    
C16   O8    A    
Cu1   Cu2   S    
C28   H9    S    
C2    C45   A    
C41   H36   S    
C4    O6    A    
C43   H39   S    
C22   N1    A    
C41   H35   S    
C29   C48   S    
C40   H31   S    
C39   O3    S    
C23   C47   A    
C32   H13   S    
C36   H22   S    
C39   C40   S    
C21   N1    A    
C8    C9    A    
C20   N2    A    
C38   H27   S    
C49   H4    S    
C41   H33   S    
C30   H5    S    
Cu1   O8    S    
C43   H40   S    
C12   C26   A    
C43   C44   S    
C6    O12   S    
C29   C30   A    
C3    C9    A    
C31   C32   S    
C23   C34   A    
C17   C18   A    
C18   O3    S    
C17   H48   S    
C39   H30   S    
C40   C41   S    
C37   H25   S    
Cu1   O1    S    
Cu2   O9    S    
Cu1   O6    S    
C14   C16   S    
C42   H37   S    
C42   C43   S    
C27   H1    S    
C33   H16   S    
C48   H8    S    
Cu2   N1    S    
C15   C17   A    
C46   C47   A    
C48   C49   D    
C8    C14   A    
C12   C30   A    
C1    C10   S    
C3    C5    A    
C11   H23   S    
C4    C26   S    
C6    C7    A    
C38   H26   S    
C34   O2    S    
C46   H12   S    
C42   H38   S    
C32   C33   S    
C39   H29   S    
C11   C13   A    
C2    C34   A    
Cu2   O5    S    
Cu1   O10   S    
C2    C25   S    
C22   C24   A    
C13   H46   S    
C42   O4    S    
C44   H43   S    
C10   C11   A    
C25   O10   A    
C15   C21   A    
C20   C21   A    
C35   H18   S    
Cu1   N2    S    
C36   C37   S    
C27   C28   A    
C1    O1    A    
C31   O12   S    
C36   H21   S    
C33   H17   S    
C32   H14   S    
