data_mof_unit_62975.cif
_audit_creation_date              2012-12-10T18:56:27-0500
_audit_creation_method            fapswitch 2.2
_symmetry_space_group_name_H-M    P1
_symmetry_Int_Tables_number       1
_space_group_crystal_system       triclinic
_cell_length_a                    25.664039
_cell_length_b                    25.732303
_cell_length_c                    26.287127
_cell_angle_alpha                 108.853794
_cell_angle_beta                  110.929639
_cell_angle_gamma                 107.801407
_cell_volume                      13490.7344871

loop_
_atom_site_label
_atom_site_type_symbol
_atom_type_description
_atom_site_fract_x
_atom_site_fract_y
_atom_site_fract_z
_atom_type_partial_charge
C1    C     C_R   0.413616 0.913752 0.999902 0.855808
C2    C     C_R   0.198164 0.647230 0.029705 -0.196593
C3    C     C_R   0.134885 0.634781 0.000253 -0.037646
C4    C     C_R   0.587538 0.999693 0.087241 0.875805
C5    C     C_R   0.117686 0.668823 0.971416 -0.196023
C6    C     C_R   0.163576 0.715147 0.972114 -0.172543
C7    C     C_R   0.226582 0.726975 0.000912 0.108895
C8    C     C_R   0.337029 0.080130 0.852860 -0.193083
C9    C     C_R   0.383860 0.068191 0.883404 -0.215439
C10   C     C_R   0.369938 0.006810 0.870785 -0.048253
C11   C     C_R   0.309188 0.956030 0.825726 0.136589
C12   C     C_1   0.869551 0.999667 0.369458 -0.200768
C13   C     C_R   0.262891 0.968695 0.793956 -0.171512
C14   C     C_R   0.276778 0.030409 0.808536 0.069673
C15   C     C_R   0.170326 0.019084 0.753622 0.181351
C16   C     C_R   0.586407 0.086270 0.000088 0.865142
C17   C     C_R   0.124385 0.006105 0.696566 -0.201878
C18   C     C_R   0.141412 0.013671 0.653420 -0.070412
C19   C     C_R   0.204531 0.039572 0.668444 -0.202206
C20   C     C_R   0.250462 0.053074 0.724811 -0.192085
C21   C     C_R   0.233083 0.039880 0.765668 0.065103
C22   C     C_R   0.707842 0.242550 0.043929 -0.167206
C23   C     C_R   0.282168 0.835372 0.023399 -0.174765
C24   C     C_R   0.661534 0.197106 0.043690 -0.192172
C25   C     C_R   0.634855 0.134057 0.000429 -0.038736
C26   C     C_R   0.654980 0.116856 0.957565 -0.187690
C27   C     C_R   0.701074 0.162316 0.957710 -0.167782
C28   C     C_R   0.415490 0.000998 0.915498 0.867556
C29   C     C_R   0.727439 0.225192 0.000770 0.132623
C30   C     C_R   0.763368 0.272127 0.943522 -0.205420
C31   C     C_R   0.808282 0.317318 0.942076 0.386107
C32   C     C_R   0.865220 0.363703 0.998000 -0.135556
C33   C     C_R   0.876714 0.363723 0.054255 -0.238164
C34   C     C_R   0.328042 0.881063 0.023423 -0.190711
C35   C     C_R   0.831499 0.318569 0.055299 -0.157988
C36   C     C_R   0.774813 0.272784 0.999946 0.036263
C37   C     C_R   0.007797 0.086303 0.594062 0.869881
C38   C     C_R   0.921513 0.999951 0.421495 0.872303
C39   C     C_R   0.010243 0.913708 0.423829 0.893311
C40   C     C_1   0.639386 0.999173 0.138628 -0.203255
C41   C     C_R   0.094192 0.001783 0.595695 0.886526
C42   C     C_R   0.999996 0.588560 0.084924 0.894960
C43   C     C_R   0.086923 0.586555 0.999772 0.856274
C44   C     C_R   0.003299 0.414635 0.915124 0.917353
C45   C     C_R   0.365627 0.865933 0.999896 -0.034877
C46   C     C_R   0.913155 0.412207 0.998888 0.947133
C47   C     C_R   0.056438 0.242181 0.719401 -0.168093
C48   C     C_R   0.055386 0.196520 0.672616 -0.190593
C49   C     C_R   0.008556 0.134205 0.642784 -0.040755
C50   C     C_R   0.962941 0.117942 0.660296 -0.199362
C51   C     C_R   0.963874 0.163764 0.706898 -0.089211
C52   C     C_1   0.682152 0.999084 0.181364 0.014005
C53   C     C_R   0.010751 0.225758 0.736523 0.168924
C54   C     C_R   0.002292 0.321440 0.771229 -0.255998
C55   C     C_R   0.001004 0.369151 0.814152 0.172204
C56   C     C_R   0.357228 0.804917 0.976584 -0.188594
C57   C     C_R   0.006276 0.367910 0.869129 -0.135638
C58   C     C_R   0.014958 0.321017 0.881040 -0.252022
C59   C     C_R   0.016929 0.274189 0.838329 0.413865
C60   C     C_R   0.009923 0.274239 0.782963 -0.039827
C61   C     C_R   0.972830 0.756841 0.308185 0.407214
C62   C     C_R   0.976569 0.802836 0.357341 -0.227231
C63   C     C_R   0.007807 0.865777 0.373433 -0.104566
C64   C     C_1   0.733059 0.999159 0.232414 0.004619
C65   C     C_R   0.035071 0.882592 0.339823 -0.183269
C66   C     C_R   0.030978 0.836937 0.290459 -0.236774
C67   C     C_R   0.311934 0.759468 0.977380 -0.175022
C68   C     C_R   0.999994 0.774091 0.274403 0.017931
C69   C     C_R   0.057876 0.734580 0.229525 -0.193598
C70   C     C_R   0.059638 0.690853 0.183041 0.164585
C71   C     C_R   0.001456 0.639015 0.131654 -0.057486
C72   C     C_R   0.943534 0.634178 0.125853 -0.236953
C73   C     C_R   0.942741 0.678638 0.172138 -0.089154
C74   C     C_R   0.999917 0.727986 0.224584 0.112721
C75   C     C_1   0.775823 0.999285 0.275354 0.004690
C76   C     C_1   0.826746 0.999477 0.326498 0.014044
C77   C     C_3   0.291936 0.889334 0.811950 -0.425868
C78   C     C_R   0.274330 0.774676 0.000644 0.108149
C79   C     C_3   0.306809 0.857683 0.763024 -0.809137
C80   C     C_3   0.152041 0.011858 0.800714 -0.421045
C81   C     C_3   0.106688 0.944088 0.777694 -0.856017
C82   C     C_3   0.997189 0.421339 0.800832 -0.413683
C83   C     C_3   0.928793 0.402640 0.756590 -0.782720
C84   C     C_3   0.123566 0.702549 0.188543 -0.426694
C85   C     C_3   0.131424 0.722467 0.141823 -0.837464
C86   C     C_R   0.243882 0.692989 0.029635 -0.175051
Cl1   Cl    Cl    0.792358 0.311895 0.868965 -0.607562
Cl2   Cl    Cl    0.030315 0.217654 0.856642 -0.621926
Cl3   Cl    Cl    0.936918 0.678948 0.292631 -0.628570
H1    H     H_    0.253258 0.847358 0.041641 0.135807
H2    H     H_    0.333754 0.927935 0.041303 0.156506
H3    H     H_    0.716438 0.148499 0.924521 0.144513
H4    H     H_    0.719380 0.236546 0.900660 0.169214
H5    H     H_    0.920386 0.399128 0.097495 0.172331
H6    H     H_    0.840887 0.318952 0.099046 0.148454
H7    H     H_    0.092580 0.290304 0.742129 0.138609
H8    H     H_    0.091204 0.209971 0.659979 0.161526
H9    H     H_    0.926273 0.070105 0.637641 0.162703
H10   H     H_    0.927763 0.151179 0.719387 0.159909
H11   H     H_    0.997650 0.321150 0.728451 0.157598
H12   H     H_    0.430725 0.107151 0.918714 0.153369
H13   H     H_    0.386045 0.792561 0.958438 0.156715
H14   H     H_    0.019733 0.320560 0.923550 0.193263
H15   H     H_    0.955763 0.789411 0.383373 0.190882
H16   H     H_    0.058966 0.930896 0.351198 0.168195
H17   H     H_    0.052180 0.850566 0.264756 0.155581
H18   H     H_    0.101725 0.774140 0.269834 0.136276
H19   H     H_    0.898942 0.595033 0.086238 0.160698
H20   H     H_    0.305715 0.712395 0.959360 0.135631
H21   H     H_    0.897730 0.674261 0.167544 0.164067
H22   H     H_    0.292717 0.702291 0.052304 0.137529
H23   H     H_    0.216739 0.930410 0.756155 0.143569
H24   H     H_    0.212098 0.621263 0.052172 0.156716
H25   H     H_    0.069001 0.659923 0.948780 0.155293
H26   H     H_    0.149960 0.741205 0.949597 0.134667
H27   H     H_    0.348018 0.127466 0.861884 0.149106
H28   H     H_    0.278635 0.856165 0.718678 0.252765
H29   H     H_    0.358034 0.883217 0.779258 0.271306
H30   H     H_    0.294348 0.809105 0.754130 0.244411
H31   H     H_    0.317114 0.887374 0.854958 0.208338
H32   H     H_    0.240416 0.862207 0.794154 0.200468
H33   H     H_    0.061651 0.926237 0.734657 0.259216
H34   H     H_    0.075623 0.990445 0.685906 0.162938
H35   H     H_    0.128622 0.913820 0.768206 0.252083
H36   H     H_    0.095373 0.941342 0.814064 0.256173
H37   H     H_    0.128763 0.040893 0.810114 0.221560
H38   H     H_    0.194555 0.029304 0.845926 0.215992
H39   H     H_    0.909466 0.361392 0.711172 0.249461
H40   H     H_    0.898537 0.391158 0.776890 0.283989
H41   H     H_    0.927223 0.441949 0.748321 0.236996
H42   H     H_    0.017788 0.465343 0.844214 0.208502
H43   H     H_    0.026203 0.432419 0.779196 0.195683
H44   H     H_    0.130331 0.767373 0.151817 0.255857
H45   H     H_    0.217982 0.047318 0.635808 0.160348
H46   H     H_    0.093034 0.686715 0.093451 0.246828
H47   H     H_    0.177690 0.728890 0.145552 0.255172
H48   H     H_    0.162814 0.740433 0.235985 0.202350
H49   H     H_    0.130259 0.660862 0.182425 0.232192
H50   H     H_    0.298823 0.068458 0.734151 0.154174
H51   H     H_    0.727716 0.291207 0.077074 0.141017
H52   H     H_    0.646695 0.211314 0.077236 0.161763
H53   H     H_    0.635067 0.068422 0.923845 0.162223
O1    O     O_R   0.435210 0.897580 0.963710 -0.622328
O2    O     O_R   0.962510 0.565450 0.027970 -0.625264
O3    O     O_R   0.101760 0.565450 0.036270 -0.624637
O4    O     O_R   0.433860 0.971490 0.036290 -0.617742
O5    O     O_R   0.029180 0.565460 0.963690 -0.635773
O6    O     O_R   0.037490 0.434520 0.972000 -0.626875
O7    O     O_R   0.964910 0.434530 0.899420 -0.599984
O8    O     O_R   0.970820 0.434520 0.036280 -0.630618
O9    O     O_R   0.898240 0.434520 0.963700 -0.567028
O10   O     O_R   0.564960 0.963040 0.027990 -0.596053
O11   O     O_R   0.563610 0.036950 0.100570 -0.594190
O12   O     O_R   0.970940 0.028540 0.573320 -0.623512
O13   O     O_R   0.566140 0.028510 0.963710 -0.621201
O14   O     O_R   0.564790 0.102420 0.036290 -0.623941
O15   O     O_R   0.436390 0.963050 0.899430 -0.613914
O16   O     O_R   0.435040 0.036960 0.972010 -0.616882
O17   O     O_R   0.044860 0.102460 0.573320 -0.622073
O18   O     O_R   0.981770 0.037000 0.444750 -0.597982
O19   O     O_R   0.907850 0.963080 0.444760 -0.594272
O20   O     O_R   0.047250 0.971540 0.444760 -0.622675
O21   O     O_R   0.973330 0.897620 0.444760 -0.614979
O22   O     O_R   0.110330 0.036990 0.573320 -0.618853
O23   O     O_R   0.036420 0.963070 0.573330 -0.620561
O24   O     O_R   0.035090 0.565450 0.100560 -0.626165
Zn1   Zn    Zn3+2 0.500900 0.950650 0.951540 0.954906
Zn2   Zn    Zn3+2 0.499100 0.049350 0.048460 0.960924
Zn3   Zn    Zn3+2 0.058450 0.049390 0.509040 0.957645
Zn4   Zn    Zn3+2 0.959740 0.950680 0.509040 0.969137
Zn5   Zn    Zn3+2 0.048460 0.499980 0.048450 0.963616
Zn6   Zn    Zn3+2 0.951540 0.499990 0.951520 1.001783

loop_
_geom_bond_atom_site_label_1
_geom_bond_atom_site_label_2
_ccdc_geom_bond_type
C66   C68   A    
C63   C65   A    
C22   C29   A    
C5    H25   S    
C27   C29   A    
O7    Zn6   S    
C73   C74   A    
C35   C36   A    
C15   C80   S    
C83   H39   S    
C77   H31   S    
C33   H5    S    
O15   Zn1   S    
O3    Zn5   S    
C1    O4    A    
O16   Zn2   S    
C73   H21   S    
C54   C60   A    
C19   H45   S    
C48   H8    S    
C29   C36   S    
C3    C43   S    
C26   C27   A    
C1    O1    A    
C14   C21   S    
C83   H40   S    
C13   H23   S    
C30   C31   A    
C2    H24   S    
C7    C86   A    
O14   Zn2   S    
C68   C74   S    
C79   H29   S    
C22   H51   S    
C16   C25   S    
O6    Zn5   S    
O12   Zn4   S    
C18   C19   A    
C86   H22   S    
O21   Zn4   S    
C59   Cl2   S    
C28   O15   A    
C11   C77   S    
C33   C35   A    
C34   H2    S    
C17   H34   S    
C38   O19   A    
C72   H19   S    
C45   C56   A    
O13   Zn1   S    
C8    C9    A    
C41   O23   A    
C16   O14   A    
O18   Zn3   S    
C70   C71   A    
C70   C84   S    
C9    C10   A    
C44   C57   S    
C47   C53   A    
C46   O9    A    
C84   H49   S    
C59   C60   A    
C13   C14   A    
C54   H11   S    
O22   Zn3   S    
C61   C62   A    
C67   C78   A    
C66   H17   S    
C65   H16   S    
C53   C60   S    
C61   Cl3   S    
C50   C51   A    
C62   H15   S    
C77   C79   S    
O8    Zn5   S    
C51   H10   S    
C4    O10   A    
C4    O11   A    
C50   H9    S    
C31   Cl1   S    
C81   H35   S    
C4    C40   S    
C27   H3    S    
C43   O5    A    
C84   C85   S    
C83   H41   S    
C52   C64   S    
C18   C41   S    
C72   C73   A    
C58   C59   A    
C40   C52   T    
C82   C83   S    
O9    Zn6   S    
C79   H30   S    
C55   C82   S    
C75   C76   S    
C62   C63   A    
C43   O3    A    
C37   C49   S    
C47   C48   A    
C24   H52   S    
C47   H7    S    
C23   C34   A    
C16   O13   A    
C28   O16   A    
C17   C18   A    
C23   H1    S    
C69   C74   A    
C34   C45   A    
C24   C25   A    
C39   O20   A    
O1    Zn1   S    
O24   Zn5   S    
C85   H46   S    
C7    C78   S    
O19   Zn4   S    
C48   C49   A    
C46   O8    A    
C84   H48   S    
C65   C66   A    
C55   C57   A    
O11   Zn2   S    
C42   O2    A    
C22   C24   A    
C82   H43   S    
O10   Zn1   S    
O5    Zn6   S    
C20   H50   S    
C10   C28   S    
O23   Zn4   S    
C15   C17   A    
O4    Zn2   S    
C54   C55   A    
C8    C14   A    
O17   Zn3   S    
C81   H36   S    
C32   C46   S    
C37   O12   A    
C31   C32   A    
C67   H20   S    
C80   C81   S    
C3    C5    A    
C6    C7    A    
C80   H38   S    
C35   H6    S    
C30   H4    S    
C56   C67   A    
C39   C63   S    
O2    Zn6   S    
C44   O7    A    
C30   C36   A    
C81   H33   S    
C32   C33   A    
C37   O17   A    
C19   C20   A    
C12   C76   T    
C2    C3    A    
C25   C26   A    
C56   H13   S    
C71   C72   A    
C11   C13   A    
C61   C68   A    
C1    C45   S    
C57   C58   A    
C5    C6    A    
O20   Zn3   S    
C80   H37   S    
C79   H28   S    
C42   C71   S    
C44   O6    A    
C64   C75   T    
C2    C86   A    
C23   C78   A    
C12   C38   S    
C69   C70   A    
C6    H26   S    
C77   H32   S    
C10   C11   A    
C8    H27   S    
C85   H47   S    
C38   O18   A    
C15   C21   A    
C20   C21   A    
C9    H12   S    
C49   C50   A    
C41   O22   A    
C58   H14   S    
C51   C53   A    
C82   H42   S    
C26   H53   S    
C39   O21   A    
C69   H18   S    
C42   O24   A    
C85   H44   S    
