data_mof_unit_34590.cif
_audit_creation_date              2013-03-05T15:52:02-0500
_audit_creation_method            fapswitch 2.2
_symmetry_space_group_name_H-M    P1
_symmetry_Int_Tables_number       1
_space_group_crystal_system       triclinic
_cell_length_a                    12.120813
_cell_length_b                    12.885183
_cell_length_c                    27.22667
_cell_angle_alpha                 91.223438
_cell_angle_beta                  90.989714
_cell_angle_gamma                 93.42944
_cell_volume                      4242.91561167

loop_
_atom_site_label
_atom_site_type_symbol
_atom_site_description
_atom_site_fract_x
_atom_site_fract_y
_atom_site_fract_z
_atom_type_partial_charge
O1    O     O_R   0.421700 0.658820 0.502400 -0.617323
O2    O     O_R   0.578300 0.341180 0.497600 -0.617434
O3    O     O_R   0.609310 0.646410 0.496630 -0.630083
O4    O     O_R   0.390690 0.353590 0.503370 -0.642065
C1    C     C_R   0.521913 0.699977 0.500065 0.901550
C2    C     C_R   0.478262 0.300004 0.500719 0.910059
O5    O     O_R   0.406200 0.506190 0.574130 -0.615011
O6    O     O_R   0.593800 0.493810 0.425870 -0.615312
O7    O     O_R   0.593820 0.493770 0.568360 -0.638987
O8    O     O_R   0.406180 0.506230 0.431640 -0.635018
C3    C     C_R   0.504085 0.497289 0.593996 0.867320
C4    C     C_R   0.496057 0.501786 0.406087 0.865151
Zn1   Zn    Zn3+2 0.374730 0.508290 0.503850 0.950094
Zn2   Zn    Zn3+2 0.625270 0.491710 0.496150 0.952990
C5    C     C_R   0.617432 0.517091 0.824416 0.507857
C6    C     C_R   0.401030 0.422614 0.175399 0.498379
O9    O     O_2   0.658216 0.601431 0.800752 -0.586216
O10   O     O_2   0.336222 0.356009 0.201363 -0.591026
N1    N     N_R   0.555801 0.441573 0.798755 -0.350987
N2    N     N_R   0.450290 0.508055 0.198956 -0.344219
C7    C     C_R   0.508895 0.355993 0.820727 0.490433
C8    C     C_R   0.497680 0.589348 0.174076 0.495520
C9    C     C_R   0.453816 0.511294 0.729753 -0.100691
C10   C     C_R   0.404770 0.577069 0.280331 -0.096199
C11   C     C_R   0.440831 0.525635 0.679440 -0.212293
C12   C     C_R   0.417573 0.576293 0.331201 -0.219183
C13   C     C_R   0.598837 0.422474 0.664686 -0.223993
C14   C     C_R   0.544671 0.438218 0.323740 -0.222945
C15   C     C_R   0.611572 0.408285 0.714756 -0.117140
C16   C     C_R   0.531496 0.438740 0.272983 -0.117616
C17   C     C_R   0.539624 0.453111 0.747263 0.335147
C18   C     C_R   0.461144 0.507665 0.251235 0.321709
C19   C     C_R   0.566858 0.433015 0.899340 -0.123406
C20   C     C_R   0.469700 0.488440 0.098548 -0.104628
C21   C     C_R   0.631205 0.510218 0.875505 -0.059587
C22   C     C_R   0.416075 0.406478 0.124624 -0.080936
C23   C     C_R   0.708647 0.574414 0.903656 0.171791
C24   C     C_R   0.376303 0.314448 0.098466 0.075779
C25   C     C_R   0.515718 0.347757 0.872198 -0.045992
C26   C     C_R   0.501512 0.584608 0.122533 -0.038488
C27   C     C_R   0.514497 0.482478 0.646774 -0.036317
C28   C     C_R   0.486444 0.505914 0.352967 -0.030170
H1    H     H_    0.654189 0.385426 0.639983 0.159212
H2    H     H_    0.598347 0.383812 0.340224 0.152568
H3    H     H_    0.677468 0.362906 0.728412 0.134878
H4    H     H_    0.576028 0.385795 0.250385 0.133396
C29   C     C_R   0.557383 0.551163 0.023845 0.038982
C30   C     C_R   0.485285 0.365600 0.974014 0.032341
C31   C     C_R   0.452966 0.382334 0.023068 -0.009472
C32   C     C_R   0.597775 0.531138 0.976276 -0.023082
C33   C     C_R   0.494744 0.473114 0.048564 0.043980
C34   C     C_R   0.551017 0.442758 0.950144 0.044018
C35   C     C_R   0.564280 0.651356 0.044775 -0.266085
C36   C     C_R   0.461830 0.270218 0.949116 -0.242199
C37   C     C_R   0.538638 0.669970 0.093812 0.122505
C38   C     C_R   0.472870 0.260365 0.898250 0.119558
O11   O     O_2   0.545992 0.671078 0.199622 -0.577442
O12   O     O_2   0.450915 0.283554 0.792819 -0.573349
C39   C     C_R   0.688949 0.589634 0.954870 0.043811
C40   C     C_R   0.372579 0.316922 0.046739 0.072143
H5    H     H_    0.374386 0.630736 0.353537 0.154114
H6    H     H_    0.374909 0.571452 0.666156 0.154961
H7    H     H_    0.351246 0.631107 0.263531 0.144134
H8    H     H_    0.398138 0.545900 0.755178 0.131806
H9    H     H_    0.584781 0.716482 0.022014 0.155489
H10   H     H_    0.437458 0.201729 0.969334 0.138374
C41   C     C_R   0.465944 0.188568 0.502689 -0.170095
C42   C     C_R   0.535274 0.811508 0.501650 -0.147843
C43   C     C_R   0.650043 0.969358 0.495110 0.422085
C44   C     C_R   0.353105 0.031222 0.514421 0.466869
C45   C     C_R   0.638810 0.861796 0.495355 -0.294199
C46   C     C_R   0.363244 0.138533 0.511245 -0.253306
C47   C     C_R   0.442082 0.867299 0.509356 -0.177447
C48   C     C_R   0.559987 0.132816 0.497310 -0.183135
C49   C     C_R   0.448892 0.974407 0.508433 -0.027514
C50   C     C_R   0.553979 0.026042 0.500422 -0.007541
H11   H     H_    0.638147 0.173668 0.490245 0.237659
H12   H     H_    0.363497 0.826075 0.515159 0.234971
H13   H     H_    0.291251 0.183405 0.515684 0.221718
H14   H     H_    0.710524 0.816927 0.490114 0.200577
N3    N     N_R   0.207800 0.519340 0.508990 -0.122946
N4    N     N_R   0.792200 0.480660 0.491010 -0.116386
C51   C     C_R   0.943407 0.419652 0.446268 -0.289322
C52   C     C_R   0.056166 0.590789 0.549029 -0.294846
C53   C     C_R   0.830429 0.428270 0.451853 0.042938
C54   C     C_R   0.169216 0.582824 0.544062 0.045401
C55   C     C_R   0.864969 0.526344 0.526246 0.194368
C56   C     C_R   0.136793 0.466633 0.475178 0.196229
C57   C     C_R   0.980264 0.531874 0.517943 0.044798
C58   C     C_R   0.020547 0.473058 0.478955 0.064484
H15   H     H_    0.226611 0.626840 0.568543 0.153024
H16   H     H_    0.772736 0.389811 0.425649 0.149899
H17   H     H_    0.967742 0.371345 0.415972 0.171297
H18   H     H_    0.029408 0.643020 0.577435 0.172458
S1    S     S_3+6 0.784886 0.028514 0.487728 0.021567
O13   O     O_2   0.788366 0.086173 0.440324 -0.269381
O14   O     O_2   0.812431 0.104313 0.529529 -0.321157
O15   O     O_3   0.880379 0.938959 0.486196 -0.492255
H19   H     H_    0.886253 0.914759 0.520388 0.343914
S2    S     S_3+6 0.219877 0.972538 0.525963 0.012352
O16   O     O_2   0.183314 0.901808 0.483388 -0.276292
O17   O     O_2   0.225332 0.910010 0.571855 -0.342035
O18   O     O_3   0.127280 0.063593 0.533387 -0.520484
H20   H     H_    0.062117 0.026658 0.547914 0.407187
C59   C     C_3   0.180796 0.399056 0.434605 -0.394707
C60   C     C_3   0.174911 0.450988 0.384337 -0.387148
C61   C     C_3   0.213545 0.379364 0.343538 -0.783137
H21   H     H_    0.298815 0.356564 0.351470 0.264189
H22   H     H_    0.157351 0.308165 0.340125 0.264450
H23   H     H_    0.212789 0.420119 0.308022 0.267572
H24   H     H_    0.089815 0.471949 0.375046 0.222767
H25   H     H_    0.226859 0.524651 0.385418 0.248628
H26   H     H_    0.265669 0.380136 0.442168 0.260252
H27   H     H_    0.134836 0.321804 0.433436 0.200106
C62   C     C_3   0.828942 0.547240 0.578488 -0.381274
C63   C     C_3   0.792052 0.657934 0.587449 -0.345260
C64   C     C_3   0.785433 0.683682 0.642268 -0.846293
H28   H     H_    0.726716 0.627401 0.660093 0.279475
H29   H     H_    0.868239 0.681344 0.660198 0.262951
H30   H     H_    0.755918 0.763044 0.647474 0.259424
H31   H     H_    0.850781 0.715657 0.570516 0.216861
H32   H     H_    0.709623 0.666238 0.571021 0.261640
H33   H     H_    0.769417 0.485689 0.589843 0.221273
H34   H     H_    0.897477 0.533684 0.604750 0.178532
C65   C     C_3   0.823143 0.601209 0.882375 -0.377559
C66   C     C_3   0.900589 0.511584 0.888083 -0.396202
C67   C     C_3   0.874585 0.421893 0.851249 -0.804171
H35   H     H_    0.795286 0.379397 0.859929 0.254312
H36   H     H_    0.870383 0.451074 0.813207 0.262506
H37   H     H_    0.940838 0.366149 0.853341 0.240278
H38   H     H_    0.986883 0.542417 0.882212 0.213395
H39   H     H_    0.896780 0.481168 0.925923 0.219140
H40   H     H_    0.820826 0.623364 0.843527 0.252123
H41   H     H_    0.864128 0.670930 0.900460 0.174271
C68   C     C_3   0.343229 0.213320 0.124309 -0.342488
C69   C     C_3   0.372152 0.114180 0.095849 -0.420128
C70   C     C_3   0.353685 0.017923 0.127117 -0.864858
H42   H     H_    0.411437 0.022009 0.159320 0.269047
H43   H     H_    0.267205 0.011278 0.140084 0.270133
H44   H     H_    0.368626 0.947356 0.104763 0.242900
H45   H     H_    0.319667 0.102143 0.062284 0.223440
H46   H     H_    0.460186 0.121061 0.084857 0.228583
H47   H     H_    0.390670 0.210875 0.159413 0.252974
H48   H     H_    0.253478 0.210336 0.132218 0.217150
C71   C     C_3   0.542928 0.782493 0.111537 -0.375325
C72   C     C_3   0.661730 0.823192 0.124215 -0.296765
C73   C     C_3   0.665240 0.936278 0.142287 -0.858945
H49   H     H_    0.631452 0.986145 0.113551 0.253473
H50   H     H_    0.616185 0.943355 0.176156 0.277244
H51   H     H_    0.752089 0.964072 0.150778 0.252269
H52   H     H_    0.697727 0.775295 0.153157 0.265914
H53   H     H_    0.713715 0.817928 0.091139 0.205374
H54   H     H_    0.509763 0.830503 0.081855 0.169315
H55   H     H_    0.487517 0.793740 0.142959 0.238125
C74   C     C_3   0.443063 0.154247 0.875015 -0.362127
C75   C     C_3   0.317853 0.138452 0.865916 -0.305800
C76   C     C_3   0.287500 0.033468 0.840756 -0.847479
H56   H     H_    0.327624 0.028803 0.804464 0.283066
H57   H     H_    0.314178 0.969317 0.863958 0.250958
H58   H     H_    0.196510 0.023950 0.834993 0.248372
H59   H     H_    0.274594 0.142046 0.901542 0.199419
H60   H     H_    0.288272 0.201101 0.842535 0.262318
H61   H     H_    0.489512 0.141425 0.840922 0.242023
H62   H     H_    0.469820 0.093120 0.900116 0.169126
C77   C     C_3   0.776799 0.650525 0.987092 -0.413231
C78   C     C_3   0.784606 0.768860 0.977830 -0.357978
C79   C     C_3   0.898976 0.817565 0.991966 -0.893252
H63   H     H_    0.917672 0.804230 0.031342 0.264012
H64   H     H_    0.963207 0.783572 0.969016 0.257509
H65   H     H_    0.901308 0.902662 0.986047 0.253096
H66   H     H_    0.766122 0.785745 0.938844 0.226843
H67   H     H_    0.724012 0.809548 0.999861 0.209359
H68   H     H_    0.765544 0.637492 0.026810 0.203867
H69   H     H_    0.857856 0.617663 0.980407 0.203994
C80   C     C_3   0.265242 0.276400 0.020404 -0.420857
C81   C     C_3   0.210835 0.362144 0.991901 -0.321001
C82   C     C_3   0.100693 0.322023 0.968515 -0.902762
H70   H     H_    0.113152 0.256060 0.942661 0.261108
H71   H     H_    0.041883 0.296118 0.997254 0.264300
H72   H     H_    0.064487 0.385268 0.947725 0.249188
H73   H     H_    0.196432 0.428531 0.017281 0.223288
H74   H     H_    0.265402 0.390929 0.962178 0.233105
H75   H     H_    0.276529 0.208886 0.995744 0.182385
H76   H     H_    0.204416 0.247773 0.047835 0.208555

loop_
_geom_bond_atom_site_label_1
_geom_bond_atom_site_label_2
_geom_bond_distance
_ccdc_geom_bond_type
C65   H41   1.102533 S    
O5    Zn1   1.945738 S    
C78   H67   1.105407 S    
C77   C78   1.548364 S    
C13   C15   1.386541 A    
C47   C49   1.378426 A    
S1    O13   1.502880 D    
C49   C50   1.423752 A    
N1    C17   1.424386 S    
C8    O11   1.347817 S    
C67   H36   1.110798 S    
C71   C72   1.533775 S    
S1    O15   1.682977 S    
C68   C69   1.541380 S    
C79   H64   1.111002 S    
C60   H25   1.106761 S    
C19   C34   1.403768 A    
C5    N1    1.363437 A    
C70   H43   1.110869 S    
C20   C33   1.411805 A    
C66   C67   1.528638 S    
C31   C40   1.421886 A    
C63   H32   1.099600 S    
O1    C1    1.299128 A    
C32   C39   1.438890 A    
C59   H26   1.088549 S    
C75   C76   1.525349 S    
N1    C7    1.364558 A    
C12   H5    1.082919 S    
C10   C12   1.391329 A    
C52   H18   1.081133 S    
C46   H13   1.082304 S    
C54   H15   1.081904 S    
C64   H29   1.110805 S    
C37   C71   1.515908 S    
C60   C61   1.526697 S    
C77   H68   1.107419 S    
C62   C63   1.535914 S    
C51   H17   1.078563 S    
Zn1   N3    2.043798 S    
C63   C64   1.526556 S    
C43   C50   1.418878 A    
C41   C46   1.392798 A    
C14   C28   1.398423 A    
O4    Zn1   2.013975 S    
C43   C45   1.384668 A    
C4    C28   1.451317 S    
O18   H20   0.990259 S    
C76   H56   1.110895 S    
C43   S1    1.778069 S    
C73   H49   1.111125 S    
C21   C23   1.417029 A    
C82   H71   1.110744 S    
C48   H11   1.078211 S    
C69   H46   1.112142 S    
C47   H12   1.078261 S    
C79   H65   1.110425 S    
C35   H9    1.073573 S    
C55   C62   1.518393 S    
N3    C54   1.351860 A    
C39   C77   1.535391 S    
C6    N2    1.363033 A    
C29   C35   1.397297 A    
C71   H54   1.112319 S    
C26   C37   1.418961 A    
C68   H47   1.108874 S    
C70   H42   1.110822 S    
C75   H60   1.110921 S    
C78   H66   1.109837 S    
C76   H57   1.110906 S    
C61   H22   1.110681 S    
O2    C2    1.299033 A    
C38   C74   1.515399 S    
C5    C21   1.403409 A    
C45   H14   1.082153 S    
C53   H16   1.081573 S    
C44   S2    1.777580 S    
O5    C3    1.307725 A    
C29   C32   1.416489 A    
C23   C65   1.536180 S    
C60   H24   1.108163 S    
C35   C37   1.395090 A    
C81   H73   1.111989 S    
C70   H44   1.108997 S    
C36   C38   1.397492 A    
C62   H33   1.093081 S    
C63   H31   1.111358 S    
C9    H8    1.082796 S    
C59   H27   1.110793 S    
C73   H51   1.110315 S    
O4    C2    1.302616 A    
C64   H30   1.110453 S    
C11   C27   1.401156 A    
C79   H63   1.111027 S    
C41   C48   1.391430 A    
C29   C33   1.412786 A    
C31   C33   1.410265 A    
C42   C47   1.391273 A    
C14   H2    1.083538 S    
S2    O18   1.682956 S    
C15   H3    1.083038 S    
C9    C17   1.400892 A    
C30   C36   1.402411 A    
O7    Zn2   2.009026 S    
C10   C18   1.398480 A    
C69   H45   1.107242 S    
C13   C27   1.405020 A    
C32   C34   1.413703 A    
C80   C81   1.537478 S    
C7    C25   1.409041 A    
C66   H39   1.110787 S    
O6    C4    1.303503 A    
C82   H72   1.109500 S    
C8    C26   1.405041 A    
S2    O17   1.503728 D    
C25   C38   1.420470 A    
C19   C25   1.416053 A    
C24   C68   1.529747 S    
O7    C3    1.304999 A    
C23   C39   1.430090 A    
O3    Zn2   2.013975 S    
O8    C4    1.306144 A    
C72   H53   1.111177 S    
C71   H55   1.109132 S    
C20   C26   1.417808 A    
C81   C82   1.526079 S    
C51   C53   1.391170 A    
N2    C8    1.363012 A    
C75   H59   1.111956 S    
C82   H70   1.110950 S    
C76   H58   1.110405 S    
C55   C57   1.417317 A    
C78   C79   1.526711 S    
C61   H23   1.110355 S    
C24   C40   1.409416 A    
O1    Zn1   1.989896 S    
C52   C57   1.414610 A    
C48   C50   1.377869 A    
C61   H21   1.110162 S    
C67   H35   1.109037 S    
C1    C42   1.436174 S    
C44   C49   1.419009 A    
C12   C28   1.402447 A    
C80   H75   1.103968 S    
C72   C73   1.525901 S    
N2    C18   1.427332 S    
C65   H40   1.101760 S    
C5    O9    1.348003 S    
C51   C58   1.417001 A    
C68   H48   1.111180 S    
O6    Zn2   1.945743 S    
C62   H34   1.110858 S    
C73   H50   1.110878 S    
C16   H4    1.083013 S    
C56   C58   1.421723 A    
C69   C70   1.526967 S    
O3    C1    1.302093 A    
O8    Zn1   2.009031 S    
S1    O14   1.503674 D    
C36   H10   1.078999 S    
C74   H62   1.112877 S    
C10   H7    1.082732 S    
N4    C53   1.353050 A    
C59   C60   1.538654 S    
C74   H61   1.108388 S    
C22   C24   1.424588 A    
C77   H69   1.109197 S    
C67   H37   1.110500 S    
C7    O12   1.347300 S    
C15   C17   1.393742 A    
C2    C41   1.436942 S    
C64   H28   1.110470 S    
C6    C22   1.410180 A    
C16   C18   1.400762 A    
C56   C59   1.515856 S    
C65   C66   1.539898 S    
C66   H38   1.111827 S    
C42   C45   1.392481 A    
C30   C31   1.414079 A    
C14   C16   1.388589 A    
S2    O16   1.503182 D    
C19   C21   1.404007 A    
C3    C27   1.457908 S    
C20   C22   1.416921 A    
C11   H6    1.083211 S    
C9    C11   1.393648 A    
O2    Zn2   1.989896 S    
N3    C56   1.387596 A    
C81   H74   1.109888 S    
C72   H52   1.110545 S    
C13   H1    1.081932 S    
C30   C34   1.412893 A    
C6    O10   1.348243 S    
O15   H19   0.990807 S    
C74   C75   1.534263 S    
C40   C80   1.532933 S    
Zn2   N4    2.043798 S    
C52   C54   1.388902 A    
C44   C46   1.385514 A    
C57   C58   1.402631 A    
N4    C55   1.389022 A    
C80   H76   1.111608 S    
