data_mof_unit_11142.cif
_audit_creation_date              2012-12-11T18:06:51-0500
_audit_creation_method            fapswitch 2.2
_symmetry_space_group_name_H-M    P1
_symmetry_Int_Tables_number       1
_space_group_crystal_system       triclinic
_cell_length_a                    8.307559
_cell_length_b                    12.601605
_cell_length_c                    27.019646
_cell_angle_alpha                 96.090721
_cell_angle_beta                  93.030655
_cell_angle_gamma                 81.303926
_cell_volume                      2778.39480839

loop_
_atom_site_label
_atom_site_type_symbol
_atom_type_description
_atom_site_fract_x
_atom_site_fract_y
_atom_site_fract_z
_atom_type_partial_charge
Ba1   Ba    Ba6+2 0.859560 0.448380 0.523550 1.663899
Ba2   Ba    Ba6+2 0.330270 0.551530 0.476440 1.674945
C1    C     C_3   0.773151 0.053289 0.656896 -0.368833
C2    C     C_R   0.909063 0.602967 0.180484 0.573083
C3    C     C_2   0.754030 0.564197 0.273745 -0.095428
C4    C     C_3   0.226736 0.177453 0.657324 0.358570
C5    C     C_3   0.733834 0.599803 0.328748 -0.111388
C6    C     C_1   0.993584 0.484447 0.342869 0.022814
C7    C     C_2   0.023041 0.467200 0.294503 -0.112549
C8    C     C_2   0.898060 0.511521 0.256775 0.208443
C9    C     C_R   0.021059 0.506790 0.103749 -0.080902
C10   C     C_R   0.042977 0.410721 0.127319 -0.033996
C11   C     C_R   0.099772 0.313802 0.099225 -0.060568
C12   C     C_3   0.720092 0.162126 0.636884 0.365998
C13   C     C_R   0.947725 0.602383 0.130092 -0.024589
C14   C     C_2   0.875541 0.557171 0.361170 -0.210657
C15   C     C_2   0.351263 0.480115 0.642710 -0.241759
C16   C     C_3   0.332602 0.090705 0.684743 -0.372046
C17   C     C_R   0.200527 0.409498 0.978502 -0.011211
C18   C     C_R   0.087298 0.602780 0.978759 0.046595
C19   C     C_R   0.159201 0.503517 0.952839 -0.003198
C20   C     C_R   0.306145 0.320852 0.954714 0.097482
C21   C     C_R   0.331744 0.314797 0.903351 0.184618
C22   C     C_R   0.271911 0.402767 0.875704 -0.041845
C23   C     C_3   0.569140 0.699378 0.635417 0.285065
C24   C     C_R   0.196127 0.499202 0.901299 -0.122172
C25   C     C_R   0.159995 0.591994 0.875521 -0.040441
C26   C     C_R   0.191907 0.586801 0.824124 0.599377
C27   C     C_R   0.295986 0.399042 0.823707 0.600471
C28   C     C_3   0.224533 0.221386 0.416885 0.271597
C29   C     C_2   0.438849 0.433683 0.728315 -0.092739
C30   C     C_3   0.455340 0.401297 0.673206 -0.046499
C31   C     C_1   0.208606 0.528279 0.659258 0.004275
C32   C     C_2   0.170127 0.532165 0.707038 -0.121233
C33   C     C_2   0.294189 0.486056 0.745314 0.198680
C34   C     C_3   0.667189 0.733292 0.682069 -0.325609
C35   C     C_R   0.142129 0.409344 0.027423 0.026020
C36   C     C_R   0.068818 0.506769 0.053395 0.043263
C37   C     C_R   0.037495 0.603100 0.029099 0.029665
C38   C     C_R   0.142363 0.312985 0.049968 -0.111905
C39   C     C_R   0.908534 0.694910 0.104948 -0.075371
C40   C     C_3   0.274125 0.101575 0.401591 -0.378924
C41   C     C_R   0.076322 0.697891 0.953416 0.117326
C42   C     C_R   0.103246 0.690302 0.902347 -0.082162
C43   C     C_R   0.945834 0.693838 0.055229 -0.085993
C44   C     C_R   0.793672 0.827467 0.501009 -0.092426
C45   C     C_3   0.911559 0.820684 0.351465 0.296793
C46   C     C_R   0.433507 0.189553 0.520180 -0.289714
C47   C     C_R   0.414717 0.009898 0.539683 -0.094978
C48   C     C_R   0.348748 0.117661 0.539667 -0.005098
C49   C     C_R   0.576629 0.152578 0.494995 0.041374
C50   C     C_R   0.644291 0.041538 0.493183 -0.064316
C51   C     C_R   0.564061 0.970299 0.517367 -0.070618
C52   C     C_3   0.144354 0.785579 0.623577 0.212686
C53   C     C_R   0.635023 0.861393 0.518503 0.040648
C54   C     C_R   0.864954 0.893987 0.473153 0.021142
C55   C     C_R   0.788359 0.999036 0.468010 -0.103868
C56   C     C_3   0.845519 0.881928 0.307508 -0.352304
C57   C     C_3   0.181486 0.816169 0.678608 -0.376283
C58   C     C_3   0.797600 0.234517 0.376203 0.367930
C59   C     C_3   0.780073 0.222539 0.319560 -0.366484
C60   C     C_3   0.122881 0.255131 0.693907 -0.274731
C61   C     C_3   0.341440 0.690468 0.304276 0.264619
C62   C     C_3   0.227321 0.699375 0.258656 -0.353115
C63   C     C_R   0.000298 0.412814 0.177655 0.593891
H1    H     H_    0.782362 0.162243 0.601506 0.093617
H2    H     H_    0.891171 0.167925 0.387379 0.009129
H3    H     H_    0.835948 0.313812 0.388429 0.033278
H4    H     H_    0.740229 0.987741 0.629145 0.073968
H5    H     H_    0.737058 0.145031 0.306245 0.109577
H6    H     H_    0.899775 0.224102 0.303418 0.109090
H7    H     H_    0.691475 0.289217 0.306143 0.141006
H8    H     H_    0.586397 0.171091 0.629136 -0.077651
H9    H     H_    0.711696 0.050028 0.692074 0.117144
H10   H     H_    0.462889 0.668056 0.647935 -0.054005
H11   H     H_    0.639206 0.632335 0.612884 0.103353
H12   H     H_    0.368597 0.090003 0.373141 0.125397
H13   H     H_    0.588082 0.791475 0.707404 0.100395
H14   H     H_    0.715700 0.662012 0.702015 0.109944
H15   H     H_    0.769754 0.772873 0.672222 0.145048
H16   H     H_    0.906866 0.040094 0.664347 0.147003
H17   H     H_    0.420122 0.127843 0.711160 0.120939
H18   H     H_    0.967393 0.738552 0.337265 0.040488
H19   H     H_    0.806077 0.815660 0.374513 -0.058245
H20   H     H_    0.946077 0.891083 0.283571 0.138354
H21   H     H_    0.756424 0.837546 0.285107 0.119410
H22   H     H_    0.782920 0.962848 0.321330 0.097190
H23   H     H_    0.324179 0.059526 0.434212 0.088519
H24   H     H_    0.453525 0.722648 0.295835 -0.034432
H25   H     H_    0.283235 0.741015 0.336542 0.079470
H26   H     H_    0.283887 0.648736 0.226141 0.117525
H27   H     H_    0.201653 0.784516 0.249904 0.092679
H28   H     H_    0.111508 0.671531 0.265835 0.139060
H29   H     H_    0.142540 0.429106 0.282494 0.125730
H30   H     H_    0.107966 0.237391 0.114865 0.122049
H31   H     H_    0.534216 0.401195 0.753922 0.117439
H32   H     H_    0.169573 0.234929 0.029469 0.077952
H33   H     H_    0.658829 0.594823 0.247669 0.100657
H34   H     H_    0.166846 0.064914 0.385845 0.147963
H35   H     H_    0.842500 0.768177 0.123161 0.122655
H36   H     H_    0.309917 0.224127 0.640684 -0.034674
H37   H     H_    0.087565 0.764164 0.884251 0.120642
H38   H     H_    0.048835 0.567762 0.718398 0.118511
H39   H     H_    0.892712 0.764357 0.037912 0.113167
H40   H     H_    0.876244 0.588552 0.400105 0.096381
H41   H     H_    0.391878 0.492153 0.606424 0.059610
H42   H     H_    0.347323 0.958846 0.557559 0.092650
H43   H     H_    0.845001 0.046486 0.445025 0.086083
H44   H     H_    0.381404 0.273834 0.521571 0.064454
H45   H     H_    0.113030 0.861064 0.605100 0.063132
H46   H     H_    0.255644 0.048156 0.705953 0.122078
H47   H     H_    0.402346 0.031196 0.657575 0.105464
H48   H     H_    0.334307 0.257182 0.430066 0.040797
H49   H     H_    0.136853 0.231269 0.447232 0.049317
H50   H     H_    0.049353 0.318995 0.673734 0.145238
H51   H     H_    0.042115 0.211918 0.713366 0.148850
H52   H     H_    0.201429 0.293713 0.722015 0.109040
H53   H     H_    0.546691 0.213752 0.896936 0.194847
H54   H     H_    0.377534 0.152808 0.885596 0.179221
H55   H     H_    0.436067 0.277874 0.019006 0.191171
H56   H     H_    0.250485 0.739348 0.604881 0.072828
H57   H     H_    0.366902 0.172811 0.981061 0.169032
H58   H     H_    0.955515 0.849958 0.963389 0.169822
H59   H     H_    0.159356 0.839355 0.974544 0.179631
H60   H     H_    0.849012 0.705814 0.545048 0.202090
H61   H     H_    0.004309 0.739018 0.521755 0.196400
H62   H     H_    0.074674 0.868362 0.695572 0.124335
H63   H     H_    0.287629 0.860440 0.682672 0.107473
H64   H     H_    0.211384 0.743345 0.698810 0.122237
N1    N     N_R   0.936130 0.508731 0.204185 -0.423333
N2    N     N_R   0.258116 0.490687 0.798343 -0.426079
N3    N     N_3   0.429875 0.220848 0.880064 -0.432161
N4    N     N_3   0.412972 0.245805 0.982508 -0.519456
N5    N     N_3   0.056169 0.803823 0.979477 -0.517142
N6    N     N_3   0.885328 0.725859 0.511661 -0.436840
O1    O     O_2   0.907040 0.557650 0.617910 -0.459551
O2    O     O_2   0.203115 0.883146 0.460665 -0.476212
O3    O     O_3   0.032214 0.873346 0.377687 -0.615946
O4    O     O_3   0.139040 0.557570 0.557730 -0.476089
O5    O     O_3   0.571310 0.369620 0.475470 -0.445141
O6    O     O_2   0.348200 0.764910 0.523260 -0.472440
O7    O     O_3   0.516133 0.790525 0.609814 -0.673172
O8    O     O_2   0.576273 0.447620 0.364787 -0.461830
O9    O     O_3   0.372977 0.582017 0.314655 -0.580215
O10   O     O_2   0.018666 0.328949 0.197578 -0.597810
O11   O     O_2   0.349728 0.313325 0.800883 -0.590998
O12   O     O_3   0.648039 0.228682 0.396685 -0.620548
O13   O     O_2   0.853136 0.688241 0.203436 -0.624379
O14   O     O_2   0.163171 0.668575 0.802646 -0.608394
O15   O     O_3   0.684960 0.360550 0.588460 -0.486711
O16   O     O_2   0.777407 0.452149 0.676882 -0.502662
O17   O     O_3   0.010376 0.729961 0.617675 -0.648913
O18   O     O_3   0.763028 0.244989 0.671988 -0.596626
O19   O     O_2   0.841490 0.235060 0.476710 -0.496806
O20   O     O_3   0.099640 0.305100 0.564190 -0.477523
O21   O     O_2   0.016508 0.113152 0.530168 -0.491452
O22   O     O_3   0.122206 0.127904 0.622440 -0.601361
O23   O     O_2   0.282660 0.442310 0.382060 -0.409144
O24   O     O_3   0.050670 0.442340 0.442260 -0.496691
O25   O     O_3   0.504750 0.639360 0.411530 -0.456974
O26   O     O_3   0.152948 0.270007 0.375418 -0.642967
O27   O     O_3   0.618400 0.630290 0.524520 -0.468955
O28   O     O_3   0.090070 0.694820 0.435810 -0.470479
P1    P     P_3+3 0.072810 0.589830 0.610360 0.965554
P2    P     P_3+3 0.661990 0.251250 0.462170 0.997354
P3    P     P_3+3 0.146210 0.165333 0.563151 0.949244
P4    P     P_3+3 0.116900 0.410080 0.389630 0.997235
P5    P     P_3+3 0.049881 0.836706 0.438543 0.968063
P6    P     P_3+3 0.670042 0.368892 0.652969 0.938661
P7    P     P_3+3 0.529578 0.762289 0.544851 0.927151
P8    P     P_3+3 0.546829 0.567190 0.353959 0.994903

loop_
_geom_bond_atom_site_label_1
_geom_bond_atom_site_label_2
_ccdc_geom_bond_type
C59   H5    S    
C30   P6    S    
C5    P8    S    
C41   N5    S    
O18   P6    S    
C23   O7    S    
C19   C24   A    
C56   H22   S    
C4    O22   S    
C63   N1    Am   
C47   H42   S    
C23   C34   S    
C60   H51   S    
Ba2   P4    S    
O9    P8    S    
C24   C25   A    
C11   H30   S    
Ba2   O4    S    
O4    P1    S    
C1    H4    S    
C16   H47   S    
C62   H28   S    
C32   C33   S    
C35   C38   A    
O1    P1    D    
C36   C37   A    
C3    H33   S    
O15   P6    S    
O20   P3    S    
C57   H62   S    
C29   H31   S    
C2    O13   D    
C54   C55   A    
C52   H45   S    
O3    P5    S    
H55   N4    S    
C4    H36   S    
Ba1   O20   S    
C1    H9    S    
C22   C27   A    
C11   C38   A    
O12   P2    S    
C44   N6    S    
C9    C13   A    
C25   C42   A    
C46   C49   A    
C29   C30   S    
C58   H2    S    
Ba2   O24   S    
C60   H52   S    
C44   C53   A    
C1    H16   S    
C61   O9    S    
O19   P2    D    
C58   O12   S    
C45   H18   S    
Ba1   O1    S    
C17   C35   A    
C7    C8    S    
C53   P7    S    
Ba1   O4    S    
C37   C43   A    
C59   H6    S    
C46   C48   A    
C46   H44   S    
C26   O14   D    
C6    C14   D    
C61   H24   S    
C15   C31   D    
C56   H21   S    
O23   P4    D    
C31   C32   D    
C52   C57   S    
C51   C53   A    
C4    C16   S    
H58   N5    S    
C49   C50   A    
C12   H8    S    
Ba1   O24   S    
C17   C20   A    
C16   H46   S    
Ba1   P1    S    
C28   O26   S    
C34   H15   S    
C27   O11   D    
C3    C5    S    
C18   C37   A    
C42   H37   S    
C6    C7    D    
C52   O17   S    
C20   N4    S    
C45   O3    S    
C57   H63   S    
C58   C59   S    
C23   H10   S    
O22   P3    S    
C9    C36   A    
C41   C42   A    
C8    N1    S    
H57   N4    S    
C48   P3    S    
C35   C36   A    
C43   H39   S    
C6    P4    S    
O27   P7    S    
O21   P3    D    
Ba2   O23   S    
C31   P1    S    
H54   N3    S    
C12   H1    S    
C39   H35   S    
Ba1   O15   S    
O17   P1    S    
C45   H19   S    
C18   C19   A    
C1    C12   S    
C13   C39   A    
O26   P4    S    
Ba1   O5    S    
C14   H40   S    
C40   H12   S    
C59   H7    S    
C5    C14   S    
C52   H56   S    
H61   N6    S    
C12   O18   S    
C29   C33   D    
C49   P2    S    
C40   H23   S    
C62   H27   S    
C63   O10   D    
C56   H20   S    
C33   N2    S    
C38   H32   S    
C18   C41   A    
C50   C51   A    
C28   H49   S    
O5    P2    S    
C15   C30   S    
C57   H64   S    
C17   C19   A    
Ba1   P2    S    
C22   C24   A    
C34   H14   S    
Ba2   O28   S    
Ba1   O27   S    
C2    N1    Am   
C9    C10   A    
C10   C63   A    
C32   H38   S    
O16   P6    D    
H59   N5    S    
C26   N2    Am   
Ba2   O5    S    
C4    C60   S    
C2    C13   A    
O28   P5    S    
O8    P8    D    
C3    C8    D    
C34   H13   S    
C40   H34   S    
C45   C56   S    
H60   N6    S    
C27   N2    Am   
C47   C51   A    
Ba1   Ba2   S    
C61   H25   S    
O6    P7    D    
C16   H17   S    
O25   P8    S    
O24   P4    S    
C21   N3    S    
Ba1   O19   S    
H53   N3    S    
C50   C55   A    
C21   C22   A    
C61   C62   S    
C60   H50   S    
C55   H43   S    
C10   C11   A    
C58   H3    S    
C23   H11   S    
Ba2   O25   S    
C47   C48   A    
C44   C54   A    
C54   P5    S    
Ba2   O6    S    
C39   C43   A    
C20   C21   A    
C28   C40   S    
C62   H26   S    
C15   H41   S    
C7    H29   S    
O2    P5    D    
O7    P7    S    
Ba2   O27   S    
C25   C26   A    
C28   H48   S    
