data_mof_unit_12913.cif
_audit_creation_date              2012-12-10T18:48:40-0500
_audit_creation_method            fapswitch 2.2
_symmetry_space_group_name_H-M    P1
_symmetry_Int_Tables_number       1
_space_group_crystal_system       triclinic
_cell_length_a                    15.456187
_cell_length_b                    14.731823
_cell_length_c                    9.987074
_cell_angle_alpha                 90.581319
_cell_angle_beta                  89.238532
_cell_angle_gamma                 90.283049
_cell_volume                      2273.69077249

loop_
_atom_site_label
_atom_site_type_symbol
_atom_type_description
_atom_site_fract_x
_atom_site_fract_y
_atom_site_fract_z
_atom_type_partial_charge
C1    C     C_R   0.120165 0.380807 0.498815 0.927258
C2    C     C_R   0.991195 0.420619 0.928154 0.424405
C3    C     C_R   0.991251 0.420669 0.069958 0.412585
C4    C     C_R   0.008749 0.579331 0.930042 0.412586
C5    C     C_R   0.508805 0.079381 0.071846 0.424405
C6    C     C_R   0.491195 0.920619 0.928154 0.424405
C7    C     C_R   0.491251 0.920669 0.069958 0.412585
C8    C     C_R   0.508749 0.079331 0.930042 0.412586
C9    C     C_R   0.833479 0.227190 0.451677 0.449669
C10   C     C_R   0.166521 0.772810 0.548323 0.449669
C11   C     C_R   0.268887 0.662561 0.447366 0.436698
C12   C     C_R   0.879835 0.619193 0.501185 0.927258
C13   C     C_R   0.731113 0.337439 0.552634 0.436698
C14   C     C_R   0.258737 0.328079 0.582804 0.306910
C15   C     C_R   0.741263 0.671921 0.417196 0.306910
C16   C     C_R   0.819916 0.759587 0.589059 0.421626
C17   C     C_R   0.180084 0.240412 0.410941 0.421627
C18   C     C_R   0.333479 0.727190 0.451677 0.449669
C19   C     C_R   0.666521 0.272810 0.548323 0.449669
C20   C     C_R   0.768887 0.162561 0.447366 0.436697
C21   C     C_R   0.231113 0.837439 0.552634 0.436698
C22   C     C_R   0.758737 0.828079 0.582804 0.306910
C23   C     C_R   0.879826 0.381178 0.500450 0.865974
C24   C     C_R   0.241263 0.171921 0.417196 0.306910
C25   C     C_R   0.319916 0.259588 0.589059 0.421627
C26   C     C_R   0.680084 0.740413 0.410940 0.421627
C27   C     C_R   0.185989 0.685518 0.497707 -0.440213
C28   C     C_R   0.814011 0.314482 0.502293 -0.440213
C29   C     C_R   0.811623 0.683627 0.504130 -0.321288
C30   C     C_R   0.188377 0.316373 0.495870 -0.321288
C31   C     C_R   0.685989 0.185518 0.497707 -0.440213
C32   C     C_R   0.314011 0.814482 0.502293 -0.440213
C33   C     C_R   0.311623 0.183627 0.504130 -0.321288
C34   C     C_R   0.120174 0.618822 0.499550 0.865974
C35   C     C_R   0.688377 0.816373 0.495870 -0.321289
C36   C     C_R   0.620165 0.880807 0.498815 0.927258
C37   C     C_R   0.379835 0.119193 0.501185 0.927258
C38   C     C_R   0.379826 0.881178 0.500450 0.865974
C39   C     C_R   0.620174 0.118822 0.499550 0.865974
C40   C     C_R   0.008805 0.579381 0.071846 0.424405
H1    H     H_    0.001153 0.655874 0.229112 0.382698
H2    H     H_    0.040844 0.757408 0.553562 0.345541
H3    H     H_    0.241787 0.534895 0.403307 0.325614
H4    H     H_    0.758213 0.465105 0.596692 0.325614
H5    H     H_    0.242807 0.457761 0.616748 0.351688
H6    H     H_    0.757193 0.542239 0.383252 0.351688
H7    H     H_    0.886771 0.821351 0.729596 0.424308
H8    H     H_    0.113228 0.178648 0.270406 0.424309
H9    H     H_    0.459156 0.742592 0.446437 0.345542
H10   H     H_    0.540844 0.257408 0.553562 0.345541
H11   H     H_    0.741787 0.034895 0.403307 0.325614
H12   H     H_    0.998847 0.344126 0.770888 0.382698
H13   H     H_    0.258213 0.965105 0.596693 0.325614
H14   H     H_    0.742807 0.957761 0.616748 0.351688
H15   H     H_    0.257193 0.042239 0.383252 0.351688
H16   H     H_    0.386773 0.321353 0.729591 0.424309
H17   H     H_    0.613229 0.678649 0.270405 0.424308
H18   H     H_    0.999727 0.345179 0.224746 0.407856
H19   H     H_    0.000273 0.654821 0.775254 0.407856
H20   H     H_    0.501153 0.155874 0.229112 0.382698
H21   H     H_    0.498847 0.844126 0.770888 0.382698
H22   H     H_    0.499727 0.845179 0.224746 0.407856
H23   H     H_    0.500273 0.154821 0.775254 0.407856
H24   H     H_    0.959156 0.242592 0.446438 0.345542
N1    N     N_R   1.000000 0.500000 0.857200 -0.279242
N2    N     N_R   1.000000 0.500000 0.142800 -0.279242
N3    N     N_R   0.500000 1.000000 0.857200 -0.279242
N4    N     N_R   0.500000 1.000000 0.142800 -0.279242
O1    O     O_R   0.091610 0.408380 0.614620 -0.631948
O2    O     O_R   0.408390 0.091620 0.385380 -0.631949
O3    O     O_R   0.408390 0.091620 0.614620 -0.601041
O4    O     O_R   0.591610 0.908380 0.385380 -0.601041
O5    O     O_R   0.408390 0.908380 0.385380 -0.605451
O6    O     O_R   0.591610 0.091620 0.614620 -0.605450
O7    O     O_R   0.591610 0.091620 0.385380 -0.621451
O8    O     O_R   0.408390 0.908380 0.614620 -0.621450
O9    O     O_3   0.017161 0.662498 0.134513 -0.652245
O10   O     O_3   0.982839 0.337502 0.865487 -0.652245
O11   O     O_3   0.983259 0.337755 0.130917 -0.624030
O12   O     O_R   0.908390 0.591620 0.385380 -0.631948
O13   O     O_3   0.016741 0.662245 0.869083 -0.624030
O14   O     O_3   0.517161 0.162498 0.134513 -0.652246
O15   O     O_3   0.482839 0.837502 0.865487 -0.652246
O16   O     O_3   0.483259 0.837755 0.130917 -0.624030
O17   O     O_3   0.516741 0.162245 0.869083 -0.624030
O18   O     O_3   0.915120 0.201665 0.407409 -0.621752
O19   O     O_3   0.084881 0.798335 0.592591 -0.621752
O20   O     O_3   0.290991 0.577609 0.397077 -0.652934
O21   O     O_3   0.709009 0.422391 0.602923 -0.652935
O22   O     O_3   0.270225 0.405487 0.660441 -0.704904
O23   O     O_R   0.908390 0.591620 0.614620 -0.601041
O24   O     O_3   0.729775 0.594514 0.339559 -0.704904
O25   O     O_3   0.890725 0.766379 0.672161 -0.715877
O26   O     O_3   0.109275 0.233621 0.327839 -0.715877
O27   O     O_3   0.415119 0.701665 0.407409 -0.621753
O28   O     O_3   0.584880 0.298335 0.592591 -0.621753
O29   O     O_3   0.790991 0.077609 0.397077 -0.652934
O30   O     O_3   0.209009 0.922391 0.602923 -0.652934
O31   O     O_3   0.770225 0.905486 0.660441 -0.704904
O32   O     O_3   0.229775 0.094513 0.339559 -0.704904
O33   O     O_3   0.390726 0.266379 0.672160 -0.715878
O34   O     O_R   0.091610 0.408380 0.385380 -0.601041
O35   O     O_3   0.609275 0.733621 0.327839 -0.715878
O36   O     O_R   0.908390 0.408380 0.385380 -0.605451
O37   O     O_R   0.091610 0.591620 0.614620 -0.605451
O38   O     O_R   0.091610 0.591620 0.385380 -0.621450
O39   O     O_R   0.908390 0.408380 0.614620 -0.621451
O40   O     O_R   0.591610 0.908380 0.614620 -0.631948
Zn1   Zn    Zn3+2 1.000000 0.500000 0.653120 0.989545
Zn2   Zn    Zn3+2 0.000000 0.500000 0.346880 0.989545
Zn3   Zn    Zn3+2 0.500000 0.000000 0.653120 0.989545
Zn4   Zn    Zn3+2 0.500000 1.000000 0.346880 0.989545

loop_
_geom_bond_atom_site_label_1
_geom_bond_atom_site_label_2
_ccdc_geom_bond_type
C10   C27   A    
H11   O29   S    
O4    Zn4   S    
C11   C18   A    
C17   C30   A    
C12   C29   S    
C36   O40   A    
C12   O23   A    
C35   C36   S    
C2    N1    A    
C3    O11   S    
C38   O8    A    
C22   C35   A    
C16   O25   S    
H8    O26   S    
H3    O20   S    
H16   O33   S    
H1    O9    S    
C4    N1    A    
C26   O35   S    
H6    O24   S    
C8    O17   S    
N4    Zn4   S    
C39   O6    A    
C14   O22   S    
H22   O16   S    
C15   O24   S    
H20   O14   S    
C4    O13   S    
C4    C40   A    
O3    Zn3   S    
H15   O32   S    
C13   C28   A    
C6    O15   S    
C32   C38   S    
C7    O16   S    
C7    N4    A    
C19   C31   A    
C27   C34   S    
C40   N2    A    
C37   O2    A    
H23   O17   S    
C18   O27   S    
O39   Zn1   S    
O1    Zn1   S    
C14   C30   A    
C5    N4    A    
H12   O10   S    
H24   O18   S    
C15   C29   A    
C10   C21   A    
H17   O35   S    
C21   C32   A    
C10   O19   S    
C17   C24   A    
C13   C19   A    
C34   O38   A    
H21   O15   S    
O6    Zn3   S    
C15   C26   A    
C16   C29   A    
C1    O1    A    
C5    O14   S    
C2    O10   S    
C9    O18   S    
C9    C20   A    
C23   O36   A    
C11   C27   A    
C11   O20   S    
C20   O29   S    
C23   O39   A    
H7    O25   S    
C23   C28   S    
H9    O27   S    
H5    O22   S    
N1    Zn1   S    
O2    Zn4   S    
H18   O11   S    
O7    Zn4   S    
N3    Zn3   S    
C6    N3    A    
C39   O7    A    
C37   O3    A    
H14   O31   S    
O34   Zn2   S    
C3    N2    A    
C18   C32   A    
O5    Zn4   S    
O38   Zn2   S    
O37   Zn1   S    
C16   C22   A    
C22   O31   S    
C13   O21   S    
C24   O32   S    
C34   O37   A    
H19   O13   S    
C5    C8    A    
C6    C7    A    
C17   O26   S    
H13   O30   S    
C24   C33   A    
H10   O28   S    
O40   Zn3   S    
O23   Zn1   S    
C2    C3    A    
O36   Zn2   S    
C21   O30   S    
C25   O33   S    
O8    Zn3   S    
C12   O12   A    
C1    C30   S    
C31   C39   S    
C14   C25   A    
C33   C37   S    
H4    O21   S    
C26   C35   A    
N2    Zn2   S    
C8    N3    A    
O12   Zn2   S    
C40   O9    S    
H2    O19   S    
C1    O34   A    
C38   O5    A    
C19   O28   S    
C36   O4    A    
C9    C28   A    
C25   C33   A    
C20   C31   A    
