data_mof_unit_52466.cif
_audit_creation_date              2013-03-05T15:45:56-0500
_audit_creation_method            fapswitch 2.2
_symmetry_space_group_name_H-M    P1
_symmetry_Int_Tables_number       1
_space_group_crystal_system       triclinic
_cell_length_a                    18.51392
_cell_length_b                    18.390617
_cell_length_c                    18.391221
_cell_angle_alpha                 120.781406
_cell_angle_beta                  120.647706
_cell_angle_gamma                 59.441149
_cell_volume                      4360.99380629

loop_
_atom_site_label
_atom_site_type_symbol
_atom_site_description
_atom_site_fract_x
_atom_site_fract_y
_atom_site_fract_z
_atom_type_partial_charge
Zn1   Zn    Zn3+2 0.956630 0.130130 0.543370 1.154564
Zn2   Zn    Zn3+2 0.130140 0.956620 0.543380 1.096075
Zn3   Zn    Zn3+2 0.956630 0.956620 0.369870 1.152804
Zn4   Zn    Zn3+2 0.956610 0.956630 0.543370 1.094923
O1    O     O_3   1.000000 0.000000 0.500000 -0.555127
O2    O     O_R   0.055060 0.884200 0.615800 -0.637326
O3    O     O_R   0.884210 0.176520 0.444920 -0.604427
O4    O     O_R   0.176540 0.055080 0.615800 -0.629884
O5    O     O_R   0.884190 0.884200 0.323480 -0.573700
O6    O     O_R   0.176540 0.884190 0.444930 -0.636985
O7    O     O_R   0.884180 0.055090 0.615790 -0.602361
O8    O     O_R   0.055100 0.884190 0.323490 -0.584149
O9    O     O_R   0.884190 0.176530 0.615790 -0.580820
O10   O     O_R   0.055100 0.176520 0.615800 -0.581146
O11   O     O_R   0.884180 0.884200 0.444920 -0.623967
O12   O     O_R   0.176510 0.884190 0.615800 -0.558188
O13   O     O_R   0.884210 0.055080 0.323480 -0.585522
C1    C     C_R   0.139706 0.858011 0.637768 0.873761
C2    C     C_R   0.855473 0.140490 0.359552 0.926238
C3    C     C_R   0.140006 0.140766 0.640929 0.905300
C4    C     C_R   0.862844 0.857235 0.359086 0.920861
C5    C     C_R   0.139389 0.857265 0.358963 0.898023
C6    C     C_R   0.867564 0.141300 0.647622 0.936255
H1    H     H_    0.793332 0.477933 0.735985 0.245262
C7    C     C_R   0.924871 0.105940 0.820275 0.181328
C8    C     C_R   0.940387 0.089894 0.894539 0.210530
C9    C     C_R   0.894729 0.156044 0.954798 0.233513
C10   C     C_R   0.820783 0.229439 0.931704 0.220231
C11   C     C_R   0.789465 0.233779 0.844844 -0.094719
C12   C     C_R   0.847241 0.175953 0.792227 -0.055371
C13   C     C_R   0.711187 0.304607 0.815917 -0.032290
C14   C     C_R   0.713998 0.336965 0.761571 -0.084598
C15   C     C_R   0.790065 0.294758 0.737162 -0.041023
C16   C     C_R   0.834248 0.202511 0.725233 -0.041117
C17   C     C_R   0.651839 0.416704 0.741935 0.240415
C18   C     C_R   0.681021 0.470139 0.735595 0.257676
C19   C     C_R   0.767765 0.435817 0.734881 -0.258954
C20   C     C_R   0.822945 0.348364 0.734905 0.320642
C21   C     C_R   0.676904 0.284352 0.385460 0.214861
C22   C     C_R   0.597048 0.354254 0.396850 0.178166
C23   C     C_R   0.541088 0.401326 0.336914 0.206954
C24   C     C_R   0.563854 0.379791 0.264833 0.178604
C25   C     C_R   0.649809 0.318132 0.259082 -0.068192
C26   C     C_R   0.706768 0.266426 0.317890 -0.095443
C27   C     C_R   0.787158 0.195195 0.301145 -0.177250
C28   C     C_R   0.796388 0.165601 0.217760 0.198283
C29   C     C_R   0.734607 0.211543 0.157993 0.227457
C30   C     C_R   0.675704 0.297695 0.188630 -0.178368
C31   C     C_R   0.945484 0.656039 0.280546 0.132269
C32   C     C_R   0.982892 0.562255 0.258359 0.202320
C33   C     C_R   0.931817 0.512306 0.232333 0.229405
C34   C     C_R   0.841205 0.554545 0.223008 0.214104
C35   C     C_R   0.798358 0.647324 0.231378 -0.091199
C36   C     C_R   0.852690 0.700832 0.270963 -0.056307
C37   C     C_R   0.811371 0.796320 0.299302 -0.150780
C38   C     C_R   0.718121 0.836098 0.274229 0.190865
C39   C     C_R   0.664326 0.782348 0.222167 0.201353
C40   C     C_R   0.703675 0.688703 0.201081 -0.164783
H2    H     H_    0.269566 0.884556 0.791362 0.237199
C41   C     C_R   0.105551 0.695336 0.585944 -0.206535
H3    H     H_    0.057941 0.737767 0.545732 0.200181
C42   C     C_R   0.090470 0.617508 0.559944 0.251427
C43   C     C_R   0.155357 0.552682 0.599706 0.277654
C44   C     C_R   0.231883 0.570076 0.672042 0.221604
C45   C     C_R   0.238832 0.657421 0.710960 -0.091106
C46   C     C_R   0.178770 0.717344 0.661780 0.033930
C47   C     C_R   0.194559 0.796844 0.688912 -0.065320
C48   C     C_R   0.262147 0.820952 0.768150 -0.124976
C49   C     C_R   0.314939 0.769065 0.823036 0.290231
C50   C     C_R   0.304278 0.686785 0.794906 -0.150001
C51   C     C_R   0.320260 0.729484 0.417726 0.236760
C52   C     C_R   0.411736 0.712330 0.467196 0.216740
C53   C     C_R   0.467657 0.704827 0.431828 0.195135
C54   C     C_R   0.433820 0.705707 0.344956 -0.171005
H4    H     H_    0.479240 0.702212 0.322244 0.226851
C55   C     C_R   0.342514 0.719094 0.293125 -0.006584
C56   C     C_R   0.284251 0.747307 0.336962 -0.061174
C57   C     C_R   0.193370 0.795252 0.300230 -0.159888
C58   C     C_R   0.158766 0.794439 0.210982 0.206587
C59   C     C_R   0.214730 0.748210 0.160563 0.220994
C60   C     C_R   0.306503 0.707402 0.200046 -0.187400
C61   C     C_R   0.331815 0.084023 0.761170 0.253516
C62   C     C_R   0.423801 0.038367 0.774144 0.139174
C63   C     C_R   0.470795 0.071660 0.764520 0.136275
C64   C     C_R   0.430435 0.158130 0.758196 0.227024
C65   C     C_R   0.342061 0.208846 0.760073 -0.141533
C66   C     C_R   0.288703 0.163337 0.739325 -0.136756
C67   C     C_R   0.195528 0.198490 0.694934 -0.133202
C68   C     C_R   0.158862 0.286449 0.691987 0.245955
C69   C     C_R   0.210527 0.342409 0.746776 0.267726
C70   C     C_R   0.304069 0.303484 0.783948 -0.121932
Zn5   Zn    Zn3+2 0.543340 0.369890 0.956600 1.167254
Zn6   Zn    Zn3+2 0.543340 0.543410 0.130100 1.101974
Zn7   Zn    Zn3+2 0.369830 0.543410 0.956590 1.164002
Zn8   Zn    Zn3+2 0.543370 0.543400 0.956600 1.143277
O14   O     O_3   0.499970 0.500030 0.999970 -0.556933
O15   O     O_R   0.615800 0.615830 0.055050 -0.605440
O16   O     O_R   0.444880 0.323510 0.884180 -0.624386
O17   O     O_R   0.615760 0.444950 0.176490 -0.598677
O18   O     O_R   0.323460 0.615830 0.884170 -0.581160
O19   O     O_R   0.444880 0.615840 0.176480 -0.649489
O20   O     O_R   0.615800 0.444940 0.884180 -0.625917
O21   O     O_R   0.323440 0.615840 0.055040 -0.585252
O22   O     O_R   0.615780 0.323500 0.884180 -0.573106
O23   O     O_R   0.615760 0.323500 0.055050 -0.578086
O24   O     O_R   0.444910 0.615830 0.884180 -0.590414
O25   O     O_R   0.615780 0.615830 0.176490 -0.594303
O26   O     O_R   0.323430 0.444950 0.884170 -0.578972
C71   C     C_R   0.643917 0.635865 0.140894 0.931577
C72   C     C_R   0.359984 0.359785 0.854044 0.933192
C73   C     C_R   0.636876 0.358775 0.139224 0.969102
C74   C     C_R   0.360060 0.635558 0.856012 0.918420
C75   C     C_R   0.360649 0.644373 0.141108 0.909385
C76   C     C_R   0.641781 0.359191 0.860330 0.910325
N1    N     N_R   0.721637 0.229011 0.439253 0.219271
O27   O     O_R   0.738514 0.267401 0.525554 -0.365074
O28   O     O_R   0.721929 0.146744 0.401606 -0.342537
N2    N     N_R   0.566879 0.369761 0.463216 0.269840
O29   O     O_R   0.555489 0.447009 0.527431 -0.267547
O30   O     O_R   0.547574 0.307811 0.457637 -0.225859
Br1   Br    Br    0.425671 0.485335 0.346395 -0.237562
Br2   Br    Br    0.465027 0.415064 0.163896 -0.423204
N3    N     N_R   0.722348 0.165185 0.063545 0.263857
O31   O     O_R   0.647349 0.150471 0.008562 -0.287193
O32   O     O_R   0.789231 0.123046 0.034796 -0.251942
N4    N     N_R   0.677441 0.932166 0.301352 0.230444
O33   O     O_R   0.621176 0.972854 0.343798 -0.247192
O34   O     O_R   0.690652 0.978129 0.276796 -0.286068
Br3   Br    Br    0.025029 0.712689 0.309652 -0.387194
N5    N     N_R   0.075488 0.517593 0.267530 0.273416
O35   O     O_R   0.136214 0.529953 0.346892 -0.258753
O36   O     O_R   0.099120 0.460905 0.196977 -0.247988
Br4   Br    Br    0.989930 0.385631 0.215620 -0.149719
Br5   Br    Br    0.788681 0.487910 0.224415 -0.293674
Br6   Br    Br    0.028906 0.055706 0.787138 -0.352960
N6    N     N_R   0.569001 0.823444 0.189831 0.238425
O37   O     O_R   0.517801 0.807459 0.204810 -0.337771
O38   O     O_R   0.533376 0.880162 0.148738 -0.209371
Br7   Br    Br    0.981653 0.600637 0.466383 -0.353087
Br8   Br    Br    0.143907 0.436329 0.549431 -0.176413
N7    N     N_R   0.308108 0.494051 0.689639 0.198489
O39   O     O_R   0.343025 0.437638 0.626606 -0.241775
O40   O     O_R   0.318518 0.463864 0.745634 -0.384485
N8    N     N_R   0.377097 0.802784 0.908934 0.233498
O41   O     O_R   0.380278 0.803380 0.981580 -0.312604
O42   O     O_R   0.420432 0.845495 0.916549 -0.240636
Br9   Br    Br    0.036391 0.857954 0.153116 -0.151260
Br10  Br    Br    0.252743 0.701826 0.447377 -0.278851
N9    N     N_R   0.447509 0.701673 0.552338 0.267836
O43   O     O_R   0.408588 0.758436 0.612333 -0.266636
O44   O     O_R   0.517223 0.633048 0.568842 -0.214605
Br11  Br    Br    0.036265 0.985298 0.923174 -0.189007
Br12  Br    Br    0.591233 0.691743 0.499074 -0.237048
N10   N     N_R   0.178857 0.749538 0.070997 0.249663
O45   O     O_R   0.123173 0.707186 0.007266 -0.256280
O46   O     O_R   0.204344 0.790503 0.052495 -0.293589
Br13  Br    Br    0.042618 0.330996 0.608784 -0.239538
N11   N     N_R   0.285493 0.056649 0.780759 0.240469
O47   O     O_R   0.294695 0.972482 0.750809 -0.325064
O48   O     O_R   0.229767 0.116331 0.824030 -0.316931
Br14  Br    Br    0.486269 0.929304 0.802279 -0.108927
N12   N     N_R   0.558558 0.017082 0.759738 0.274039
O49   O     O_R   0.572464 0.985154 0.684752 -0.267188
O50   O     O_R   0.624679 0.999087 0.830031 -0.209924
N13   N     N_R   0.474152 0.189588 0.739251 0.246798
O51   O     O_R   0.427566 0.239061 0.688471 -0.301652
O52   O     O_R   0.560295 0.169796 0.772914 -0.282255
Br15  Br    Br    0.149124 0.469956 0.765428 -0.221502
Br16  Br    Br    0.950268 0.157614 0.077310 -0.123202
N14   N     N_R   0.792662 0.307986 0.002556 0.211040
O53   O     O_R   0.772935 0.302130 0.057304 -0.343140
O54   O     O_R   0.798647 0.383144 0.019837 -0.400867
Br17  Br    Br    0.526746 0.436764 0.696759 -0.211385
N15   N     N_R   0.626591 0.561036 0.736771 0.277601
O55   O     O_R   0.652939 0.605792 0.723985 -0.248058
O56   O     O_R   0.559757 0.604776 0.766091 -0.268616
N16   N     N_R   0.915605 0.321770 0.748687 0.237196
O57   O     O_R   0.940037 0.358629 0.724389 -0.302199
O58   O     O_R   0.976800 0.270407 0.796457 -0.335651
N17   N     N_R   0.866474 0.085846 0.191108 0.251249
O59   O     O_R   0.848917 0.012661 0.131241 -0.227435
O60   O     O_R   0.947975 0.085851 0.228260 -0.314679

loop_
_geom_bond_atom_site_label_1
_geom_bond_atom_site_label_2
_geom_bond_distance
_ccdc_geom_bond_type
C22   N2    1.435204 S    
C66   C67   1.424992 A    
C23   C24   1.398012 A    
C18   N15   1.443147 S    
N13   O51   1.301706 A    
O16   C72   1.283264 A    
C40   C71   1.461927 S    
O19   C75   1.270211 A    
C43   Br8   1.927421 S    
C17   C18   1.411581 A    
C37   C38   1.406318 A    
N2    O30   1.301266 A    
C69   C70   1.418548 A    
Zn5   O16   1.940969 S    
N3    O31   1.301644 A    
O24   C74   1.284867 A    
C56   C57   1.416723 A    
O6    C5    1.286199 A    
C49   N8    1.440140 S    
Zn7   O26   1.933247 S    
C8    C9    1.397207 A    
O4    C3    1.282094 A    
C54   C55   1.414575 A    
C62   C63   1.404550 A    
Zn1   O1    1.937375 S    
C70   C72   1.472675 S    
C10   C11   1.426018 A    
O21   C75   1.288869 A    
C65   C70   1.415829 A    
N9    O44   1.298879 A    
C61   N11   1.434708 S    
N3    O32   1.298365 A    
N14   O53   1.297970 A    
C31   C36   1.435956 A    
O8    C5    1.270046 A    
Zn5   O14   1.937523 S    
C34   Br5   1.928181 S    
C38   C39   1.394960 A    
O9    C6    1.277484 A    
C41   C42   1.387444 A    
C53   C54   1.393219 A    
C23   Br1   1.931462 S    
O7    C6    1.299494 A    
N2    O29   1.299798 A    
Zn3   O8    1.943867 S    
C32   N5    1.434284 S    
N15   O55   1.301546 A    
Zn8   O14   1.968308 S    
C48   C49   1.384367 A    
N16   O58   1.301568 A    
C39   N6    1.439870 S    
Zn3   O13   1.936658 S    
C52   N9    1.433116 S    
C38   N4    1.437150 S    
C42   Br7   1.915913 S    
C11   C12   1.434171 A    
Zn2   O12   1.942315 S    
C25   C30   1.414784 A    
C9    Br16  1.932991 S    
C13   C76   1.498401 S    
N10   O46   1.301373 A    
Zn8   O20   1.932427 S    
Zn7   O14   1.953280 S    
C46   C47   1.418159 A    
O23   C73   1.258235 A    
C41   C46   1.413932 A    
N13   O52   1.301159 A    
C20   N16   1.441116 S    
N11   O48   1.301547 A    
O25   C71   1.274932 A    
N17   O60   1.301007 A    
C15   C16   1.409338 A    
N12   O50   1.300715 A    
O2    C1    1.279553 A    
C68   C69   1.395120 A    
C54   H4    1.077683 S    
C12   C16   1.417317 A    
C47   C48   1.389159 A    
C17   Br17  1.916582 S    
C14   C17   1.416878 A    
C28   N17   1.432686 S    
C55   C56   1.404316 A    
C5    C57   1.465242 S    
C52   C53   1.401227 A    
Zn4   O2    1.934665 S    
Zn6   O19   1.943720 S    
C21   C22   1.410600 A    
C4    C37   1.459004 S    
C65   C66   1.396952 A    
N8    O41   1.301562 A    
C58   Br9   1.937319 S    
N1    O28   1.300667 A    
C1    C47   1.459088 S    
C64   C65   1.421609 A    
C31   Br3   1.930381 S    
C61   C62   1.413851 A    
C33   C34   1.401805 A    
C41   H3    1.076788 S    
N5    O36   1.300898 A    
C25   C26   1.433955 A    
C19   C20   1.399945 A    
O20   C76   1.283136 A    
Zn8   O24   1.934608 S    
O10   C3    1.279173 A    
H2    C48   1.077873 S    
O15   C71   1.288808 A    
C29   N3    1.440363 S    
C29   C30   1.404565 A    
Zn7   O18   1.942167 S    
C6    C16   1.493993 S    
O17   C73   1.290590 A    
C42   C43   1.392700 A    
Zn8   O15   1.929566 S    
C32   C33   1.392420 A    
C28   C29   1.384359 A    
C63   C64   1.411781 A    
Zn4   O7    1.932428 S    
C68   Br13  1.943501 S    
Zn3   O5    1.946051 S    
N10   O45   1.301328 A    
C50   C74   1.458808 S    
N16   O57   1.300643 A    
O22   C76   1.298533 A    
N8    O42   1.301516 A    
C22   C23   1.392199 A    
Zn7   O21   1.934902 S    
O18   C74   1.288035 A    
Zn6   O14   1.935671 S    
C21   N1    1.427800 S    
N11   O47   1.297395 A    
C61   C66   1.419551 A    
C58   C59   1.390346 A    
Zn2   O1    1.953280 S    
Zn1   O9    1.948054 S    
C24   C25   1.429457 A    
C60   C75   1.470957 S    
Zn2   O6    1.935010 S    
C51   C56   1.422915 A    
C63   N12   1.432579 S    
C34   C35   1.429572 A    
C24   Br2   1.943558 S    
N6    O38   1.301272 A    
N12   O49   1.300909 A    
C10   N14   1.433877 S    
C7    C12   1.425416 A    
Zn6   O17   1.936657 S    
C36   C37   1.429810 A    
C18   C19   1.399998 A    
N4    O34   1.300726 A    
C69   Br15  1.942840 S    
Zn1   O3    1.935658 S    
C13   C14   1.431486 A    
Zn2   O4    1.933249 S    
C26   C27   1.448402 A    
C59   C60   1.407367 A    
Zn3   O1    1.935673 S    
C55   C60   1.423586 A    
C35   C40   1.429740 A    
C2    C27   1.480808 S    
C35   C36   1.427179 A    
C21   C26   1.433351 A    
C33   Br4   1.932561 S    
H1    C19   1.082262 S    
O3    C2    1.276377 A    
C15   C20   1.421995 A    
C64   N13   1.442625 S    
C14   C15   1.401302 A    
Zn4   O11   1.929566 S    
N7    O40   1.296106 A    
N5    O35   1.301272 A    
C7    C8    1.400479 A    
C51   C52   1.405368 A    
C11   C13   1.443498 A    
N9    O43   1.301235 A    
Zn6   O25   1.946050 S    
C57   C58   1.420324 A    
O5    C4    1.275308 A    
C39   C40   1.405613 A    
O11   C4    1.286894 A    
N14   O54   1.301506 A    
N4    O33   1.301146 A    
C59   N10   1.436794 S    
C3    C67   1.469571 S    
C44   C45   1.431310 A    
C8    Br11  1.933951 S    
O13   C2    1.278250 A    
O26   C72   1.278408 A    
C51   Br10  1.934929 S    
C45   C46   1.420488 A    
C62   Br14  1.929163 S    
C49   C50   1.412332 A    
C7    Br6   1.935429 S    
N15   O56   1.301178 A    
Zn5   O22   1.948103 S    
C43   C44   1.408235 A    
C27   C28   1.412639 A    
Zn5   O23   1.935656 S    
Zn4   O1    1.968156 S    
C30   C73   1.470318 S    
C67   C68   1.419870 A    
O12   C1    1.293309 A    
C31   C32   1.405005 A    
C44   N7    1.429073 S    
C53   Br12  1.918825 S    
C9    C10   1.411197 A    
N6    O37   1.301279 A    
Zn1   O10   1.941217 S    
C45   C50   1.431115 A    
N7    O39   1.299684 A    
N17   O59   1.301016 A    
N1    O27   1.298849 A    
