data_mof_unit_35346.cif
_audit_creation_date              2012-12-10T18:15:23-0500
_audit_creation_method            fapswitch 2.2
_symmetry_space_group_name_H-M    P1
_symmetry_Int_Tables_number       1
_space_group_crystal_system       triclinic
_cell_length_a                    12.608202
_cell_length_b                    13.111927
_cell_length_c                    23.432201
_cell_angle_alpha                 90.578323
_cell_angle_beta                  103.005265
_cell_angle_gamma                 81.937832
_cell_volume                      3736.16642549

loop_
_atom_site_label
_atom_site_type_symbol
_atom_type_description
_atom_site_fract_x
_atom_site_fract_y
_atom_site_fract_z
_atom_type_partial_charge
C1    C     C_R   0.438329 0.691104 0.489455 0.905779
C2    C     C_R   0.497636 0.420316 0.879666 0.503603
C3    C     C_R   0.406767 0.492516 0.751001 -0.122762
C4    C     C_R   0.500813 0.500881 0.610518 0.861203
C5    C     C_R   0.406859 0.488968 0.691875 -0.224988
C6    C     C_R   0.501698 0.503977 0.672928 -0.034583
C7    C     C_R   0.596388 0.522708 0.714005 -0.220864
C8    C     C_R   0.596198 0.525662 0.773295 -0.096617
C9    C     C_R   0.501462 0.510313 0.791708 0.316180
C10   C     C_R   0.586370 0.522257 0.247847 -0.102320
C11   C     C_R   0.589393 0.519431 0.307364 -0.231691
C12   C     C_R   0.495485 0.695755 0.031633 -0.236805
C13   C     C_R   0.495942 0.501506 0.326831 -0.034761
C14   C     C_R   0.399611 0.486368 0.285957 -0.209617
C15   C     C_R   0.396880 0.489325 0.226405 -0.098490
C16   C     C_R   0.561753 0.308008 0.506948 0.914018
C17   C     C_R   0.490200 0.507313 0.207423 0.313616
C18   C     C_R   0.722584 0.049533 0.484725 0.487351
C19   C     C_R   0.599114 0.196984 0.506359 -0.137035
C20   C     C_R   0.292826 0.839362 0.485908 -0.250478
C21   C     C_R   0.261760 0.945428 0.488380 0.163748
C22   C     C_R   0.338722 0.011449 0.486919 -0.186304
C23   C     C_R   0.494794 0.698344 0.971982 0.522255
C24   C     C_R   0.445504 0.972723 0.479597 0.048769
C25   C     C_R   0.467321 0.868455 0.465352 0.088313
C26   C     C_R   0.531690 0.033425 0.486275 0.037330
C27   C     C_R   0.633096 0.992593 0.472763 -0.016035
C28   C     C_R   0.498878 0.499901 0.389451 0.872910
C29   C     C_R   0.641991 0.897529 0.445683 -0.273307
C30   C     C_R   0.558826 0.836259 0.440414 0.097125
C31   C     C_R   0.520375 0.133039 0.507161 -0.297616
C32   C     C_R   0.703447 0.154367 0.498073 0.005477
C33   C     C_R   0.397348 0.800418 0.477300 -0.135182
C34   C     C_R   0.497011 0.605413 0.940523 -0.152823
C35   C     C_R   0.083224 0.359043 0.412877 -0.291249
C36   C     C_R   0.796161 0.631614 0.568144 -0.056672
C37   C     C_R   0.895873 0.668890 0.579072 -0.384303
C38   C     C_R   0.980267 0.624327 0.552603 0.474707
C39   C     C_R   0.961111 0.540023 0.513984 -0.086361
C40   C     C_R   0.485815 0.418733 0.116830 0.500082
C41   C     C_R   0.854595 0.509212 0.502314 0.167061
C42   C     C_R   0.040605 0.485248 0.485666 0.002264
C43   C     C_R   0.008068 0.411446 0.442492 0.187751
C44   C     C_R   0.901679 0.387926 0.430311 -0.292444
C45   C     C_R   0.493507 0.511967 0.969239 -0.079867
C46   C     C_R   0.827667 0.433443 0.461370 -0.177807
C47   C     C_R   0.152447 0.496525 0.499530 -0.024114
C48   C     C_R   0.190995 0.377947 0.426955 0.003533
C49   C     C_R   0.490848 0.600351 0.119594 0.534154
C50   C     C_R   0.492229 0.603267 0.060148 -0.096738
C51   C     C_R   0.490512 0.511163 0.028881 -0.022372
C52   C     C_R   0.487013 0.417862 0.057376 0.005595
C53   C     C_3   0.875404 0.932632 0.523305 0.102005
C54   C     C_3   0.934709 0.982493 0.578145 -0.906568
C55   C     C_3   0.389446 0.840550 0.922332 0.171791
C56   C     C_R   0.493532 0.418843 0.938582 0.015359
C57   C     C_3   0.352771 0.920921 0.964036 -0.883018
C58   C     C_3   0.130857 0.675397 0.615329 0.056687
C59   C     C_3   0.237284 0.719114 0.617505 -0.836378
C60   C     C_R   0.489417 0.326534 0.967302 -0.162540
C61   C     C_R   0.486045 0.326070 0.026168 -0.162550
C62   C     C_R   0.502244 0.602137 0.881209 0.515835
H1    H     H_    0.498269 0.766899 0.055457 0.211707
H2    H     H_    0.876574 0.330976 0.398063 0.159634
H3    H     H_    0.058947 0.303674 0.379513 0.156039
H4    H     H_    0.188297 0.542804 0.534409 0.190091
H5    H     H_    0.731282 0.667467 0.588142 0.165869
H6    H     H_    0.905014 0.735705 0.606191 0.152919
H7    H     H_    0.749379 0.407207 0.452790 0.223016
H8    H     H_    0.489013 0.254313 0.944448 0.191835
H9    H     H_    0.483266 0.253564 0.047153 0.193130
H10   H     H_    0.333401 0.480909 0.765374 0.134508
H11   H     H_    0.332719 0.474504 0.661146 0.159272
H12   H     H_    0.664737 0.531299 0.337958 0.166296
H13   H     H_    0.670447 0.534680 0.700457 0.162714
H14   H     H_    0.669567 0.539191 0.804979 0.144648
H15   H     H_    0.658721 0.535655 0.233007 0.143179
H16   H     H_    0.853928 0.189401 0.536481 0.214326
H17   H     H_    0.816951 0.209144 0.463105 0.212043
H18   H     H_    0.936706 0.877709 0.507084 0.197566
H19   H     H_    0.816617 0.885440 0.535398 0.137698
H20   H     H_    0.874061 0.029126 0.599135 0.247400
H21   H     H_    0.983473 0.921782 0.609864 0.227996
H22   H     H_    0.990930 0.032840 0.566777 0.261999
H23   H     H_    0.326472 0.472541 0.299870 0.164185
H24   H     H_    0.106224 0.928464 0.494962 0.204548
H25   H     H_    0.164049 0.018997 0.537224 0.174068
H26   H     H_    0.327634 0.786115 0.910446 0.111352
H27   H     H_    0.389831 0.881074 0.881005 0.195540
H28   H     H_    0.415372 0.973581 0.977154 0.276491
H29   H     H_    0.273583 0.966860 0.941915 0.225974
H30   H     H_    0.340530 0.882943 0.003687 0.251909
H31   H     H_    0.558819 0.769350 0.362507 0.194215
H32   H     H_    0.640412 0.701733 0.420485 0.215003
H33   H     H_    0.151850 0.595895 0.634759 0.132702
H34   H     H_    0.322483 0.477738 0.194950 0.143048
H35   H     H_    0.084219 0.725182 0.642602 0.151391
H36   H     H_    0.218558 0.799899 0.600439 0.252313
H37   H     H_    0.285575 0.718030 0.663461 0.226956
H38   H     H_    0.287509 0.672440 0.590761 0.259887
H39   H     H_    0.713591 0.870175 0.428529 0.181455
H40   H     H_    0.447883 0.164794 0.521873 0.174967
H41   H     H_    0.236795 0.787411 0.492525 0.187757
H42   H     H_    0.311595 0.092540 0.490381 0.142521
H43   H     H_    0.250418 0.339278 0.404200 0.140990
N1    N     N_R   0.488050 0.509006 0.146438 -0.358129
N2    N     N_R   0.501500 0.510888 0.852487 -0.359869
N3    N     N_R   0.222200 0.444670 0.469780 -0.117610
N4    N     N_R   0.776960 0.554790 0.529910 -0.127852
N5    N     N_3   0.788756 0.217144 0.501797 -0.432437
N6    N     N_3   0.154371 0.987317 0.495570 -0.439105
N7    N     N_3   0.563376 0.745900 0.405609 -0.435542
O1    O     O_R   0.366740 0.627150 0.485570 -0.614902
O2    O     O_R   0.410990 0.482290 0.406510 -0.617233
O3    O     O_R   0.589070 0.517660 0.425810 -0.648653
O4    O     O_2   0.483828 0.330108 0.145150 -0.555821
O5    O     O_3   0.826294 0.007248 0.478181 -0.633015
O6    O     O_3   0.497991 0.791806 0.945978 -0.570002
O7    O     O_3   0.071149 0.674784 0.556399 -0.641259
O8    O     O_2   0.491815 0.687895 0.150410 -0.556690
O9    O     O_2   0.507582 0.688779 0.852062 -0.533313
O10   O     O_2   0.498350 0.331928 0.849590 -0.558619
O11   O     O_R   0.544830 0.662520 0.504870 -0.608926
O12   O     O_R   0.410930 0.482340 0.574190 -0.632633
O13   O     O_R   0.589010 0.517710 0.593490 -0.619240
O14   O     O_R   0.455170 0.337480 0.495130 -0.620187
O15   O     O_R   0.633260 0.372850 0.514430 -0.604872
Zn1   Zn    Zn3+2 0.381090 0.476380 0.487110 0.943637
Zn2   Zn    Zn3+2 0.618910 0.523620 0.512890 0.931878

loop_
_geom_bond_atom_site_label_1
_geom_bond_atom_site_label_2
_ccdc_geom_bond_type
C57   H30   S    
C27   C29   A    
C59   H37   S    
C8    H14   S    
C43   C44   A    
C19   C31   A    
C23   O6    S    
O15   Zn2   S    
C36   H5    S    
C1    C33   S    
C7    C8    A    
C39   C41   A    
O1    Zn1   S    
C40   O4    S    
C53   C54   S    
C44   H2    S    
C12   C23   A    
C26   C27   A    
C29   C30   A    
C32   N5    S    
C4    O13   A    
C36   C37   A    
C24   C26   A    
C52   C61   A    
C5    C6    A    
C53   O5    S    
C49   O8    S    
H25   N6    S    
C35   H3    S    
C10   C17   A    
C37   H6    S    
C2    N2    A    
C34   C62   A    
C22   H42   S    
C4    O12   A    
C53   H19   S    
C55   H26   S    
C46   H7    S    
C45   C56   A    
C8    C9    A    
C41   C46   A    
C13   C28   S    
C35   C43   A    
C47   H4    S    
O12   Zn1   S    
C61   H9    S    
C26   C31   A    
C41   N4    A    
C13   C14   A    
O11   Zn2   S    
C59   H38   S    
C58   H35   S    
C1    O1    A    
C35   C48   A    
C54   H22   S    
C54   H21   S    
C21   N6    S    
C10   H15   S    
C44   C46   A    
C39   C42   A    
C2    O10   S    
C38   C39   A    
C57   H28   S    
C51   C52   A    
C31   H40   S    
C53   H18   S    
C24   C25   A    
C4    C6    S    
C15   H34   S    
C20   H41   S    
C12   H1    S    
C7    H13   S    
C62   N2    A    
C58   C59   S    
C40   C52   A    
C56   C60   A    
C30   N7    S    
C60   C61   A    
C58   H33   S    
C1    O11   A    
C37   C38   A    
C3    C9    A    
C28   O3    A    
O2    Zn1   S    
C48   H43   S    
C60   H8    S    
C23   C34   A    
C19   C32   A    
C50   C51   A    
C29   H39   S    
H16   N5    S    
C34   C45   A    
N3    Zn1   S    
C18   O5    S    
C49   N1    A    
C28   O2    A    
C38   O7    S    
C49   C50   A    
C55   C57   S    
N4    Zn2   S    
C22   C24   A    
C18   C32   A    
C42   C43   A    
C20   C33   A    
C54   H20   S    
C40   N1    A    
O3    Zn2   S    
C25   C30   A    
C15   C17   A    
O14   Zn1   S    
C57   H29   S    
H17   N5    S    
C18   C27   A    
C14   H23   S    
C3    C5    A    
C11   H12   S    
C12   C50   A    
C6    C7    A    
C9    N2    S    
C3    H10   S    
C55   H27   S    
C2    C56   A    
C17   N1    S    
C11   C13   A    
C48   N3    A    
C16   C19   S    
H32   N7    S    
C58   O7    S    
H24   N6    S    
C42   C47   A    
C5    H11   S    
C16   O15   A    
C10   C11   A    
H31   N7    S    
O13   Zn2   S    
C20   C21   A    
C47   N3    A    
C36   N4    A    
C59   H36   S    
C45   C51   A    
C14   C15   A    
C21   C22   A    
C16   O14   A    
C62   O9    S    
C25   C33   A    
C55   O6    S    
