data_mof_unit_11346.cif
_audit_creation_date              2012-10-26T19:52:24-0400
_audit_creation_method            fapswitch 2.2
_symmetry_space_group_name_H-M    P1
_symmetry_Int_Tables_number       1
_space_group_crystal_system       triclinic
_cell_length_a                    9.623627
_cell_length_b                    10.83744
_cell_length_c                    13.424125
_cell_angle_alpha                 92.107558
_cell_angle_beta                  72.274896
_cell_angle_gamma                 90.126019
_cell_volume                      1332.64977683

loop_
_atom_site_label
_atom_site_type_symbol
_atom_type_description
_atom_site_fract_x
_atom_site_fract_y
_atom_site_fract_z
_atom_type_partial_charge
C1    C     C_R   0.499497 0.737513 0.501561 0.551662
C2    C     C_R   0.373518 0.501434 0.815820 0.014099
C3    C     C_R   0.371577 0.936335 0.509337 0.104942
C4    C     C_R   0.421179 0.497632 0.700210 0.550825
C5    C     C_R   0.495821 0.871193 0.510794 -0.032586
C6    C     C_R   0.613823 0.937162 0.526666 -0.151953
C7    C     C_R   0.613379 0.065935 0.527187 -0.169056
C8    C     C_R   0.494821 0.129837 0.511951 -0.037305
C9    C     C_R   0.370693 0.063675 0.510613 0.101202
C10   C     C_3   0.282991 0.067711 0.436155 0.116180
C11   C     C_3   0.286298 0.926895 0.433070 0.137036
C12   C     C_R   0.438288 0.497300 0.978850 0.016157
C13   C     C_R   0.946720 0.405604 0.451569 0.064758
C14   C     C_R   0.904019 0.589180 0.553897 0.411624
C15   C     C_R   0.050120 0.588113 0.555152 0.431008
C16   C     C_R   0.499163 0.262620 0.501803 0.524732
C17   C     C_R   0.093736 0.405805 0.451224 0.110491
C18   C     C_3   0.145968 0.367469 0.337813 0.306860
C19   C     C_3   0.988388 0.367102 0.338465 0.290744
C20   C     C_R   0.578614 0.497351 0.300094 0.585155
C21   C     C_R   0.759732 0.354339 0.034146 -0.104138
C22   C     C_R   0.623169 0.476093 0.186466 0.034354
C23   C     C_R   0.466828 0.459913 0.872150 -0.068927
C24   C     C_R   0.239680 0.558814 0.870826 0.379595
C25   C     C_R   0.203076 0.580885 0.978070 -0.084077
C26   C     C_R   0.301386 0.553021 0.031335 -0.090859
C27   C     C_R   0.543644 0.470927 0.030324 0.018034
C28   C     C_R   0.662691 0.389811 0.980152 0.047531
C29   C     C_R   0.681587 0.342690 0.878100 0.258843
C30   C     C_R   0.584205 0.378236 0.825256 -0.100562
C31   C     C_R   0.535040 0.522007 0.130420 0.404338
C32   C     C_R   0.736867 0.393728 0.137604 -0.198079
Cu1   Cu    Cu3+1 0.359330 0.500020 0.500010 1.103536
Cu2   Cu    Cu3+1 0.640670 0.499980 0.499990 1.003398
F1    F     F_    0.224369 0.458793 0.276658 -0.566392
F2    F     F_    0.960560 0.458682 0.277693 -0.583958
F3    F     F_    0.447959 0.620809 0.173240 -0.614003
F4    F     F_    0.144422 0.595961 0.821214 -0.608734
H1    H     H_    0.804318 0.355663 0.180487 0.188045
H2    H     H_    0.597426 0.336001 0.748696 0.133209
H3    H     H_    0.709058 0.889850 0.533858 0.203488
H4    H     H_    0.088991 0.108832 0.434612 0.299368
H5    H     H_    0.103800 0.865842 0.421119 0.332408
H6    H     H_    0.718911 0.657117 0.637454 0.360028
H7    H     H_    0.170414 0.652185 0.635748 0.393687
H8    H     H_    0.795021 0.238988 0.759271 0.336852
H9    H     H_    0.708398 0.114556 0.534639 0.154837
H10   H     H_    0.341373 0.110156 0.360743 0.064364
H11   H     H_    0.348840 0.882886 0.356163 0.110792
H12   H     H_    0.200059 0.275575 0.321421 0.051478
H13   H     H_    0.946875 0.274575 0.323876 0.037597
H14   H     H_    0.849567 0.291088 0.998445 0.202458
H15   H     H_    0.263435 0.570803 0.114478 0.277110
H16   H     H_    0.098654 0.622805 0.020189 0.178197
N1    N     N_R   0.852320 0.499070 0.499340 -0.254849
N2    N     N_R   0.148230 0.499110 0.499340 -0.259732
O1    O     O_R   0.381190 0.680360 0.500000 -0.479120
O2    O     O_3   0.149016 0.875143 0.478212 -0.566748
O3    O     O_3   0.818691 0.686487 0.607364 -0.636615
O4    O     O_3   0.088123 0.680868 0.614212 -0.556301
O5    O     O_3   0.795967 0.261975 0.831259 -0.674832
O6    O     O_R   0.618780 0.680320 0.499990 -0.501570
O7    O     O_R   0.323230 0.500000 0.650990 -0.472397
O8    O     O_R   0.560820 0.499960 0.650980 -0.560316
O9    O     O_R   0.381220 0.319680 0.500010 -0.487445
O10   O     O_R   0.618810 0.319640 0.500000 -0.533087
O11   O     O_R   0.439180 0.500040 0.349020 -0.404629
O12   O     O_R   0.676770 0.500000 0.349010 -0.447255
O13   O     O_3   0.144042 0.118136 0.486006 -0.645492

loop_
_geom_bond_atom_site_label_1
_geom_bond_atom_site_label_2
_ccdc_geom_bond_type
C2    C4    S    
C24   C25   A    
C26   H15   S    
H7    O4    S    
C29   C30   A    
C11   H11   S    
C1    O1    A    
C11   O2    S    
C18   F1    S    
C4    O8    A    
C20   O11   A    
C24   F4    S    
C12   C23   A    
C13   C17   A    
Cu1   O7    S    
C15   N2    A    
Cu2   O10   S    
Cu1   N2    S    
Cu2   O8    S    
C17   C18   S    
C30   H2    S    
Cu2   N1    S    
C8    C16   S    
Cu2   O6    S    
C1    O6    A    
C2    C24   A    
C14   O3    S    
C4    O7    A    
C18   H12   S    
C6    C7    A    
C22   C32   A    
H6    O3    S    
C3    C9    A    
C1    C5    S    
C9    C10   S    
C28   C29   A    
Cu1   Cu2   S    
C21   C28   A    
C20   C22   S    
C14   N1    A    
C17   N2    A    
C19   F2    S    
H4    O13   S    
C10   H10   S    
C5    C6    A    
C21   C32   A    
C29   O5    S    
C16   O10   A    
C10   C11   S    
C13   C19   S    
C12   C27   A    
Cu1   O9    S    
C23   C30   A    
C19   H13   S    
C7    C8    A    
C3    C11   S    
C25   H16   S    
Cu1   O11   S    
C2    C23   A    
C15   O4    S    
C18   C19   S    
C22   C31   A    
C32   H1    S    
Cu2   O12   S    
C27   C28   A    
C10   O13   S    
Cu1   O1    S    
C16   O9    A    
H8    O5    S    
H5    O2    S    
C3    C5    A    
C25   C26   A    
C14   C15   A    
C27   C31   A    
C20   O12   A    
C21   H14   S    
C31   F3    S    
C12   C26   A    
C8    C9    A    
C13   N1    A    
C6    H3    S    
C7    H9    S    
