data_mof_unit_8355.cif
_audit_creation_date              2013-03-05T15:40:04-0500
_audit_creation_method            fapswitch 2.2
_symmetry_space_group_name_H-M    P1
_symmetry_Int_Tables_number       1
_space_group_crystal_system       triclinic
_cell_length_a                    7.796212
_cell_length_b                    8.633318
_cell_length_c                    10.58575
_cell_angle_alpha                 90.395453
_cell_angle_beta                  86.734225
_cell_angle_gamma                 93.242048
_cell_volume                      710.196555832

loop_
_atom_site_label
_atom_site_type_symbol
_atom_site_description
_atom_site_fract_x
_atom_site_fract_y
_atom_site_fract_z
_atom_type_partial_charge
O1    O     O_R   0.389250 0.738570 0.508180 -0.583368
O2    O     O_R   0.678390 0.711630 0.486820 -0.607754
C1    C     C_R   0.545969 0.793703 0.502151 0.828280
O3    O     O_R   0.355470 0.513470 0.691600 -0.606747
O4    O     O_R   0.644610 0.486520 0.670240 -0.598161
C2    C     C_R   0.501963 0.492044 0.737791 0.706700
Zn1   Zn    Zn3+2 0.306940 0.517990 0.514260 1.097103
Zn2   Zn    Zn3+2 0.693060 0.482010 0.485740 1.085876
O5    O     O_R   0.321610 0.288370 0.513180 -0.597195
O6    O     O_R   0.610750 0.261430 0.491820 -0.587513
O7    O     O_R   0.355390 0.513480 0.329760 -0.556929
O8    O     O_R   0.644530 0.486530 0.308400 -0.615384
C3    C     C_R   0.455899 0.205731 0.507582 0.881148
C4    C     C_R   0.499638 0.516914 0.263310 0.829069
C5    C     C_2   0.643975 0.568559 0.060337 -0.244832
C6    C     C_2   0.499622 0.570737 0.135274 0.418445
H1    H     H_    0.768059 0.546871 0.096133 0.209842
C7    C     C_2   0.631050 0.572288 0.925069 -0.190764
C8    C     C_2   0.511041 0.480103 0.872208 0.443758
H2    H     H_    0.716359 0.653183 0.869812 0.164365
C9    C     C_2   0.574066 0.956129 0.503498 0.153404
C10   C     C_2   0.438592 0.044610 0.533007 0.205969
N1    N     N_2   0.950320 0.457950 0.466680 0.039108
N2    N     N_2   0.049680 0.542050 0.533320 0.053096
O9    O     O_3   0.346429 0.615933 0.090190 -0.569939
C11   C     C_3   0.340405 0.778007 0.104914 -0.227366
H3    H     H_    0.446965 0.840445 0.048007 0.139564
H4    H     H_    0.343625 0.812662 0.206372 0.169467
H5    H     H_    0.217430 0.814186 0.069809 0.207132
O10   O     O_3   0.425898 0.358613 0.941465 -0.631431
C12   C     C_3   0.251389 0.338578 0.913295 -0.124203
H6    H     H_    0.237715 0.281938 0.819788 0.158170
H7    H     H_    0.186648 0.450289 0.917649 0.238855
H8    H     H_    0.184117 0.260705 0.985341 0.192543
O11   O     O_3   0.732914 0.015666 0.453366 -0.589336
C13   C     C_3   0.849105 0.027385 0.551164 -0.082638
H9    H     H_    0.886837 0.911224 0.579551 0.197084
H10   H     H_    0.796031 0.090771 0.635341 0.125386
H11   H     H_    0.967579 0.093859 0.515296 0.233187
O12   O     O_3   0.285495 0.987560 0.593763 -0.598310
C14   C     C_3   0.311837 0.968442 0.723702 -0.256411
H12   H     H_    0.392935 0.065245 0.763553 0.120339
H13   H     H_    0.371247 0.856869 0.739945 0.175732
H14   H     H_    0.185101 0.965052 0.777114 0.211829
N3    N     N_R   0.014569 0.438641 0.343321 0.314918
O13   O     O_R   0.018671 0.554593 0.265161 -0.373019
O14   O     O_R   0.029605 0.299169 0.298562 -0.371820
N4    N     N_R   0.989176 0.554506 0.658316 0.301175
O15   O     O_R   0.963847 0.429422 0.726334 -0.443624
O16   O     O_R   0.008136 0.687404 0.715615 -0.444804

loop_
_geom_bond_atom_site_label_1
_geom_bond_atom_site_label_2
_geom_bond_distance
_ccdc_geom_bond_type
O4    Zn2   1.968563 S    
N1    N2    1.271391 D    
C12   H7    1.113017 S    
C5    H1    1.085223 S    
C9    O11   1.391545 S    
Zn1   N2    2.026558 S    
C5    C7    1.441873 S    
C14   H12   1.114410 S    
C11   H4    1.114198 S    
C12   H6    1.108926 S    
Zn2   O8    1.937123 S    
C10   O12   1.389698 S    
C13   H10   1.114254 S    
O2    C1    1.286962 A    
C12   H8    1.109201 S    
O1    Zn1   1.975143 S    
N3    O13   1.300954 A    
Zn1   O7    1.968563 S    
C2    C8    1.433391 S    
C14   H13   1.110738 S    
C11   H3    1.113747 S    
O4    C2    1.290473 A    
O3    Zn1   1.937123 S    
N1    N3    1.384139 S    
N4    O16   1.299074 A    
N4    O15   1.301537 A    
O7    C4    1.291036 A    
O8    C4    1.292025 A    
C3    C10   1.416100 S    
C7    H2    1.086743 S    
N3    O14   1.299946 A    
O10   C12   1.410216 S    
C14   H14   1.109106 S    
C4    C6    1.435835 S    
C1    C9    1.407084 S    
O3    C2    1.290907 A    
C5    C6    1.340384 D    
N2    N4    1.384751 S    
Zn2   N1    2.026558 S    
C11   H5    1.109461 S    
Zn2   O6    1.975144 S    
C7    C8    1.338356 D    
C6    O9    1.388039 S    
Zn1   O5    1.992044 S    
O5    C3    1.298253 A    
C13   H9    1.109119 S    
O12   C14   1.414423 S    
O9    C11   1.409951 S    
C9    C10   1.359040 D    
C8    O10   1.398092 S    
C13   H11   1.108933 S    
O2    Zn2   1.992043 S    
O11   C13   1.413367 S    
O1    C1    1.284223 A    
O6    C3    1.276330 A    
