data_mof_unit_53051.cif
_audit_creation_date              2012-12-10T17:08:36-0500
_audit_creation_method            fapswitch 2.2
_symmetry_space_group_name_H-M    P1
_symmetry_Int_Tables_number       1
_space_group_crystal_system       triclinic
_cell_length_a                    15.707585
_cell_length_b                    10.790418
_cell_length_c                    10.022967
_cell_angle_alpha                 90.431331
_cell_angle_beta                  87.735863
_cell_angle_gamma                 89.06658
_cell_volume                      1697.19853478

loop_
_atom_site_label
_atom_site_type_symbol
_atom_type_description
_atom_site_fract_x
_atom_site_fract_y
_atom_site_fract_z
_atom_type_partial_charge
C1    C     C_R   0.499576 0.262616 0.499189 0.948609
C2    C     C_2   0.511872 0.868130 0.501022 -0.435409
C3    C     C_2   0.515502 0.064775 0.387253 0.678167
C4    C     C_R   0.338224 0.501600 0.502701 0.866818
C5    C     C_2   0.494041 0.131066 0.497426 -0.477894
C6    C     C_2   0.566656 0.521565 0.922096 -0.200488
C7    C     C_2   0.560826 0.546522 0.071090 0.597027
C8    C     C_R   0.502206 0.737221 0.500299 0.958429
C9    C     C_R   0.661796 0.498043 0.497230 0.880340
C10   C     C_3   0.041529 0.442763 0.646079 0.925408
C11   C     C_3   0.057242 0.375492 0.389153 0.789114
C12   C     C_3   0.942317 0.439372 0.630942 -0.689849
C13   C     C_3   0.957142 0.380361 0.388372 -0.354790
C14   C     C_1   0.750813 0.488663 0.489918 -0.152996
C15   C     C_3   0.083156 0.473586 0.503060 -0.109414
C16   C     C_3   0.019886 0.623623 0.797897 0.125011
C17   C     C_3   0.978172 0.588986 0.932531 -0.889201
C18   C     C_3   0.638443 0.724797 0.073749 0.017915
C19   C     C_3   0.696656 0.799459 0.160341 -0.697763
C20   C     C_3   0.054695 0.293024 0.815694 0.162561
C21   C     C_3   0.062717 0.154010 0.835416 -0.915790
C22   C     C_3   0.163952 0.375557 0.208821 0.130156
C23   C     C_3   0.917929 0.476745 0.488730 -0.028518
C24   C     C_3   0.201020 0.468950 0.110484 -0.825290
C25   C     C_3   0.153470 0.201037 0.455331 0.139703
C26   C     C_3   0.191872 0.098434 0.365084 -0.917737
C27   C     C_3   0.074534 0.817242 0.481406 0.083523
C28   C     C_3   0.046692 0.913383 0.586260 -0.870651
C29   C     C_3   0.952080 0.605820 0.453391 0.376079
C30   C     C_3   0.050387 0.604655 0.457175 0.165000
C31   C     C_1   0.826243 0.480851 0.485391 0.066096
C32   C     C_1   0.174289 0.485372 0.509845 0.056899
C33   C     C_1   0.249374 0.495554 0.509018 -0.178209
C34   C     C_2   0.508354 0.931637 0.387563 -0.262398
F1    F     F_    0.927595 0.639544 0.326883 -0.682945
F2    F     F_    0.542734 0.118860 0.271240 -0.626287
F3    F     F_    0.453236 0.412885 0.095820 -0.599804
H1    H     H_    0.919991 0.342984 0.647483 0.219105
H2    H     H_    0.077548 0.620884 0.354167 0.176366
H3    H     H_    0.923661 0.675929 0.524492 0.112853
H4    H     H_    0.972227 0.659255 0.729366 0.139443
H5    H     H_    0.061068 0.704068 0.816737 0.207670
H6    H     H_    0.027173 0.562365 0.003827 0.289924
H7    H     H_    0.941771 0.670253 0.974654 0.247287
H8    H     H_    0.933371 0.511664 0.922842 0.240249
H9    H     H_    0.576927 0.777176 0.067355 0.137856
H10   H     H_    0.669598 0.715372 0.972505 0.141116
H11   H     H_    0.759623 0.751652 0.165545 0.271684
H12   H     H_    0.904114 0.493330 0.706417 0.176777
H13   H     H_    0.706001 0.892961 0.117093 0.213679
H14   H     H_    0.667884 0.809741 0.262940 0.256214
H15   H     H_    0.990019 0.322468 0.853307 0.148810
H16   H     H_    0.103350 0.338006 0.876070 0.193608
H17   H     H_    0.126770 0.120141 0.799513 0.255806
H18   H     H_    0.053930 0.132188 0.943145 0.231849
H19   H     H_    0.012951 0.106319 0.779710 0.266031
H20   H     H_    0.155869 0.286192 0.155558 0.181643
H21   H     H_    0.211548 0.365486 0.285655 0.150585
H22   H     H_    0.206711 0.560534 0.160435 0.252258
H23   H     H_    0.501241 0.885674 0.291895 0.198112
H24   H     H_    0.265323 0.436944 0.073547 0.257379
H25   H     H_    0.160095 0.479125 0.023870 0.253460
H26   H     H_    0.139400 0.157890 0.553277 0.217388
H27   H     H_    0.202652 0.269145 0.470768 0.119554
H28   H     H_    0.226729 0.137688 0.277392 0.245152
H29   H     H_    0.237884 0.041773 0.421099 0.225640
H30   H     H_    0.141087 0.037545 0.329499 0.269741
H31   H     H_    0.028956 0.823110 0.399068 0.175568
H32   H     H_    0.138994 0.839705 0.440074 0.164675
H33   H     H_    0.096591 0.922513 0.660960 0.257811
H34   H     H_    0.524983 0.910925 0.596094 0.163282
H35   H     H_    0.035603 0.004067 0.538144 0.252731
H36   H     H_    0.986194 0.885247 0.637609 0.244136
H37   H     H_    0.469111 0.089532 0.588706 0.127595
H38   H     H_    0.628563 0.527162 0.870995 0.161348
H39   H     H_    0.442048 0.513589 0.899513 0.222333
H40   H     H_    0.930008 0.288040 0.412836 0.183310
H41   H     H_    0.935111 0.401220 0.286476 0.230492
N1    N     N_2   0.500900 0.501330 0.852150 -0.179488
N2    N     N_2   0.500920 0.501360 0.147810 0.113780
O1    O     O_R   0.499990 0.319060 0.613040 -0.610665
O2    O     O_3   0.626168 0.607385 0.131888 -0.606976
O3    O     O_3   0.069285 0.320974 0.678780 -0.657569
O4    O     O_3   0.083733 0.419212 0.259407 -0.654236
O5    O     O_3   0.075731 0.244714 0.403622 -0.630245
O6    O     O_3   0.078334 0.699731 0.542663 -0.615807
O7    O     O_R   0.500010 0.319100 0.386900 -0.507045
O8    O     O_R   0.377130 0.499990 0.613120 -0.607400
O9    O     O_R   0.377160 0.500030 0.386980 -0.597976
O10   O     O_R   0.499990 0.680900 0.613100 -0.626235
O11   O     O_R   0.500010 0.680940 0.386960 -0.617499
O12   O     O_R   0.622840 0.499970 0.613020 -0.634394
O13   O     O_R   0.622870 0.500010 0.386880 -0.556392
O14   O     O_3   0.073812 0.527053 0.744322 -0.611427
Zn1   Zn    Zn3+2 0.499980 0.499970 0.650990 0.966876
Zn2   Zn    Zn3+2 0.500020 0.500030 0.349010 1.100756

loop_
_geom_bond_atom_site_label_1
_geom_bond_atom_site_label_2
_ccdc_geom_bond_type
C1    O7    A    
C24   H24   S    
C9    O13   A    
H39   N1    S    
C14   C31   T    
C18   H10   S    
C22   H20   S    
C12   H12   S    
C15   C32   S    
C12   C23   S    
C1    C5    S    
C26   H30   S    
C23   C29   S    
C17   H8    S    
C10   C15   S    
C21   H17   S    
O1    Zn1   S    
C10   O14   S    
C1    O1    A    
C10   O3    S    
C13   C23   S    
C18   C19   S    
C25   H26   S    
C5    H37   S    
C27   H31   S    
O11   Zn2   S    
C13   H41   S    
C11   C15   S    
C16   C17   S    
N2    Zn2   S    
C28   H33   S    
C27   H32   S    
C2    C34   D    
O8    Zn1   S    
C34   H23   S    
C28   H35   S    
C28   H36   S    
C18   H9    S    
C9    O12   A    
F3    N2    S    
C13   H40   S    
C26   H29   S    
C6    H38   S    
C21   H18   S    
C19   H11   S    
C3    C34   S    
C25   C26   S    
O12   Zn1   S    
C25   H27   S    
C22   O4    S    
C27   O6    S    
C9    C14   S    
C17   H6    S    
N1    Zn1   S    
C29   C30   S    
O7    Zn2   S    
C25   O5    S    
C8    O11   A    
C10   C12   S    
O13   Zn2   S    
C22   C24   S    
C30   O6    S    
C2    H34   S    
C16   H5    S    
C15   C30   S    
C4    O9    A    
C4    C33   S    
C24   H25   S    
C26   H28   S    
C2    C8    S    
C20   H16   S    
C3    C5    D    
O10   Zn1   S    
C22   H21   S    
C21   H19   S    
C6    C7    S    
C4    O8    A    
C11   O4    S    
C29   F1    S    
C16   O14   S    
C32   C33   T    
O9    Zn2   S    
C17   H7    S    
C20   H15   S    
C11   C13   S    
C19   H13   S    
C6    N1    D    
C3    F2    S    
C11   O5    S    
C24   H22   S    
C29   H3    S    
C18   O2    S    
C30   H2    S    
C12   H1    S    
C19   H14   S    
C7    O2    S    
C8    O10   A    
C20   C21   S    
C20   O3    S    
C27   C28   S    
C16   H4    S    
C23   C31   S    
C7    N2    D    
