data_mof_unit_10998.cif
_audit_creation_date              2012-12-10T17:48:39-0500
_audit_creation_method            fapswitch 2.2
_symmetry_space_group_name_H-M    P1
_symmetry_Int_Tables_number       1
_space_group_crystal_system       triclinic
_cell_length_a                    15.712646
_cell_length_b                    10.609227
_cell_length_c                    9.98232
_cell_angle_alpha                 91.974132
_cell_angle_beta                  88.942865
_cell_angle_gamma                 91.671492
_cell_volume                      1662.09429402

loop_
_atom_site_label
_atom_site_type_symbol
_atom_type_description
_atom_site_fract_x
_atom_site_fract_y
_atom_site_fract_z
_atom_type_partial_charge
C1    C     C_R   0.501617 0.260768 0.498457 0.838910
C2    C     C_3   0.947428 0.399692 0.594630 -0.387540
C3    C     C_3   0.917469 0.494420 0.491900 0.299032
C4    C     C_3   0.952357 0.627761 0.534670 -0.447760
C5    C     C_3   0.050389 0.628745 0.538542 -0.401909
C6    C     C_1   0.825809 0.496682 0.493672 -0.120341
C7    C     C_1   0.174258 0.497777 0.501034 -0.117218
C8    C     C_1   0.249627 0.498792 0.502543 -0.190901
C9    C     C_R   0.653127 0.141103 0.586966 -0.195418
C10   C     C_R   0.723518 0.080837 0.637261 0.286342
C11   C     C_R   0.723212 0.948895 0.636781 -0.224177
C12   C     C_R   0.338577 0.499850 0.501048 0.882887
C13   C     C_R   0.652299 0.878468 0.592354 -0.224005
C14   C     C_R   0.579577 0.938964 0.547891 0.089352
C15   C     C_R   0.580279 0.070818 0.543698 0.046571
C16   C     C_R   0.507153 0.128331 0.496731 -0.060005
C17   C     C_R   0.434297 0.059301 0.460107 -0.238512
C18   C     C_R   0.434012 0.930688 0.462384 -0.199124
C19   C     C_R   0.505743 0.871657 0.505620 -0.071213
C20   C     C_R   0.361111 0.379562 0.131441 0.206082
C21   C     C_R   0.283021 0.381041 0.065401 -0.162089
C22   C     C_R   0.285345 0.371874 0.926338 -0.251026
C23   C     C_R   0.501751 0.739127 0.501877 0.859696
C24   C     C_R   0.363218 0.387373 0.859561 -0.130213
C25   C     C_R   0.432764 0.444298 0.926921 0.151374
C26   C     C_R   0.432219 0.443233 0.070453 0.083119
C27   C     C_R   0.564645 0.553904 0.071513 -0.104725
C28   C     C_R   0.564681 0.553681 0.928883 -0.111769
C29   C     C_R   0.661471 0.500439 0.498833 0.874413
C30   C     C_3   0.045491 0.398687 0.595290 -0.418316
C31   C     C_3   0.052817 0.460630 0.353781 -0.402983
C32   C     C_3   0.953790 0.459529 0.348583 0.023861
C33   C     C_1   0.750432 0.498686 0.496021 -0.189361
C34   C     C_3   0.082831 0.496586 0.497309 0.334210
H1    H     H_    0.921464 0.303222 0.570562 0.183994
H2    H     H_    0.068217 0.420756 0.698689 0.171600
H3    H     H_    0.923391 0.427338 0.696685 0.177504
H4    H     H_    0.931766 0.698683 0.463185 0.164403
H5    H     H_    0.376619 0.104835 0.433879 0.140229
H6    H     H_    0.655903 0.242657 0.582122 0.149695
H7    H     H_    0.777609 0.900343 0.672569 0.129362
H8    H     H_    0.654778 0.776773 0.594321 0.148988
H9    H     H_    0.377325 0.876880 0.432398 0.142701
H10   H     H_    0.617457 0.598516 0.124645 0.145784
H11   H     H_    0.067260 0.302652 0.565475 0.162927
H12   H     H_    0.224679 0.351762 0.116456 0.143431
H13   H     H_    0.229204 0.340224 0.872055 0.153028
H14   H     H_    0.368595 0.349564 0.759205 0.195328
H15   H     H_    0.617551 0.598236 0.876029 0.144048
H16   H     H_    0.079686 0.529649 0.281669 0.151170
H17   H     H_    0.078359 0.367025 0.322964 0.170933
H18   H     H_    0.935096 0.534996 0.280846 0.147312
H19   H     H_    0.071707 0.656325 0.641455 0.175912
H20   H     H_    0.077153 0.700448 0.469350 0.166827
H21   H     H_    0.926526 0.656237 0.635517 0.178419
N1    N     N_R   0.499210 0.498800 0.142780 -0.120621
N2    N     N_R   0.499180 0.498720 0.857170 -0.113402
O1    O     O_R   0.500000 0.316780 0.614690 -0.627494
O2    O     O_R   0.499990 0.316750 0.385360 -0.641232
O3    O     O_R   0.377150 0.500020 0.614720 -0.626836
O4    O     O_R   0.377140 0.499990 0.385380 -0.622167
O5    O     O_R   0.500010 0.683250 0.614640 -0.608943
O6    O     O_R   0.500000 0.683220 0.385310 -0.605839
O7    O     O_R   0.622860 0.500010 0.614620 -0.629089
O8    O     O_R   0.622850 0.499980 0.385280 -0.611023
Zn1   Zn    Zn3+2 0.500010 0.500020 0.653130 0.935324
Zn2   Zn    Zn3+2 0.499990 0.499980 0.346870 0.935292
N3    N     N_2   0.795177 0.152523 0.686255 -0.327485
H22   H     H_    0.848558 0.100467 0.700370 0.211481
C35   C     C_3   0.777304 0.238368 0.798564 -0.807539
H23   H     H_    0.734085 0.313084 0.768856 0.259685
H24   H     H_    0.748094 0.185950 0.883129 0.248528
H25   H     H_    0.837464 0.284870 0.833462 0.228889
C36   C     C_3   0.375621 0.259524 0.204839 -0.340924
C37   C     C_3   0.328372 0.140743 0.148485 -0.952217
H26   H     H_    0.258927 0.145051 0.169991 0.254822
H27   H     H_    0.339937 0.129528 0.038639 0.281046
H28   H     H_    0.351995 0.055776 0.196104 0.262990
H29   H     H_    0.443684 0.236055 0.193123 0.241026
H30   H     H_    0.355566 0.274021 0.310879 0.213269
C38   C     C_3   0.917655 0.332176 0.288909 -0.390866
C39   C     C_3   0.936375 0.317118 0.138349 -0.922207
H31   H     H_    0.907505 0.394422 0.084041 0.256934
H32   H     H_    0.005999 0.317908 0.117368 0.257866
H33   H     H_    0.908500 0.225838 0.099866 0.257381
H34   H     H_    0.944753 0.251680 0.340430 0.211005
H35   H     H_    0.847435 0.325871 0.303107 0.221508

loop_
_geom_bond_atom_site_label_1
_geom_bond_atom_site_label_2
_ccdc_geom_bond_type
C2    H1    S    
C30   H11   S    
N2    Zn1   S    
C3    C6    S    
C38   C39   S    
C7    C8    T    
C28   N2    A    
C32   C38   S    
C5    H19   S    
C1    O2    A    
C15   C16   A    
C29   C33   S    
C18   C19   A    
C17   H5    S    
C32   H18   S    
O2    Zn2   S    
C27   H10   S    
O1    Zn1   S    
C23   O5    A    
C16   C17   A    
O8    Zn2   S    
C35   H23   S    
C13   C14   A    
C9    C10   A    
C38   H34   S    
C23   O6    A    
C22   H13   S    
C29   O7    A    
O3    Zn1   S    
C36   H30   S    
C21   C22   A    
C25   N2    A    
C13   H8    S    
O6    Zn2   S    
C36   C37   S    
O5    Zn1   S    
C24   H14   S    
C5    H20   S    
C24   C25   A    
C30   C34   S    
C27   N1    A    
N3    H22   S    
C25   C26   A    
C9    H6    S    
O7    Zn1   S    
C19   C23   S    
C37   H26   S    
C28   H15   S    
O4    Zn2   S    
C31   C32   S    
C8    C12   S    
C5    C34   S    
C35   H25   S    
C17   C18   A    
C31   C34   S    
C20   C36   S    
C1    C16   S    
C37   H27   S    
C38   H35   S    
C29   O8    A    
C4    H4    S    
C39   H32   S    
C36   H29   S    
C4    H21   S    
C7    C34   S    
C22   C24   A    
C31   H16   S    
C3    C4    S    
C39   H33   S    
C21   H12   S    
C14   C19   A    
C31   H17   S    
C4    C5    S    
C26   N1    A    
C10   N3    S    
N1    Zn2   S    
C6    C33   T    
C30   H2    S    
C2    C30   S    
C2    C3    S    
C9    C15   A    
C1    O1    A    
C12   O4    A    
C11   C13   A    
C2    H3    S    
C20   C26   A    
C11   H7    S    
C3    C32   S    
C37   H28   S    
C10   C11   A    
C12   O3    A    
C20   C21   A    
N3    C35   S    
C39   H31   S    
C27   C28   A    
C14   C15   A    
C35   H24   S    
C18   H9    S    
