data_mof_unit_5516.cif
_audit_creation_date              2012-12-11T15:12:26-0500
_audit_creation_method            fapswitch 2.2
_symmetry_space_group_name_H-M    P1
_symmetry_Int_Tables_number       1
_space_group_crystal_system       triclinic
_cell_length_a                    8.250179
_cell_length_b                    17.35837
_cell_length_c                    19.061305
_cell_angle_alpha                 94.435646
_cell_angle_beta                  94.617411
_cell_angle_gamma                 95.16838
_cell_volume                      2699.98461647

loop_
_atom_site_label
_atom_site_type_symbol
_atom_type_description
_atom_site_fract_x
_atom_site_fract_y
_atom_site_fract_z
_atom_type_partial_charge
Ba1   Ba    Ba6+2 0.157360 0.537160 0.466280 1.624574
Ba2   Ba    Ba6+2 0.652820 0.462830 0.533660 1.626157
C1    C     C_3   0.385207 0.736498 0.202497 -0.366611
C2    C     C_R   0.860932 0.747112 0.511030 0.083326
C3    C     C_R   0.918111 0.826909 0.519084 -0.110870
C4    C     C_3   0.926185 0.749395 0.312930 0.353577
C5    C     C_R   0.821325 0.882756 0.491337 -0.002984
C6    C     C_R   0.665002 0.857437 0.457412 -0.133333
C7    C     C_R   0.608633 0.777962 0.450245 0.018485
C8    C     C_R   0.889856 0.173765 0.483215 -0.119603
C9    C     C_R   0.947261 0.253567 0.491011 0.061851
C10   C     C_R   0.197185 0.222896 0.553850 0.008935
C11   C     C_R   0.140497 0.143458 0.546965 -0.132711
C12   C     C_3   0.400113 0.709461 0.276479 0.352975
C13   C     C_R   0.984987 0.118081 0.512309 -0.005521
C14   C     C_1   0.926816 0.035060 0.504783 -0.001809
C15   C     C_1   0.879464 0.965784 0.498842 -0.002307
C16   C     C_3   0.946949 0.831492 0.290308 -0.365510
C17   C     C_R   0.097556 0.277158 0.528482 -0.290544
C18   C     C_R   0.610278 0.535147 0.298864 -0.287215
C19   C     C_R   0.459889 0.493818 0.276747 0.068401
C20   C     C_R   0.405574 0.484591 0.204644 -0.124134
C21   C     C_R   0.503044 0.515625 0.154070 -0.017507
C22   C     C_R   0.658071 0.554638 0.177441 -0.138181
C23   C     C_3   0.478838 0.703643 0.646090 0.397809
C24   C     C_R   0.712280 0.562812 0.249557 0.014113
C25   C     C_R   0.477903 0.564172 0.032806 -0.078126
C26   C     C_R   0.426630 0.553741 0.960567 -0.077326
C27   C     C_R   0.342879 0.483171 0.930357 0.060710
C28   C     C_3   0.774141 0.372687 0.320706 0.312400
C29   C     C_R   0.309818 0.423690 0.974725 -0.078459
C30   C     C_R   0.361097 0.434155 0.047113 -0.075899
C31   C     C_R   0.446398 0.504502 0.077121 0.063348
C32   C     C_R   0.137466 0.434063 0.826907 -0.136963
C33   C     C_R   0.088600 0.428084 0.754153 0.017374
C34   C     C_3   0.406062 0.779587 0.664736 -0.326063
C35   C     C_R   0.345294 0.496656 0.732005 0.050735
C36   C     C_R   0.395004 0.503215 0.804361 -0.116517
C37   C     C_R   0.292223 0.471816 0.852875 -0.014897
C38   C     C_R   0.195556 0.456677 0.707123 -0.281527
C39   C     C_3   0.752649 0.352264 0.241235 -0.395103
C40   C     C_3   0.030159 0.622095 0.677819 0.296403
C41   C     C_3   0.057975 0.640495 0.757466 -0.401606
C42   C     C_3   0.267789 0.305368 0.380630 0.313893
C43   C     C_3   0.245437 0.218055 0.361870 -0.392771
C44   C     C_3   0.874206 0.246295 0.684348 0.361545
C45   C     C_3   0.847192 0.163598 0.705063 -0.364899
C46   C     C_3   0.405395 0.287539 0.724529 0.362545
C47   C     C_3   0.424691 0.259396 0.798013 -0.366007
C48   C     C_R   0.708596 0.723738 0.475297 -0.258937
H1    H     H_    0.314587 0.656366 0.277180 0.095142
H2    H     H_    0.149050 0.325520 0.392664 0.009048
H3    H     H_    0.357610 0.317960 0.427615 0.066980
H4    H     H_    0.258610 0.750714 0.188656 0.146549
H5    H     H_    0.152902 0.203782 0.316001 0.123773
H6    H     H_    0.203752 0.187646 0.407053 0.065374
H7    H     H_    0.363273 0.197098 0.348307 0.126605
H8    H     H_    0.527485 0.695369 0.288378 -0.057605
H9    H     H_    0.414552 0.689738 0.163813 0.071310
H10   H     H_    0.413253 0.677451 0.595704 0.090356
H11   H     H_    0.471268 0.810158 0.713734 0.104943
H12   H     H_    0.651705 0.305343 0.227814 0.124128
H13   H     H_    0.416232 0.817883 0.620879 0.082745
H14   H     H_    0.275392 0.768023 0.673430 0.129401
H15   H     H_    0.471686 0.788809 0.199662 0.109518
H16   H     H_    0.912760 0.872986 0.332661 0.073158
H17   H     H_    0.804712 0.249743 0.632505 0.088462
H18   H     H_    0.006661 0.259545 0.679243 -0.066385
H19   H     H_    0.715408 0.147801 0.709964 0.152224
H20   H     H_    0.889199 0.122835 0.664102 0.072498
H21   H     H_    0.917425 0.158190 0.756362 0.107405
H22   H     H_    0.275081 0.296733 0.712503 -0.064739
H23   H     H_    0.723266 0.403557 0.213452 0.066396
H24   H     H_    0.482209 0.343495 0.724790 0.090354
H25   H     H_    0.386868 0.303457 0.837214 0.069663
H26   H     H_    0.554213 0.249989 0.812148 0.149872
H27   H     H_    0.005562 0.747305 0.362512 0.089796
H28   H     H_    0.346865 0.204048 0.799725 0.107767
H29   H     H_    0.773372 0.155151 0.453736 0.087377
H30   H     H_    0.587145 0.899185 0.437212 0.078080
H31   H     H_    0.218171 0.101713 0.567303 0.078239
H32   H     H_    0.035822 0.845353 0.547593 0.079761
H33   H     H_    0.663894 0.662846 0.470093 0.071804
H34   H     H_    0.867382 0.332392 0.222681 0.124906
H35   H     H_    0.142367 0.338033 0.533671 0.069563
H36   H     H_    0.511510 0.535023 0.822770 0.082625
H37   H     H_    0.451058 0.601546 0.928462 0.062987
H38   H     H_    0.540674 0.619502 0.054166 0.061866
H39   H     H_    0.796403 0.736075 0.323109 -0.066068
H40   H     H_    0.288242 0.452548 0.188197 0.083996
H41   H     H_    0.247180 0.368393 0.953181 0.061616
H42   H     H_    0.336793 0.386427 0.079313 0.059669
H43   H     H_    0.052596 0.412815 0.863072 0.074869
H44   H     H_    0.739025 0.575821 0.139725 0.077240
H45   H     H_    0.139937 0.599714 0.657677 0.003060
H46   H     H_    0.156530 0.453796 0.651326 0.062749
H47   H     H_    0.653029 0.540934 0.354364 0.068886
H48   H     H_    0.076153 0.847097 0.280408 0.146725
H49   H     H_    0.867012 0.835815 0.241307 0.110092
H50   H     H_    0.657734 0.389622 0.338833 0.007510
H51   H     H_    0.870917 0.421716 0.332516 0.068115
H52   H     H_    0.713743 0.740522 0.684676 0.192919
H53   H     H_    0.691624 0.667753 0.620553 0.173931
H54   H     H_    0.925459 0.577140 0.666306 0.086026
H55   H     H_    0.168358 0.682144 0.770892 0.130595
H56   H     H_    0.075051 0.586987 0.784025 0.070419
H57   H     H_    0.950418 0.666335 0.777475 0.122090
N1    N     N_3   0.650245 0.720791 0.635929 -0.527398
O1    O     O_2   0.143190 0.684560 0.534150 -0.467597
O2    O     O_2   0.753892 0.442202 0.751115 -0.490991
O3    O     O_3   0.818857 0.297316 0.736077 -0.597617
O4    O     O_3   0.882350 0.590230 0.535560 -0.493237
O5    O     O_3   0.431150 0.462160 0.416880 -0.486324
O6    O     O_2   0.634060 0.535220 0.669530 -0.460146
O7    O     O_3   0.463654 0.655620 0.701902 -0.651596
O8    O     O_2   0.532982 0.224162 0.545190 -0.489862
O9    O     O_3   0.455931 0.232044 0.675418 -0.597626
O10   O     O_3   0.372640 0.639320 0.408320 -0.489139
O11   O     O_2   0.270344 0.775112 0.453167 -0.490678
O12   O     O_3   0.323356 0.340956 0.322555 -0.635904
O13   O     O_3   0.998754 0.690370 0.647046 -0.645293
O14   O     O_3   0.360017 0.768416 0.324981 -0.602223
O15   O     O_2   0.176230 0.464730 0.330450 -0.463053
O16   O     O_3   0.952380 0.601530 0.373300 -0.491523
O17   O     O_2   0.048410 0.554291 0.248139 -0.489166
O18   O     O_3   0.971769 0.697372 0.259441 -0.599614
O19   O     O_2   0.667110 0.315390 0.465830 -0.457469
O20   O     O_3   0.927950 0.409760 0.464380 -0.495763
O21   O     O_3   0.437660 0.360670 0.591630 -0.483652
O22   O     O_3   0.817137 0.307123 0.353129 -0.635508
O23   O     O_3   0.379150 0.537830 0.583060 -0.481107
O24   O     O_3   0.857920 0.398470 0.626650 -0.487836
P1    P     P_3+3 0.970290 0.672580 0.555000 0.975727
P2    P     P_3+3 0.347000 0.441860 0.341200 0.986839
P3    P     P_3+3 0.921418 0.602717 0.281558 0.941868
P4    P     P_3+3 0.840010 0.327410 0.444950 0.986040
P5    P     P_3+3 0.879341 0.392458 0.718154 0.945768
P6    P     P_3+3 0.402734 0.740984 0.410478 0.946920
P7    P     P_3+3 0.453601 0.556588 0.672132 0.940016
P8    P     P_3+3 0.405905 0.259165 0.590440 0.945546

loop_
_geom_bond_atom_site_label_1
_geom_bond_atom_site_label_2
_ccdc_geom_bond_type
C12   O14   S    
C11   H31   S    
C34   H14   S    
C32   H43   S    
O4    P1    S    
C5    C6    A    
C25   C31   A    
Ba2   O4    S    
C36   H36   S    
C46   H22   S    
C26   C27   A    
C22   C24   A    
C32   C33   A    
C35   C38   A    
C8    C13   A    
O20   P4    S    
Ba1   O4    S    
C36   C37   A    
C1    H4    S    
C42   O12   S    
C13   C14   S    
C28   H50   S    
C43   H7    S    
Ba2   O21   S    
C47   H28   S    
C10   C17   A    
Ba1   Ba2   S    
C41   H55   S    
C45   H19   S    
C24   P3    S    
Ba1   O1    S    
C42   H3    S    
C18   H47   S    
C29   C30   A    
C12   H8    S    
C6    C7    A    
C21   C31   S    
C23   N1    S    
Ba2   O24   S    
C21   C22   A    
C10   P8    S    
C28   C39   S    
H52   N1    S    
H53   N1    S    
C23   H10   S    
C34   H13   S    
C43   H6    S    
Ba2   O19   S    
O17   P3    D    
C19   C20   A    
C1    H15   S    
Ba1   O5    S    
C39   H12   S    
C38   H46   S    
Ba1   P1    S    
C48   H33   S    
C4    C16   S    
O15   P2    D    
O1    P1    D    
C40   H45   S    
C46   H24   S    
O19   P4    D    
O14   P6    S    
C3    C5    A    
C14   C15   T    
C4    H27   S    
C5    C15   S    
O24   P5    S    
C28   O22   S    
C39   H34   S    
Ba2   P4    S    
C32   C37   A    
C2    C48   A    
C41   H56   S    
Ba1   O15   S    
C45   H20   S    
C44   H18   S    
C35   C36   A    
C22   H44   S    
C7    P6    S    
C12   H1    S    
C9    C17   A    
C27   C37   S    
C26   H37   S    
C47   H25   S    
Ba2   O23   S    
C20   H40   S    
C47   H26   S    
C41   H57   S    
O6    P7    D    
C18   C19   A    
C4    O18   S    
C1    C12   S    
Ba1   O20   S    
C46   C47   S    
O7    P7    S    
O18   P3    S    
C29   H41   S    
O5    P2    S    
C11   C13   A    
C35   P7    S    
O9    P8    S    
C40   C41   S    
C45   H21   S    
Ba1   P2    S    
C19   P2    S    
C42   C43   S    
O3    P5    S    
C44   C45   S    
O16   P3    S    
O11   P6    D    
O2    P5    D    
O22   P4    S    
C7    C48   A    
C2    C3    A    
C17   H35   S    
C40   H54   S    
C8    H29   S    
C46   O9    S    
C16   H16   S    
C4    H39   S    
C30   C31   A    
C23   O7    S    
C33   C38   A    
Ba1   O16   S    
C44   H17   S    
C27   C29   A    
O10   P6    S    
C9    P4    S    
C33   P5    S    
C3    H32   S    
Ba2   O6    S    
C42   H2    S    
C30   H42   S    
O21   P8    S    
C18   C24   A    
Ba1   O23   S    
C28   H51   S    
Ba2   O5    S    
O12   P2    S    
Ba1   O10   S    
C25   H38   S    
O23   P7    S    
C8    C9    A    
C23   C34   S    
C39   H23   S    
C10   C11   A    
C43   H5    S    
C16   H49   S    
C25   C26   A    
C6    H30   S    
C20   C21   A    
C16   H48   S    
O13   P1    S    
C44   O3    S    
C34   H11   S    
C40   O13   S    
C1    H9    S    
C2    P1    S    
O8    P8    D    
Ba2   O20   S    
