data_mof_unit_26682.cif
_audit_creation_date              2013-03-05T16:06:56-0500
_audit_creation_method            fapswitch 2.2
_symmetry_space_group_name_H-M    P1
_symmetry_Int_Tables_number       1
_space_group_crystal_system       triclinic
_cell_length_a                    14.546242
_cell_length_b                    16.193337
_cell_length_c                    6.914992
_cell_angle_alpha                 89.999701
_cell_angle_beta                  98.604856
_cell_angle_gamma                 90.000204
_cell_volume                      1610.50684717

loop_
_atom_site_label
_atom_site_type_symbol
_atom_site_description
_atom_site_fract_x
_atom_site_fract_y
_atom_site_fract_z
_atom_type_partial_charge
O1    O     O_R   0.584990 0.413650 0.534420 -0.585028
O2    O     O_R   0.584990 0.586350 0.534420 -0.585030
O3    O     O_R   0.596190 0.585230 0.208380 -0.534252
O4    O     O_R   0.596190 0.414770 0.208380 -0.534248
O5    O     O_R   0.415010 0.586420 0.976930 -0.605520
O6    O     O_R   0.415010 0.413580 0.976930 -0.605524
C1    C     C_R   0.620312 0.613225 0.384645 1.076895
C2    C     C_R   0.620314 0.386777 0.384647 1.076913
O7    O     O_3   0.440560 0.500000 0.319140 -0.308885
V1    V     V_3+5 0.511030 0.500000 0.068070 1.338210
O8    O     O_R   0.403810 0.414840 0.643540 -0.598893
O9    O     O_R   0.403810 0.585160 0.643540 -0.598906
C3    C     C_R   0.381060 0.386640 0.805951 1.064514
C4    C     C_R   0.381060 0.613359 0.805951 1.064498
V2    V     V_3+5 0.488970 0.500000 0.560620 1.284636
O10   O     O_3   0.559440 0.500000 0.859420 -0.206979
H1    H     H_    0.318877 0.694394 0.101349 0.164645
H2    H     H_    0.318882 0.305603 0.101352 0.164653
C5    C     C_2   0.307744 0.676825 0.795590 -0.324351
C6    C     C_2   0.307744 0.323174 0.795593 -0.324351
C7    C     C_2   0.281461 0.710230 0.958098 -0.169657
C8    C     C_2   0.281463 0.289769 0.958102 -0.169683
H3    H     H_    0.241116 0.809520 0.241080 0.170677
H4    H     H_    0.241123 0.190472 0.241078 0.170668
C9    C     C_2   0.192954 0.817050 0.106082 -0.521065
C10   C     C_2   0.192958 0.182947 0.106084 -0.521062
C11   C     C_2   0.202487 0.768809 0.949110 0.553172
C12   C     C_2   0.202488 0.231192 0.949117 0.553158
H5    H     H_    0.273747 0.694970 0.651353 0.201300
H6    H     H_    0.273745 0.305032 0.651356 0.201299
C13   C     C_R   0.697866 0.731255 0.579887 0.019658
C14   C     C_R   0.697878 0.268751 0.579893 0.019679
C15   C     C_R   0.694131 0.678091 0.419001 -0.379259
C16   C     C_R   0.694139 0.321916 0.419010 -0.379246
C17   C     C_R   0.766216 0.686643 0.301846 0.436211
C18   C     C_R   0.766233 0.313377 0.301875 0.436191
C19   C     C_R   0.831811 0.752726 0.335227 0.257288
C20   C     C_R   0.831832 0.247295 0.335245 0.257233
C21   C     C_R   0.826547 0.811254 0.487032 -0.380016
C22   C     C_R   0.826560 0.188757 0.487034 -0.379939
C23   C     C_R   0.761927 0.795295 0.613030 0.182391
C24   C     C_R   0.761940 0.204714 0.613034 0.182262
C25   C     C_3   0.695112 0.851816 0.691180 -0.595004
C26   C     C_3   0.695131 0.148194 0.691214 -0.595056
C27   C     C_3   0.624079 0.781896 0.653454 0.661613
C28   C     C_3   0.624096 0.218113 0.653494 0.661659
H7    H     H_    0.678570 0.907405 0.597994 0.194939
H8    H     H_    0.678585 0.092602 0.598040 0.194956
H9    H     H_    0.717353 0.865567 0.848750 0.240869
H10   H     H_    0.717382 0.134448 0.848783 0.240833
O11   O     O_R   0.921430 0.915960 0.371040 -0.589360
O12   O     O_R   0.921430 0.084040 0.371040 -0.589333
O13   O     O_R   0.910450 0.087500 0.697310 -0.579004
O14   O     O_R   0.910450 0.912500 0.697310 -0.578929
O15   O     O_R   0.091710 0.087460 0.928430 -0.574998
O16   O     O_R   0.091710 0.912540 0.928430 -0.574977
C29   C     C_R   0.889650 0.115657 0.520126 1.066139
C30   C     C_R   0.889645 0.884346 0.520126 1.066049
O17   O     O_3   0.065970 0.000000 0.586140 -0.255461
V3    V     V_3+5 0.995640 0.000000 0.837400 1.306894
O18   O     O_R   0.103020 0.915700 0.261710 -0.576741
O19   O     O_R   0.103020 0.084300 0.261710 -0.576687
C31   C     C_R   0.123142 0.884230 0.099167 1.132093
C32   C     C_R   0.123144 0.115768 0.099167 1.132140
V4    V     V_3+5 0.017940 0.000000 0.344880 1.309449
O20   O     O_3   0.947330 1.000000 0.046180 -0.288906
Cl1   Cl    Cl    0.118282 0.767958 0.734486 -0.547602
Cl2   Cl    Cl    0.118275 0.232051 0.734507 -0.547562
Cl3   Cl    Cl    0.590606 0.740428 0.872714 -0.558273
Cl4   Cl    Cl    0.590640 0.259590 0.872761 -0.558307
Cl5   Cl    Cl    0.779496 0.613102 0.119084 -0.450718
Cl6   Cl    Cl    0.779522 0.386950 0.119183 -0.450712
N1    N     N_R   0.904678 0.758656 0.217316 0.261270
O21   O     O_R   0.884923 0.766180 0.028399 -0.344189
O22   O     O_R   0.991146 0.753661 0.298310 -0.335999
N2    N     N_R   0.904709 0.241379 0.217352 0.261272
O23   O     O_R   0.991177 0.246170 0.298411 -0.336125
O24   O     O_R   0.884976 0.234008 0.028409 -0.344035
N3    N     N_R   0.545374 0.801222 0.500980 0.224507
O25   O     O_R   0.460450 0.787457 0.530599 -0.372099
O26   O     O_R   0.559517 0.831155 0.333125 -0.375620
N4    N     N_R   0.545383 0.198786 0.501044 0.224520
O27   O     O_R   0.460472 0.212593 0.530650 -0.372138
O28   O     O_R   0.559510 0.168831 0.333202 -0.375622

loop_
_geom_bond_atom_site_label_1
_geom_bond_atom_site_label_2
_geom_bond_distance
_ccdc_geom_bond_type
C26   H8    1.112224 S    
O1    C2    1.298176 A    
C1    C15   1.495483 S    
N1    O21   1.300642 A    
O2    C1    1.298182 A    
O4    C2    1.298580 A    
C21   C23   1.398048 A    
C6    H6    1.085402 S    
N2    O24   1.300565 A    
C12   Cl2   1.777390 S    
H4    C10   1.086924 S    
O3    C1    1.298575 A    
C9    C31   1.484074 S    
V2    O10   2.164755 S    
O11   V4    1.982809 S    
O18   C31   1.306584 A    
C10   C32   1.484068 S    
O19   C32   1.306578 A    
C28   N4    1.469376 S    
O8    V2    1.994377 S    
C13   C15   1.401335 A    
O1    V2    2.003659 S    
O7    V1    2.144186 S    
O19   V4    1.984656 S    
C22   C24   1.398046 A    
C7    C11   1.483911 S    
V3    O20   1.697563 S    
O17   V3    2.144125 S    
C8    C12   1.483905 S    
O15   V3    2.022796 S    
C20   N2    1.433943 S    
C23   C25   1.493833 S    
C24   C26   1.493837 S    
O13   V3    2.030385 S    
C26   C28   1.528732 S    
C27   Cl3   1.791007 S    
N2    O23   1.300483 A    
N3    O26   1.302291 A    
O13   C29   1.299876 A    
C25   H9    1.111743 S    
O14   V3    2.030386 S    
C21   C30   1.494285 S    
H1    C7    1.087158 S    
O16   V3    2.022800 S    
C14   C16   1.401322 A    
O9    V2    1.994386 S    
O15   C32   1.285144 A    
O16   C31   1.285143 A    
C27   N3    1.469381 S    
O11   C30   1.296640 A    
C2    C16   1.495485 S    
O2    V2    2.003650 S    
C25   C27   1.528718 S    
O5    C4    1.287380 A    
O9    C4    1.300206 A    
N4    O27   1.301206 A    
N4    O28   1.302288 A    
N1    O22   1.300558 A    
O4    V1    2.005262 S    
C5    H5    1.085401 S    
O14   C30   1.299869 A    
C26   H10   1.111747 S    
C19   N1    1.433903 S    
C22   C29   1.494306 S    
C13   C23   1.390094 A    
C3    C6    1.475071 S    
C17   C19   1.429299 A    
H2    C8    1.087157 S    
C14   C28   1.498901 S    
C4    C5    1.475076 S    
C6    C8    1.352820 D    
O6    V1    2.010731 S    
C9    C11   1.361162 D    
C10   C12   1.361154 D    
C18   C20   1.429334 A    
O7    V2    1.712411 S    
O5    V1    2.010732 S    
C19   C21   1.424819 A    
O3    V1    2.005262 S    
V1    O10   1.697531 S    
O17   V4    1.709560 S    
O6    C3    1.287380 A    
C20   C22   1.424867 A    
O8    C3    1.300204 A    
C15   C17   1.424486 A    
C16   C18   1.424480 A    
H3    C9    1.086924 S    
C28   Cl4   1.791008 S    
C11   Cl1   1.777399 S    
O12   C29   1.296642 A    
C17   Cl5   1.767983 S    
N3    O25   1.301300 A    
O18   V4    1.984667 S    
V4    O20   2.164820 S    
C13   C27   1.498910 S    
C14   C24   1.390075 A    
C25   H7    1.112223 S    
O12   V4    1.982816 S    
C18   Cl6   1.767990 S    
C5    C7    1.352822 D    
