data_mof_unit_19710.cif
_audit_creation_date              2012-12-11T16:06:23-0500
_audit_creation_method            fapswitch 2.2
_symmetry_space_group_name_H-M    P1
_symmetry_Int_Tables_number       1
_space_group_crystal_system       triclinic
_cell_length_a                    7.200125
_cell_length_b                    14.456826
_cell_length_c                    15.861884
_cell_angle_alpha                 89.991355
_cell_angle_beta                  90.01008
_cell_angle_gamma                 89.985205
_cell_volume                      1651.07854321

loop_
_atom_site_label
_atom_site_type_symbol
_atom_type_description
_atom_site_fract_x
_atom_site_fract_y
_atom_site_fract_z
_atom_type_partial_charge
O1    O     O_R   0.388780 0.834790 0.412340 -0.490078
O2    O     O_R   0.111220 0.165210 0.912340 -0.485250
O3    O     O_R   0.888780 0.665210 0.587660 -0.482623
O4    O     O_R   0.611220 0.334790 0.087660 -0.486640
O5    O     O_R   0.059040 0.845930 0.587040 -0.536689
O6    O     O_R   0.440960 0.154070 0.087040 -0.530548
O7    O     O_R   0.559040 0.654070 0.412960 -0.537915
O8    O     O_R   0.940960 0.345930 0.912960 -0.534458
C1    C     C_R   0.227873 0.867449 0.615713 0.847886
C2    C     C_R   0.272336 0.131164 0.114410 0.811658
C3    C     C_R   0.727898 0.632639 0.384260 0.833376
C4    C     C_R   0.772116 0.367308 0.884209 0.823776
O9    O     O_R   0.059070 0.845930 0.412970 -0.538569
O10   O     O_R   0.440930 0.154070 0.912970 -0.529306
O11   O     O_R   0.559070 0.654070 0.587030 -0.532956
O12   O     O_R   0.940930 0.345930 0.087030 -0.527391
O13   O     O_R   0.888760 0.665210 0.412340 -0.551629
O14   O     O_R   0.611240 0.334790 0.912340 -0.552869
O15   O     O_R   0.388760 0.834790 0.587660 -0.550221
O16   O     O_R   0.111240 0.165210 0.087660 -0.559495
C5    C     C_R   0.227997 0.867062 0.383860 0.834767
C6    C     C_R   0.272180 0.131430 0.885248 0.810920
C7    C     C_R   0.727839 0.631531 0.614862 0.823602
C8    C     C_R   0.772193 0.368467 0.114881 0.810724
O17   O     O_3   0.222280 0.690700 0.500000 -0.374076
O18   O     O_3   0.277720 0.309300 0.000000 -0.368909
O19   O     O_3   0.722280 0.809300 0.500000 -0.376592
O20   O     O_3   0.777720 0.190700 0.000000 -0.373877
V1    V     V_3+5 0.947430 0.761000 0.500000 1.662083
V2    V     V_3+5 0.552570 0.239000 0.000000 1.674470
V3    V     V_3+5 0.447430 0.739000 0.500000 1.668969
V4    V     V_3+5 0.052570 0.261000 0.000000 1.674313
C9    C     C_3   0.827112 0.605298 0.766809 1.074134
C10   C     C_3   0.668920 0.395329 0.266206 1.054835
C11   C     C_3   0.446534 0.949442 0.280889 1.047049
C12   C     C_3   0.166076 0.104287 0.734590 1.062208
C13   C     C_3   0.843112 0.532875 0.840008 0.093777
C14   C     C_3   0.653802 0.467581 0.339548 0.105428
C15   C     C_3   0.458413 0.018873 0.205969 0.097634
C16   C     C_3   0.150866 0.032127 0.661234 0.100995
H1    H     H_    0.992380 0.523011 0.856247 0.104466
H2    H     H_    0.504554 0.478454 0.355284 0.110845
H3    H     H_    0.553737 0.076513 0.223592 0.105422
H4    H     H_    0.001566 0.020546 0.646069 0.102460
C17   C     C_3   0.861283 0.475983 0.660008 0.400963
C18   C     C_3   0.642459 0.525032 0.159350 0.402469
C19   C     C_3   0.168070 0.033561 0.340508 0.385681
C20   C     C_3   0.144859 0.974226 0.841254 0.394565
C21   C     C_3   0.541458 0.524083 0.711573 0.118240
C22   C     C_3   0.958996 0.474281 0.213014 0.125626
C23   C     C_3   0.125819 0.904314 0.232660 0.055447
C24   C     C_3   0.459078 0.026695 0.786246 0.116873
C25   C     C_3   0.739082 0.560552 0.686153 -0.344542
C26   C     C_3   0.761036 0.439449 0.186197 -0.332719
C27   C     C_3   0.240418 0.937050 0.311531 -0.293924
C28   C     C_3   0.260961 0.060447 0.814018 -0.330598
H5    H     H_    0.456965 0.583917 0.733498 0.232722
H6    H     H_    0.040575 0.413736 0.235617 0.248026
H7    H     H_    0.189847 0.839383 0.208710 0.219697
H8    H     H_    0.538819 0.087707 0.763403 0.231730
C29   C     C_3   0.760763 0.437679 0.812460 -0.228901
C30   C     C_3   0.739325 0.562257 0.312545 -0.222581
C31   C     C_3   0.262576 0.059915 0.185250 -0.212402
C32   C     C_3   0.239187 0.937801 0.687535 -0.234215
C33   C     C_3   0.864268 0.401739 0.731751 0.126998
C34   C     C_3   0.638888 0.599007 0.231328 0.112498
C35   C     C_3   0.176492 0.104558 0.266292 0.111345
C36   C     C_3   0.141287 0.900389 0.769114 0.126018
C37   C     C_3   0.554467 0.454545 0.785991 -0.460035
C38   C     C_3   0.945834 0.544058 0.287217 -0.463393
C39   C     C_3   0.134832 0.977547 0.160166 -0.443334
C40   C     C_3   0.445804 0.957028 0.711974 -0.462280
H9    H     H_    0.473639 0.482048 0.840316 0.225127
H10   H     H_    0.024662 0.516218 0.342023 0.230609
H11   H     H_    0.186935 0.944194 0.101545 0.218465
H12   H     H_    0.522750 0.985381 0.656858 0.231336
H13   H     H_    0.487957 0.387706 0.768584 0.208522
H14   H     H_    0.014370 0.610455 0.270017 0.188315
H15   H     H_    0.993610 0.003709 0.144954 0.167980
H16   H     H_    0.516208 0.890972 0.728761 0.204441
H17   H     H_    0.804219 0.444227 0.601709 0.092060
H18   H     H_    0.702813 0.556601 0.101661 0.084453
H19   H     H_    0.022038 0.027615 0.362502 0.111146
H20   H     H_    0.207202 0.942859 0.898630 0.066216
H21   H     H_    0.786580 0.340317 0.708331 0.146155
H22   H     H_    0.718484 0.660134 0.208575 0.153439
H23   H     H_    0.030652 0.124255 0.251256 0.143524
H24   H     H_    0.222600 0.839603 0.791410 0.145426
F1    F     F_    0.003078 0.639216 0.749130 -0.641018
F2    F     F_    0.492047 0.363440 0.247356 -0.632499
F3    F     F_    0.556779 0.982174 0.346198 -0.654818
F4    F     F_    0.988937 0.135364 0.754180 -0.639562
F5    F     F_    0.719014 0.679917 0.791968 -0.662771
F6    F     F_    0.773004 0.319447 0.291750 -0.669180
F7    F     F_    0.517784 0.864153 0.256567 -0.651155
F8    F     F_    0.268168 0.180709 0.708782 -0.656944
O21   O     O_3   0.750553 0.564686 0.912587 -0.619495
H25   H     H_    0.830884 0.612778 0.938437 0.333111
O22   O     O_3   0.744245 0.434865 0.412368 -0.615839
H26   H     H_    0.661956 0.387397 0.437908 0.341915
O23   O     O_3   0.530517 0.974769 0.133852 -0.604679
H27   H     H_    0.666893 0.970314 0.141618 0.327116
O24   O     O_3   0.238745 0.065659 0.588216 -0.571335
H28   H     H_    0.156670 0.114410 0.564551 0.380316
F9    F     F_    0.039984 0.504175 0.639877 -0.575312
F10   F     F_    0.463800 0.498288 0.137565 -0.577264
F11   F     F_    0.269158 0.064600 0.409275 -0.596499
F12   F     F_    0.966166 0.000045 0.863903 -0.583005
O25   O     O_3   0.045854 0.370571 0.748850 -0.551836
H29   H     H_    0.121140 0.424025 0.767700 0.344550
O26   O     O_3   0.457479 0.631017 0.247484 -0.581175
H30   H     H_    0.380502 0.577804 0.265487 0.342631
O27   O     O_3   0.267409 0.187065 0.289324 -0.552289
H31   H     H_    0.395579 0.171620 0.307143 0.380925
O28   O     O_3   0.960230 0.867550 0.753616 -0.553789
H32   H     H_    0.881689 0.920454 0.736205 0.347361
O29   O     O_3   0.445805 0.485469 0.642421 -0.564035
H33   H     H_    0.500718 0.424240 0.629372 0.315263
O30   O     O_3   0.058433 0.511991 0.144558 -0.569027
H34   H     H_    0.005926 0.573598 0.130938 0.301337
O31   O     O_3   0.940809 0.882305 0.253048 -0.597131
H35   H     H_    0.875010 0.940595 0.266638 0.332630
O32   O     O_3   0.560898 0.989339 0.854165 -0.560127
H36   H     H_    0.510067 0.927427 0.867887 0.320735

loop_
_geom_bond_atom_site_label_1
_geom_bond_atom_site_label_2
_ccdc_geom_bond_type
O17   V3    S    
O1    C5    A    
O23   H27   S    
O19   V1    S    
C1    C32   S    
O13   V1    S    
C37   H13   S    
O26   H30   S    
C40   H12   S    
C3    C30   S    
O15   V3    S    
C13   O21   S    
O21   H25   S    
O32   H36   S    
O18   V4    S    
C22   C26   S    
C24   C40   S    
C32   C36   S    
O9    V1    S    
C34   H22   S    
C18   C34   S    
O4    C8    A    
C24   O32   S    
C36   H24   S    
C38   H14   S    
C8    C26   S    
O28   H32   S    
O1    V3    S    
C21   H5    S    
C30   C38   S    
O2    V4    S    
C19   C35   S    
O3    V1    S    
C38   H10   S    
C24   H8    S    
C18   H18   S    
O3    C7    A    
C1    O15   A    
C21   O29   S    
C2    C31   S    
C2    O16   A    
O2    C6    A    
C7    C25   S    
O14   V2    S    
C19   H19   S    
C34   O26   S    
C12   F4    S    
O11   C7    A    
C17   C25   S    
O12   C8    A    
C21   C37   S    
C13   H1    S    
C23   C39   S    
O10   V2    S    
C39   H15   S    
C17   F9    S    
C15   O23   S    
O5    V1    S    
C9    C25   S    
C31   C35   S    
O7    V3    S    
C30   C34   S    
C11   C27   S    
C22   O30   S    
C22   H6    S    
C12   C16   S    
C5    C27   S    
C6    C28   S    
O11   V3    S    
C9    C13   S    
C20   H20   S    
O8    V4    S    
C11   C15   S    
C10   F2    S    
O5    C1    A    
C12   C28   S    
C9    F1    S    
C12   F8    S    
O7    C3    A    
O22   H26   S    
O8    C4    A    
C18   C26   S    
O9    C5    A    
C20   C36   S    
C37   H9    S    
C33   O25   S    
O31   H35   S    
O6    V2    S    
C31   C39   S    
C10   C26   S    
C19   F11   S    
C17   C33   S    
C23   O31   S    
C23   H7    S    
C19   C27   S    
O27   H31   S    
O16   V4    S    
C29   C37   S    
C20   C28   S    
C3    O13   A    
C10   C14   S    
C17   H17   S    
C10   F6    S    
C14   O22   S    
C9    F5    S    
O6    C2    A    
C13   C29   S    
O30   H34   S    
C33   H21   S    
C11   F7    S    
O12   V4    S    
C15   C31   S    
C35   H23   S    
C16   C32   S    
O10   C6    A    
O20   V2    S    
C35   O27   S    
C40   H16   S    
O25   H29   S    
C16   O24   S    
C39   H11   S    
C4    C29   S    
C20   F12   S    
C21   C25   S    
C18   F10   S    
C23   C27   S    
C32   C40   S    
C22   C38   S    
C36   O28   S    
C14   H2    S    
C29   C33   S    
C16   H4    S    
C15   H3    S    
C4    O14   A    
O24   H28   S    
O29   H33   S    
O4    V2    S    
C24   C28   S    
C14   C30   S    
C11   F3    S    
