data_mof_unit_33234.cif
_audit_creation_date              2012-12-11T15:06:58-0500
_audit_creation_method            fapswitch 2.2
_symmetry_space_group_name_H-M    P1
_symmetry_Int_Tables_number       1
_space_group_crystal_system       triclinic
_cell_length_a                    19.601868
_cell_length_b                    11.2867
_cell_length_c                    18.718799
_cell_angle_alpha                 90.058874
_cell_angle_beta                  90.17503
_cell_angle_gamma                 89.99773
_cell_volume                      4141.333132

loop_
_atom_site_label
_atom_site_type_symbol
_atom_type_description
_atom_site_fract_x
_atom_site_fract_y
_atom_site_fract_z
_atom_type_partial_charge
C1    C     C_R   0.761304 0.523597 0.639108 0.537108
C2    C     C_3   0.252945 0.056620 0.563179 0.066465
C3    C     C_R   0.739059 0.032732 0.150688 0.536078
C4    C     C_R   0.773884 0.131718 0.858595 0.532923
C5    C     C_R   0.225874 0.132950 0.141041 0.533886
C6    C     C_R   0.274415 0.633494 0.859116 0.534169
C7    C     C_R   0.725555 0.633370 0.140751 0.533791
C8    C     C_R   0.969889 0.353274 0.853264 0.532628
C9    C     C_R   0.032226 0.353187 0.145508 0.535702
C10   C     C_R   0.467790 0.853242 0.854378 0.535675
C11   C     C_R   0.531791 0.853106 0.145757 0.535666
C12   C     C_3   0.687204 0.132616 0.465256 -0.234560
C13   C     C_3   0.247048 0.556756 0.436802 0.066521
C14   C     C_3   0.312775 0.132516 0.534806 -0.234324
C15   C     C_3   0.187204 0.632616 0.465255 -0.234534
C16   C     C_3   0.812775 0.632516 0.534806 -0.234304
C17   C     C_3   0.692302 0.145197 0.546448 -0.231367
C18   C     C_3   0.307687 0.145129 0.453622 -0.231400
C19   C     C_3   0.192302 0.645197 0.546448 -0.231384
C20   C     C_3   0.807687 0.645129 0.453623 -0.231421
C21   C     C_3   0.756595 0.938875 0.480532 -0.216860
C22   C     C_3   0.243398 0.938782 0.519263 -0.217080
C23   C     C_3   0.256595 0.438875 0.480531 -0.216829
C24   C     C_3   0.752945 0.556620 0.563179 0.066656
C25   C     C_3   0.743398 0.438782 0.519264 -0.217024
C26   C     C_3   0.760042 0.090449 0.574218 0.066637
C27   C     C_3   0.239946 0.090471 0.425783 0.066489
C28   C     C_3   0.260043 0.590449 0.574217 0.066507
C29   C     C_3   0.739946 0.590471 0.425783 0.066377
C30   C     C_3   0.753448 0.957714 0.561816 -0.262903
C31   C     C_3   0.246522 0.957709 0.437997 -0.262649
C32   C     C_3   0.253448 0.457714 0.561815 -0.262896
C33   C     C_R   0.238712 0.523728 0.360862 0.537738
C34   C     C_3   0.746521 0.457709 0.437997 -0.262661
C35   C     C_3   0.823249 0.133431 0.530254 -0.215158
C36   C     C_3   0.176748 0.133421 0.469843 -0.215172
C37   C     C_3   0.323249 0.633431 0.530253 -0.215177
C38   C     C_3   0.676747 0.633421 0.469844 -0.215204
C39   C     C_3   0.003748 0.204499 0.458919 -0.232371
C40   C     C_3   0.996285 0.204450 0.540892 -0.232553
C41   C     C_3   0.503748 0.704499 0.458919 -0.232341
C42   C     C_3   0.496285 0.704449 0.540892 -0.232574
C43   C     C_3   0.064685 0.406256 0.474531 -0.212555
C44   C     C_R   0.261304 0.023597 0.639108 0.537747
C45   C     C_3   0.935321 0.406179 0.525552 -0.212307
C46   C     C_3   0.564685 0.906256 0.474530 -0.212507
C47   C     C_3   0.435321 0.906179 0.525552 -0.212356
C48   C     C_3   0.941463 0.390567 0.444499 -0.262803
C49   C     C_3   0.058552 0.390520 0.555561 -0.262711
C50   C     C_3   0.441463 0.890567 0.444499 -0.262787
C51   C     C_3   0.558552 0.890520 0.555561 -0.262699
C52   C     C_3   0.010514 0.333149 0.430963 0.064744
C53   C     C_3   0.989502 0.333054 0.569026 0.065011
C54   C     C_3   0.510514 0.833148 0.430963 0.064841
C55   C     C_R   0.738712 0.023728 0.360863 0.538045
C56   C     C_3   0.489503 0.833054 0.569026 0.064811
C57   C     C_3   0.813143 0.010398 0.044032 -0.226319
C58   C     C_3   0.185689 0.016664 0.954517 -0.225966
C59   C     C_3   0.314788 0.516181 0.045442 -0.225385
C60   C     C_3   0.679648 0.529408 0.952050 -0.230309
C61   C     C_R   0.774035 0.120843 0.649481 0.536746
C62   C     C_R   0.225952 0.120914 0.350535 0.536982
C63   C     C_R   0.274035 0.620843 0.649481 0.537147
C64   C     C_R   0.725952 0.620915 0.350536 0.537324
C65   C     C_3   0.815637 0.016702 0.963935 -0.234569
C66   C     C_3   0.810978 0.130804 0.449294 -0.261322
C67   C     C_3   0.180542 0.030570 0.033833 -0.227384
C68   C     C_3   0.319922 0.530232 0.966071 -0.226180
C69   C     C_3   0.677295 0.535938 0.032276 -0.225392
C70   C     C_3   0.681542 0.033672 0.030927 -0.212649
C71   C     C_3   0.316967 0.029838 0.969215 -0.214754
C72   C     C_3   0.183663 0.529967 0.030426 -0.215363
C73   C     C_3   0.807116 0.513021 0.968093 -0.220562
C74   C     C_3   0.754779 0.200265 0.062267 -0.260045
C75   C     C_3   0.247155 0.203887 0.938395 -0.260854
C76   C     C_3   0.254157 0.703914 0.061949 -0.261642
C77   C     C_3   0.189018 0.130681 0.550803 -0.261148
C78   C     C_3   0.754179 0.704853 0.938705 -0.255450
C79   C     C_3   0.746845 0.068199 0.074245 0.063565
C80   C     C_3   0.252964 0.070689 0.925382 0.061821
C81   C     C_3   0.247598 0.570577 0.074633 0.061954
C82   C     C_3   0.750060 0.572796 0.924262 0.059180
C83   C     C_3   0.759611 0.102058 0.935526 0.057930
C84   C     C_3   0.240444 0.105294 0.064075 0.061388
C85   C     C_3   0.260216 0.605716 0.936041 0.061638
C86   C     C_3   0.739195 0.605940 0.063435 0.062331
C87   C     C_3   0.691177 0.042916 0.948992 -0.251650
C88   C     C_3   0.310978 0.630804 0.449294 -0.261327
C89   C     C_3   0.304383 0.030654 0.051147 -0.260779
C90   C     C_3   0.196318 0.531472 0.948516 -0.260413
C91   C     C_3   0.800746 0.526956 0.050297 -0.260446
C92   C     C_3   0.760885 0.217500 0.980406 -0.227956
C93   C     C_3   0.251398 0.222814 0.020618 -0.217332
C94   C     C_3   0.249162 0.723144 0.979857 -0.218191
C95   C     C_3   0.754557 0.722349 0.020872 -0.215913
C96   C     C_3   0.008104 0.479639 0.038845 -0.226781
C97   C     C_3   0.003984 0.480108 0.958038 -0.233026
C98   C     C_3   0.504034 0.978755 0.040123 -0.226946
C99   C     C_3   0.689018 0.630681 0.550803 -0.261161
C100  C     C_3   0.496033 0.978809 0.959929 -0.227152
C101  C     C_3   0.063021 0.270141 0.026716 -0.210510
C102  C     C_3   0.933368 0.294798 0.972716 -0.221498
C103  C     C_3   0.563686 0.774965 0.026159 -0.213707
C104  C     C_3   0.435162 0.775626 0.973780 -0.213490
C105  C     C_3   0.942383 0.296979 0.054776 -0.263392
C106  C     C_3   0.056194 0.281655 0.944856 -0.256290
C107  C     C_3   0.441183 0.793080 0.055593 -0.263229
C108  C     C_3   0.557123 0.791355 0.944310 -0.262141
C109  C     C_R   0.969147 0.342092 0.644954 0.534937
C110  C     C_3   0.747047 0.056756 0.436802 0.066423
C111  C     C_R   0.030866 0.342153 0.355048 0.535907
C112  C     C_R   0.469147 0.842091 0.644954 0.535578
C113  C     C_R   0.530866 0.842153 0.355048 0.535613
C114  C     C_3   0.012033 0.350877 0.068735 0.064388
C115  C     C_3   0.991810 0.352204 0.929828 0.059684
C116  C     C_3   0.510611 0.850549 0.069259 0.062845
C117  C     C_3   0.488543 0.850707 0.930859 0.062576
C118  C     C_R   0.759543 0.536445 0.847798 0.531247
C119  C     C_R   0.239397 0.533925 0.151033 0.534827
C120  C     C_R   0.260678 0.034046 0.848939 0.534552
Cr1   Cr    Cr6+3 0.885690 0.492860 0.745310 0.992483
Cr2   Cr    Cr6+3 0.111880 0.178590 0.246990 0.993093
Cr3   Cr    Cr6+3 0.388120 0.678590 0.753010 0.992568
Cr4   Cr    Cr6+3 0.611880 0.678590 0.246990 0.992864
Cr5   Cr    Cr6+3 0.114310 0.492860 0.254690 0.993045
Cr6   Cr    Cr6+3 0.385690 0.992860 0.745310 0.992739
Cr7   Cr    Cr6+3 0.614310 0.992860 0.254690 0.992992
Cr8   Cr    Cr6+3 0.729880 0.332270 0.748190 0.991982
Cr9   Cr    Cr6+3 0.270120 0.332270 0.251810 0.992250
Cr10  Cr    Cr6+3 0.229880 0.832270 0.748190 0.992012
Cr11  Cr    Cr6+3 0.770120 0.832270 0.251810 0.992454
Cr12  Cr    Cr6+3 0.888120 0.178590 0.753010 0.992627
H1    H     H_    0.638030 0.096769 0.449783 0.131233
H2    H     H_    0.190687 0.908777 0.529940 0.124801
H3    H     H_    0.892014 0.350941 0.959244 0.110509
H4    H     H_    0.599530 0.844484 0.922737 0.107100
H5    H     H_    0.399663 0.849809 0.076016 0.108748
H6    H     H_    0.100607 0.328639 0.922143 0.103945
H7    H     H_    0.901802 0.350017 0.080782 0.104916
H8    H     H_    0.939185 0.205909 0.076991 0.110676
H9    H     H_    0.052806 0.192672 0.919637 0.114494
H10   H     H_    0.437740 0.706593 0.083583 0.108601
H11   H     H_    0.557605 0.704828 0.916459 0.109146
H12   H     H_    0.924800 0.203034 0.954549 0.133226
H13   H     H_    0.309322 0.408940 0.469820 0.124976
H14   H     H_    0.048765 0.177898 0.039895 0.122612
H15   H     H_    0.448489 0.682129 0.963407 0.119879
H16   H     H_    0.549289 0.682161 0.036823 0.120741
H17   H     H_    0.648286 0.100936 0.571890 0.106307
H18   H     H_    0.351687 0.100831 0.428120 0.106370
H19   H     H_    0.148285 0.600936 0.571889 0.106308
H20   H     H_    0.851687 0.600831 0.428121 0.106424
H21   H     H_    0.722442 0.868178 0.463332 0.109819
H22   H     H_    0.277586 0.868097 0.536313 0.109725
H23   H     H_    0.222442 0.368178 0.463332 0.109844
H24   H     H_    0.690687 0.408778 0.529941 0.124817
H25   H     H_    0.777586 0.368098 0.536313 0.109746
H26   H     H_    0.705063 0.923660 0.584193 0.103979
H27   H     H_    0.294894 0.923639 0.415544 0.104016
H28   H     H_    0.205063 0.423660 0.584192 0.104029
H29   H     H_    0.794893 0.423639 0.415545 0.104093
H30   H     H_    0.855279 0.090229 0.421770 0.122802
H31   H     H_    0.144718 0.090073 0.578262 0.122713
H32   H     H_    0.355279 0.590229 0.421769 0.122739
H33   H     H_    0.644718 0.590073 0.578263 0.122703
H34   H     H_    0.804471 0.221347 0.427763 0.104355
H35   H     H_    0.795743 0.909788 0.588845 0.119998
H36   H     H_    0.195523 0.221197 0.572494 0.104255
H37   H     H_    0.304471 0.721347 0.427762 0.104292
H38   H     H_    0.695524 0.721197 0.572495 0.104184
H39   H     H_    0.842317 0.219366 0.548269 0.113405
H40   H     H_    0.157680 0.219387 0.452001 0.113234
H41   H     H_    0.342317 0.719366 0.548269 0.113381
H42   H     H_    0.657680 0.719388 0.452001 0.113231
H43   H     H_    0.600428 0.835039 0.576841 0.103898
H44   H     H_    0.399595 0.835110 0.423111 0.103976
H45   H     H_    0.100428 0.335039 0.576842 0.103878
H46   H     H_    0.204217 0.909803 0.410908 0.120197
H47   H     H_    0.899595 0.335110 0.423111 0.104042
H48   H     H_    0.710304 0.249957 0.083601 0.112627
H49   H     H_    0.289171 0.251561 0.910971 0.109815
H50   H     H_    0.212726 0.752320 0.089947 0.109658
H51   H     H_    0.801848 0.739787 0.914667 0.114576
H52   H     H_    0.295743 0.409788 0.588845 0.120069
H53   H     H_    0.704217 0.409804 0.410909 0.120252
H54   H     H_    0.046065 0.149652 0.441857 0.130370
H55   H     H_    0.953976 0.149587 0.557868 0.130195
H56   H     H_    0.546065 0.649652 0.441857 0.130377
H57   H     H_    0.361953 0.096701 0.550225 0.131126
H58   H     H_    0.453976 0.649587 0.557868 0.130168
H59   H     H_    0.958932 0.161038 0.434324 0.106757
H60   H     H_    0.041109 0.160983 0.565417 0.106633
H61   H     H_    0.458932 0.661038 0.434324 0.106701
H62   H     H_    0.541109 0.660983 0.565417 0.106644
H63   H     H_    0.616698 0.891765 0.455980 0.112506
H64   H     H_    0.383305 0.891678 0.544072 0.112527
H65   H     H_    0.116699 0.391765 0.455980 0.112500
H66   H     H_    0.883305 0.391679 0.544072 0.112568
H67   H     H_    0.938353 0.477926 0.417521 0.121494
H68   H     H_    0.138030 0.596769 0.449783 0.131246
H69   H     H_    0.061677 0.477845 0.582689 0.121487
H70   H     H_    0.438353 0.977926 0.417521 0.121437
H71   H     H_    0.561677 0.977844 0.582688 0.121504
H72   H     H_    0.947756 0.500330 0.535869 0.129450
H73   H     H_    0.052249 0.500420 0.464367 0.129203
H74   H     H_    0.447756 0.000330 0.535869 0.129430
H75   H     H_    0.552249 0.000420 0.464366 0.129205
H76   H     H_    0.820283 0.918784 0.060359 0.138524
H77   H     H_    0.180074 0.922883 0.941396 0.137418
H78   H     H_    0.320183 0.422501 0.058488 0.137030
H79   H     H_    0.861953 0.596701 0.550225 0.131159
H80   H     H_    0.666890 0.437277 0.936953 0.137146
H81   H     H_    0.687896 0.221369 0.440284 0.106686
H82   H     H_    0.312074 0.221257 0.559897 0.106721
H83   H     H_    0.187896 0.721369 0.440284 0.106653
H84   H     H_    0.812074 0.721258 0.559897 0.106673
H85   H     H_    0.858516 0.056362 0.066688 0.114734
H86   H     H_    0.141138 0.059701 0.928416 0.115860
H87   H     H_    0.359517 0.558629 0.071572 0.115024
H88   H     H_    0.638869 0.583473 0.928140 0.114241
H89   H     H_    0.868122 0.042610 0.949337 0.133687
H90   H     H_    0.863800 0.067284 0.540537 0.126109
H91   H     H_    0.130888 0.068375 0.046103 0.133710
H92   H     H_    0.369786 0.567053 0.953581 0.133080
H93   H     H_    0.628209 0.571065 0.048260 0.134599
H94   H     H_    0.808396 0.928004 0.940400 0.117498
H95   H     H_    0.179701 0.941756 0.059389 0.115909
H96   H     H_    0.320237 0.441440 0.940402 0.116088
H97   H     H_    0.677059 0.444496 0.054435 0.114477
H98   H     H_    0.661373 0.948334 0.047029 0.110405
H99   H     H_    0.338257 0.947569 0.949644 0.112407
H100  H     H_    0.161769 0.447292 0.049352 0.111902
H101  H     H_    0.136182 0.067313 0.459464 0.126121
H102  H     H_    0.800172 0.422518 0.953812 0.110289
H103  H     H_    0.690776 0.954287 0.923886 0.101825
H104  H     H_    0.297095 0.939755 0.071599 0.109111
H105  H     H_    0.202457 0.440606 0.927340 0.109424
H106  H     H_    0.793972 0.439830 0.076539 0.106462
H107  H     H_    0.800685 0.233836 0.090726 0.103308
H108  H     H_    0.198773 0.237960 0.916290 0.106288
H109  H     H_    0.303180 0.737292 0.083350 0.108530
H110  H     H_    0.710338 0.751467 0.913840 0.104150
H111  H     H_    0.810806 0.249278 0.971673 0.111504
H112  H     H_    0.363800 0.567284 0.540537 0.126101
H113  H     H_    0.219738 0.295284 0.038640 0.109016
H114  H     H_    0.279966 0.796361 0.961689 0.108749
H115  H     H_    0.722213 0.795989 0.036799 0.109408
H116  H     H_    0.721218 0.278947 0.961329 0.125621
H117  H     H_    0.304400 0.250378 0.031769 0.116900
H118  H     H_    0.196019 0.750684 0.969322 0.115554
H119  H     H_    0.807495 0.746611 0.034875 0.117943
H120  H     H_    0.642526 0.100123 0.045217 0.119976
H121  H     H_    0.356739 0.097038 0.959086 0.118187
H122  H     H_    0.144600 0.598312 0.040510 0.118298
H123  H     H_    0.636182 0.567313 0.459465 0.126111
H124  H     H_    0.857087 0.546206 0.950479 0.128577
H125  H     H_    0.686749 0.237389 0.562399 0.138118
H126  H     H_    0.313277 0.237290 0.437780 0.137781
H127  H     H_    0.186749 0.737389 0.562399 0.138093
H128  H     H_    0.813276 0.737290 0.437781 0.137766
H129  H     H_    0.649526 0.096370 0.924729 0.115633
H130  H     H_    0.348623 0.069776 0.079831 0.109642
H131  H     H_    0.153190 0.573142 0.919689 0.109492
H132  H     H_    0.847679 0.567342 0.073095 0.110252
H133  H     H_    0.049974 0.535501 0.056468 0.133882
H134  H     H_    0.809322 0.908940 0.469820 0.124976
H135  H     H_    0.963999 0.543609 0.942049 0.132163
H136  H     H_    0.547138 0.034290 0.054789 0.132640
H137  H     H_    0.453273 0.035531 0.945179 0.132230
H138  H     H_    0.962386 0.524934 0.060813 0.113801
H139  H     H_    0.051189 0.516166 0.935029 0.114415
H140  H     H_    0.459693 0.023872 0.064852 0.114146
H141  H     H_    0.540957 0.022276 0.935240 0.115600
H142  H     H_    0.615850 0.783864 0.045386 0.111822
H143  H     H_    0.383666 0.784338 0.953768 0.111892
H144  H     H_    0.115256 0.280885 0.044800 0.111340
O1    O     O_R   0.957210 0.449410 0.665480 -0.533689
O2    O     O_R   0.167480 0.095300 0.164000 -0.533721
O3    O     O_R   0.332520 0.595300 0.836000 -0.533782
O4    O     O_R   0.667480 0.595300 0.164000 -0.533614
O5    O     O_R   0.946380 0.253940 0.826940 -0.512388
O6    O     O_R   0.053620 0.253940 0.173060 -0.512423
O7    O     O_R   0.446380 0.753940 0.826940 -0.513042
O8    O     O_R   0.553620 0.753940 0.173060 -0.512582
O9    O     O_3   0.834560 0.334570 0.748840 -0.268960
O10   O     O_3   0.165440 0.334570 0.251160 -0.271559
O11   O     O_3   0.334560 0.834570 0.748840 -0.271648
O12   O     O_R   0.042790 0.449410 0.334520 -0.533144
O13   O     O_3   0.665440 0.834570 0.251160 -0.271777
O14   O     O_R   0.820730 0.541240 0.668250 -0.515318
O15   O     O_R   0.179270 0.541240 0.331750 -0.514999
O16   O     O_R   0.320730 0.041240 0.668250 -0.515019
O17   O     O_R   0.679270 0.041240 0.331750 -0.514799
O18   O     O_R   0.714240 0.455060 0.663710 -0.533157
O19   O     O_R   0.285760 0.455060 0.336290 -0.532753
O20   O     O_R   0.214240 0.955060 0.663710 -0.532756
O21   O     O_R   0.785760 0.955060 0.336290 -0.532558
O22   O     O_R   0.736780 0.204870 0.675910 -0.515466
O23   O     O_R   0.457210 0.949410 0.665480 -0.533356
O24   O     O_R   0.263220 0.204870 0.324090 -0.515292
O25   O     O_R   0.236780 0.704870 0.675910 -0.515253
O26   O     O_R   0.763220 0.704870 0.324090 -0.515069
O27   O     O_R   0.833070 0.087590 0.673490 -0.530222
O28   O     O_R   0.166930 0.087590 0.326510 -0.530101
O29   O     O_R   0.333070 0.587590 0.673490 -0.529977
O30   O     O_R   0.666930 0.587590 0.326510 -0.529944
O31   O     O_R   0.946890 0.246800 0.676300 -0.512751
O32   O     O_R   0.053110 0.246800 0.323700 -0.512308
O33   O     O_R   0.446890 0.746800 0.676300 -0.512375
O34   O     O_R   0.542790 0.949410 0.334520 -0.533307
O35   O     O_R   0.553110 0.746800 0.323700 -0.512525
O36   O     O_R   0.956650 0.457120 0.827980 -0.531340
O37   O     O_R   0.043350 0.457120 0.172020 -0.531845
O38   O     O_R   0.456650 0.957120 0.827980 -0.531699
O39   O     O_R   0.543350 0.957120 0.172020 -0.531806
O40   O     O_R   0.820220 0.548390 0.818890 -0.509508
O41   O     O_R   0.179780 0.548390 0.181110 -0.509550
O42   O     O_R   0.320220 0.048390 0.818890 -0.509466
O43   O     O_R   0.679780 0.048390 0.181110 -0.509729
O44   O     O_R   0.713680 0.462770 0.826210 -0.532525
O45   O     O_R   0.736260 0.212010 0.826560 -0.509733
O46   O     O_R   0.286320 0.462770 0.173790 -0.532540
O47   O     O_R   0.213680 0.962770 0.826210 -0.532609
O48   O     O_R   0.786320 0.962770 0.173790 -0.533170
O49   O     O_R   0.263740 0.212010 0.173440 -0.510052
O50   O     O_R   0.236260 0.712010 0.826560 -0.510382
O51   O     O_R   0.763740 0.712010 0.173440 -0.510312
O52   O     O_R   0.832520 0.095300 0.836000 -0.533683

loop_
_geom_bond_atom_site_label_1
_geom_bond_atom_site_label_2
_ccdc_geom_bond_type
C23   H23   S    
Cr11  O26   S    
C34   H29   S    
C3    C79   S    
C21   C110  S    
Cr7   O13   S    
C40   H55   S    
C77   H36   S    
Cr8   O18   S    
C6    C85   S    
C1    O18   A    
Cr2   O28   S    
C9    C114  S    
C89   H104  S    
Cr1   O1    S    
C19   H127  S    
Cr3   O3    S    
Cr10  O20   S    
C87   H103  S    
C74   C92   S    
C41   H61   S    
C76   C94   S    
C14   H57   S    
C2    C22   S    
C3    O43   A    
C97   C115  S    
C64   O30   A    
C47   H74   S    
C59   H78   S    
C25   C34   S    
Cr12  O5    S    
C29   C64   S    
C37   H112  S    
C104  H15   S    
C96   C114  S    
C75   H108  S    
C46   H75   S    
C11   O8    A    
C49   H45   S    
C100  H137  S    
C50   H70   S    
C112  O23   A    
C48   H67   S    
C27   C31   S    
C28   C32   S    
C15   H83   S    
C38   C99   S    
C35   C66   S    
C118  O44   A    
C119  O41   A    
C13   C33   S    
C94   H118  S    
C39   H59   S    
C78   C82   S    
C40   H60   S    
C16   C20   S    
C119  O46   A    
C43   H65   S    
C66   C110  S    
C67   H91   S    
C60   H80   S    
C73   H102  S    
C33   O19   A    
C93   H113  S    
C74   C79   S    
Cr10  O25   S    
C82   C118  S    
Cr12  O31   S    
Cr6   O38   S    
C75   C93   S    
C104  C117  S    
C53   C109  S    
C5    O49   A    
C88   H37   S    
C70   C79   S    
C103  H142  S    
C85   C90   S    
C68   H96   S    
C81   C119  S    
C61   O27   A    
C106  C115  S    
C36   C77   S    
C76   H109  S    
C36   H101  S    
C105  H8    S    
Cr1   O36   S    
C49   C53   S    
C103  C116  S    
C84   C93   S    
C2    C14   S    
C86   C95   S    
C28   C63   S    
C26   C35   S    
C48   C52   S    
C44   O20   A    
C71   H99   S    
C100  C117  S    
C18   H18   S    
C104  C107  S    
C99   H33   S    
Cr7   O39   S    
C112  O33   A    
Cr4   O30   S    
C12   C110  S    
C92   H116  S    
C14   H82   S    
C113  O35   A    
C30   H35   S    
C43   C52   S    
C38   H42   S    
C7    C86   S    
Cr9   O19   S    
C4    O52   A    
C13   C23   S    
Cr4   O35   S    
C6    O50   A    
C102  H3    S    
C95   H115  S    
C97   H135  S    
C98   H136  S    
Cr12  O27   S    
C29   C38   S    
C1    O14   A    
C19   H19   S    
C111  O12   A    
Cr11  O48   S    
Cr7   O17   S    
C45   C53   S    
C25   H24   S    
Cr2   O32   S    
C68   C85   S    
C68   H92   S    
C102  H12   S    
C70   C87   S    
Cr2   O2    S    
C47   C50   S    
C9    O37   A    
Cr4   O8    S    
C49   H69   S    
C36   H40   S    
Cr11  O13   S    
C31   H46   S    
C39   C40   S    
C5    C84   S    
Cr6   O23   S    
C88   H32   S    
C46   C51   S    
C27   C62   S    
C69   H97   S    
C73   H124  S    
C72   C90   S    
C58   C67   S    
Cr12  O9    S    
C67   H95   S    
C8    O36   A    
C19   C28   S    
Cr5   O15   S    
C21   H134  S    
Cr6   O16   S    
C26   C30   S    
C7    O51   A    
C4    O45   A    
C17   H125  S    
C70   H120  S    
C58   H77   S    
C101  C106  S    
C118  O40   A    
C21   H21   S    
C72   H100  S    
C108  C117  S    
C16   H79   S    
C5    O2    A    
C72   H122  S    
C109  O1    A    
C109  O31   A    
C62   O28   A    
C10   C117  S    
C15   H68   S    
C58   H86   S    
C60   C69   S    
C9    O6    A    
C107  C116  S    
C55   O17   A    
Cr12  O52   S    
C1    C24   S    
C47   C56   S    
C83   C87   S    
C35   H39   S    
C41   C42   S    
C37   C88   S    
C65   H89   S    
C99   H38   S    
Cr1   O40   S    
C15   C19   S    
C57   H76   S    
C50   C54   S    
Cr1   O14   S    
C26   C61   S    
Cr8   O9    S    
C86   C91   S    
C60   H88   S    
C92   H111  S    
Cr8   O45   S    
C66   H30   S    
C102  C105  S    
C16   H84   S    
C14   C18   S    
C71   H121  S    
Cr5   O41   S    
C102  C115  S    
C42   C56   S    
Cr10  O50   S    
C39   H54   S    
C55   O21   A    
Cr7   O43   S    
Cr8   O44   S    
C12   C17   S    
C101  H144  S    
C87   H129  S    
C72   C81   S    
C58   C80   S    
C38   H123  S    
C101  C114  S    
C12   H81   S    
C6    O3    A    
C51   H71   S    
Cr4   O4    S    
C64   O26   A    
C47   H64   S    
Cr4   O13   S    
C35   H90   S    
C95   H119  S    
C97   H139  S    
C98   H140  S    
C29   C34   S    
C20   H20   S    
C41   H56   S    
C10   O7    A    
C107  H5    S    
C34   H53   S    
C105  H7    S    
Cr11  O51   S    
C78   C95   S    
C46   C54   S    
Cr3   O33   S    
Cr1   O9    S    
C51   H43   S    
C11   C116  S    
Cr2   O6    S    
Cr3   O11   S    
C10   O38   A    
C98   C100  S    
C7    O4    A    
C73   C82   S    
C106  H9    S    
Cr10  O47   S    
C45   C48   S    
C96   H133  S    
Cr7   O34   S    
Cr5   O10   S    
C90   H105  S    
Cr9   O49   S    
C59   C81   S    
C57   C65   S    
Cr10  O11   S    
C69   H93   S    
C27   C36   S    
C21   C30   S    
C113  O34   A    
C23   C32   S    
C2    C77   S    
C4    C83   S    
C57   H85   S    
C45   H72   S    
C91   H106  S    
C65   H94   S    
C18   H126  S    
C65   C83   S    
Cr11  O21   S    
Cr3   O7    S    
C89   H130  S    
C108  H11   S    
C91   H132  S    
C78   H51   S    
C77   H31   S    
C80   C120  S    
C43   H73   S    
C24   C99   S    
C62   O24   A    
C57   C79   S    
C63   O29   A    
C46   H63   S    
C83   C92   S    
C23   H13   S    
C78   H110  S    
C22   H2    S    
C17   C26   S    
C28   C37   S    
Cr9   O10   S    
C108  H4    S    
C106  H6    S    
C120  O47   A    
C96   H138  S    
C54   C113  S    
C50   H44   S    
C51   C56   S    
C74   H107  S    
C42   H62   S    
C42   H58   S    
C8    C115  S    
C60   C82   S    
C103  C108  S    
C120  O42   A    
C75   C80   S    
C39   C52   S    
Cr5   O12   S    
C67   C84   S    
C16   C24   S    
Cr6   O11   S    
C76   H50   S    
C71   C80   S    
C33   O15   A    
C93   H117  S    
C103  H16   S    
C20   C29   S    
C111  O32   A    
C101  H14   S    
C22   C31   S    
C66   H34   S    
C105  C114  S    
C24   C25   S    
C73   C91   S    
Cr5   O37   S    
C2    C44   S    
Cr6   O42   S    
C43   C49   S    
C52   C111  S    
C45   H66   S    
C70   H98   S    
C59   C68   S    
C94   H114  S    
C85   C94   S    
C98   C116  S    
C3    O48   A    
C71   C89   S    
C96   C97   S    
C107  H10   S    
C90   H131  S    
C104  H143  S    
C20   H128  S    
C63   O25   A    
C12   H1    S    
C13   C15   S    
C55   C110  S    
C25   H25   S    
C84   C89   S    
C75   H49   S    
C22   H22   S    
C30   H26   S    
C61   O22   A    
C44   O16   A    
C32   H52   S    
C17   H17   S    
C18   C27   S    
C76   C81   S    
Cr8   O22   S    
Cr9   O24   S    
C100  H141  S    
Cr3   O29   S    
Cr9   O46   S    
Cr2   O10   S    
C59   H87   S    
C8    O5    A    
C11   O39   A    
C13   C88   S    
C41   C54   S    
C37   H41   S    
C74   H48   S    
C40   C53   S    
C56   C112  S    
C48   H47   S    
C31   H27   S    
C69   C86   S    
C32   H28   S    
