data_mof_unit_33592.cif
_audit_creation_date              2013-03-05T16:30:42-0500
_audit_creation_method            fapswitch 2.2
_symmetry_space_group_name_H-M    P1
_symmetry_Int_Tables_number       1
_space_group_crystal_system       triclinic
_cell_length_a                    10.918561
_cell_length_b                    10.829611
_cell_length_c                    9.617219
_cell_angle_alpha                 90.719766
_cell_angle_beta                  89.798932
_cell_angle_gamma                 92.014458
_cell_volume                      1136.37839992

loop_
_atom_site_label
_atom_site_type_symbol
_atom_site_description
_atom_site_fract_x
_atom_site_fract_y
_atom_site_fract_z
_atom_type_partial_charge
O1    O     O_R   0.500000 0.319640 0.618810 -0.534617
O2    O     O_R   0.500010 0.319680 0.381230 -0.559516
C1    C     C_R   0.497359 0.262449 0.499422 0.845947
O3    O     O_R   0.321940 0.499980 0.618760 -0.537075
O4    O     O_R   0.321950 0.500020 0.381180 -0.553962
C2    C     C_R   0.265451 0.498612 0.500203 0.883829
Cu1   Cu    Cu3+1 0.499990 0.499980 0.640670 1.055028
Cu2   Cu    Cu3+1 0.500010 0.500020 0.359330 1.032438
O5    O     O_R   0.499990 0.680320 0.618770 -0.570452
O6    O     O_R   0.500000 0.680360 0.381190 -0.549739
O7    O     O_R   0.678050 0.499980 0.618820 -0.588418
O8    O     O_R   0.678060 0.500020 0.381240 -0.584230
C3    C     C_R   0.491449 0.737087 0.500725 0.814898
C4    C     C_R   0.734512 0.502054 0.500011 0.827468
C5    C     C_2   0.933370 0.498023 0.386022 -0.136711
C6    C     C_2   0.866850 0.509959 0.502293 -0.301884
H1    H     H_    0.888902 0.483776 0.286043 0.179784
H2    H     H_    0.908446 0.529069 0.602663 0.160207
C7    C     C_2   0.067469 0.506108 0.386548 -0.111929
C8    C     C_2   0.133036 0.491875 0.502400 -0.264520
H3    H     H_    0.112785 0.521728 0.287308 0.213680
H4    H     H_    0.090624 0.471570 0.601789 0.190311
C9    C     C_R   0.496354 0.065405 0.623219 0.075978
C10   C     C_R   0.482407 0.129028 0.499930 -0.199389
C11   C     C_R   0.437423 0.062567 0.383240 -0.161749
H5    H     H_    0.410882 0.110402 0.290520 0.235588
C12   C     C_R   0.427916 0.932942 0.385426 0.277572
C13   C     C_R   0.470318 0.869550 0.503099 -0.202789
C14   C     C_R   0.489186 0.938686 0.625252 0.043921
C15   C     C_3   0.578621 0.931269 0.741310 0.030428
C16   C     C_3   0.593594 0.072374 0.732657 0.123723
H6    H     H_    0.662457 0.882039 0.711040 0.085542
H7    H     H_    0.684626 0.104192 0.691425 0.082364
C17   C     C_R   0.604721 0.525680 0.072414 0.219075
N1    N     N_R   0.500780 0.500930 0.147930 -0.232064
C18   C     C_R   0.405303 0.446187 0.073807 0.296990
C19   C     C_R   0.401590 0.453437 0.926088 0.403613
N2    N     N_R   0.500780 0.500890 0.852020 -0.258167
C20   C     C_R   0.606346 0.520099 0.926721 0.243383
C21   C     C_3   0.699252 0.623838 0.918918 -0.444997
C22   C     C_3   0.691029 0.635088 0.077369 -0.431247
H8    H     H_    0.789436 0.591026 0.882686 0.205931
H9    H     H_    0.667791 0.703689 0.860985 0.233467
H10   H     H_    0.778482 0.615313 0.129759 0.196563
H11   H     H_    0.646187 0.720080 0.114301 0.249341
Br1   Br    Br    0.287953 0.333333 0.158657 -0.363378
N3    N     N_R   0.293329 0.407428 0.857026 0.159274
O9    O     O_R   0.293880 0.303372 0.788203 -0.278087
O10   O     O_R   0.189238 0.458200 0.882705 -0.353355
Br2   Br    Br    0.348823 0.850353 0.230749 -0.374031
Br3   Br    Br    0.492296 0.867475 0.904188 -0.364627
N4    N     N_R   0.557522 0.140237 0.858304 0.191758
O11   O     O_R   0.638558 0.210349 0.923073 -0.364210
O12   O     O_R   0.444525 0.137470 0.902105 -0.236956

loop_
_geom_bond_atom_site_label_1
_geom_bond_atom_site_label_2
_geom_bond_distance
_ccdc_geom_bond_type
O4    Cu2   1.954749 S    
C15   H6    1.111496 S    
C15   Br3   1.946900 S    
C16   H7    1.113773 S    
C3    C13   1.460825 S    
C18   Br1   1.925844 S    
C19   N2    1.381691 A    
C11   C12   1.404395 A    
C2    C8    1.445151 S    
N3    O9    1.299882 A    
C12   Br2   1.918298 S    
Cu2   O8    1.956171 S    
C16   N4    1.466323 S    
C9    C10   1.390318 A    
C22   H10   1.109925 S    
C7    C8    1.339895 D    
C21   H8    1.111919 S    
O2    C1    1.301235 A    
Cu1   Cu2   2.705713 S    
N3    O10   1.301365 A    
N4    O11   1.300816 A    
C5    C7    1.463729 S    
C1    C10   1.448448 S    
C14   C15   1.490383 S    
C17   C22   1.488140 S    
C18   C19   1.424593 A    
O3    Cu1   1.956171 S    
O4    C2    1.298411 A    
C9    C14   1.372175 A    
O3    C2    1.297895 A    
C13   C14   1.397094 A    
C7    H3    1.085908 S    
Cu1   N2    2.032546 S    
O8    C4    1.299415 A    
Cu1   O7    1.954748 S    
C21   H9    1.100250 S    
C15   C16   1.534381 S    
O7    C4    1.296481 A    
C4    C6    1.444688 S    
C19   N3    1.429146 S    
C8    H4    1.082339 S    
C5    C6    1.338607 D    
Cu1   O5    1.966964 S    
C20   C21   1.489379 S    
N2    C20   1.368637 A    
C10   C11   1.406201 A    
C6    H2    1.082737 S    
C17   N1    1.365644 A    
C12   C13   1.418405 A    
C5    H1    1.085513 S    
O5    C3    1.302988 A    
C21   C22   1.529770 S    
C22   H11   1.111456 S    
C11   H5    1.082336 S    
O1    Cu1   1.961672 S    
C17   C20   1.401776 A    
O6    C3    1.301240 A    
Cu2   O6    1.961671 S    
O2    Cu2   1.966964 S    
N1    C18   1.377510 A    
N4    O12   1.301762 A    
O1    C1    1.297640 A    
Cu2   N1    2.033215 S    
C9    C16   1.496966 S    
