data_mof_unit_49726.cif
_audit_creation_date              2012-12-10T17:19:01-0500
_audit_creation_method            fapswitch 2.2
_symmetry_space_group_name_H-M    P1
_symmetry_Int_Tables_number       1
_space_group_crystal_system       triclinic
_cell_length_a                    10.184698
_cell_length_b                    10.843534
_cell_length_c                    13.756115
_cell_angle_alpha                 92.28231
_cell_angle_beta                  100.229323
_cell_angle_gamma                 96.02758
_cell_volume                      1484.13013289

loop_
_atom_site_label
_atom_site_type_symbol
_atom_type_description
_atom_site_fract_x
_atom_site_fract_y
_atom_site_fract_z
_atom_type_partial_charge
C1    C     C_R   0.054389 0.732531 0.495977 0.954434
C2    C     C_2   0.023574 0.068467 0.524936 -0.145514
C3    C     C_2   0.430708 0.511274 0.508366 -0.054499
C4    C     C_2   0.569525 0.485635 0.494792 -0.103435
C5    C     C_R   0.093914 0.514482 0.685311 0.875840
C6    C     C_R   0.906921 0.488598 0.314763 0.872810
C7    C     C_R   0.146770 0.535529 0.790760 -0.069161
C8    C     C_R   0.858143 0.485907 0.208772 -0.064415
C9    C     C_R   0.133926 0.613333 0.955318 -0.190611
C10   C     C_R   0.867644 0.427627 0.039499 -0.200712
C11   C     C_R   0.074319 0.588017 0.856247 -0.203062
C12   C     C_R   0.947771 0.267910 0.508747 0.940917
C13   C     C_R   0.923883 0.431760 0.139773 -0.202538
C14   C     C_R   0.277918 0.511578 0.824274 -0.168579
C15   C     C_R   0.738599 0.535541 0.177197 -0.275424
C16   C     C_R   0.344925 0.551941 0.919095 0.123928
C17   C     C_R   0.669360 0.512477 0.080616 0.088942
C18   C     C_R   0.268109 0.592391 0.987512 0.102199
C19   C     C_R   0.741264 0.468961 0.009468 0.190678
C20   C     C_R   0.483183 0.540686 0.949247 0.048862
C21   C     C_R   0.533992 0.537552 0.052103 -0.065949
C22   C     C_2   0.468180 0.516129 0.223731 0.350896
C23   C     C_R   0.446001 0.556861 0.120994 -0.007374
C24   C     C_2   0.551455 0.576921 0.780418 0.352226
C25   C     C_R   0.571191 0.527066 0.880100 -0.000396
C26   C     C_R   0.321230 0.598475 0.087781 -0.215118
C27   C     C_R   0.691808 0.477803 0.909691 -0.339131
C28   C     C_2   0.088859 0.865313 0.501199 -0.363410
C29   C     C_2   0.921451 0.136824 0.521335 -0.376296
C30   C     C_2   0.000513 0.936563 0.527752 -0.143628
H1    H     H_    0.257251 0.619144 0.140141 0.188400
H2    H     H_    0.905882 0.897633 0.546441 0.192949
H3    H     H_    0.820763 0.096135 0.526178 0.154943
H4    H     H_    0.183214 0.904664 0.482488 0.157641
H5    H     H_    0.579416 0.407662 0.445715 0.158612
H6    H     H_    0.420861 0.587125 0.559422 0.182534
H7    H     H_    0.664365 0.629332 0.582705 0.171945
H8    H     H_    0.335454 0.374603 0.413248 0.169141
H9    H     H_    0.525495 0.438908 0.242936 0.069137
H10   H     H_    0.596823 0.536339 0.723088 0.047475
H11   H     H_    0.753785 0.458067 0.855685 0.141827
H12   H     H_    0.701320 0.593840 0.229094 0.174181
H13   H     H_    0.327205 0.459446 0.775649 0.147782
H14   H     H_    0.018732 0.395217 0.162969 0.164144
H15   H     H_    0.971947 0.607392 0.831488 0.161436
H16   H     H_    0.074806 0.646898 0.006856 0.154608
H17   H     H_    0.922309 0.392145 0.985686 0.150025
H18   H     H_    0.124495 0.108722 0.520022 0.188974
N1    N     N_2   0.322180 0.446120 0.460900 -0.175171
N2    N     N_2   0.677820 0.553880 0.539100 -0.201924
O1    O     O_R   0.935190 0.693030 0.507870 -0.612243
O2    O     O_2   0.490623 0.667146 0.763047 -0.569404
O3    O     O_R   0.064810 0.306970 0.492130 -0.618023
O4    O     O_R   0.142080 0.658430 0.482770 -0.590230
O5    O     O_R   0.857920 0.341570 0.517230 -0.614379
O6    O     O_R   0.969700 0.527180 0.651960 -0.622861
O7    O     O_R   0.030300 0.472820 0.348040 -0.600822
O8    O     O_R   0.176600 0.492580 0.626860 -0.610348
O9    O     O_R   0.823400 0.507420 0.373140 -0.610882
O10   O     O_2   0.421031 0.567816 0.287839 -0.576924
Zn1   Zn    Zn3+2 0.861850 0.523100 0.516760 0.941481
Zn2   Zn    Zn3+2 0.138150 0.476900 0.483240 0.973497

loop_
_geom_bond_atom_site_label_1
_geom_bond_atom_site_label_2
_ccdc_geom_bond_type
O8    Zn2   S    
C1    C28   S    
C7    C11   A    
C1    O4    A    
C24   O2    D    
C8    C13   A    
N1    Zn2   S    
C29   H3    S    
C12   C29   S    
C25   C27   A    
C19   C27   A    
O3    Zn2   S    
C27   H11   S    
C5    O6    A    
C12   O3    A    
C18   C26   A    
O1    Zn1   S    
C2    C30   S    
C10   C19   A    
C16   C20   A    
C2    H18   S    
C28   C30   D    
C3    N1    D    
C4    H5    S    
C28   H4    S    
O7    Zn2   S    
H8    N1    S    
C24   C25   S    
C30   H2    S    
H7    N2    S    
C9    C11   A    
C6    O7    A    
C3    H6    S    
C2    C29   D    
C22   H9    S    
C5    O8    A    
C17   C19   A    
C8    C15   A    
C5    C7    S    
C21   C23   A    
C22   O10   D    
C14   C16   A    
C11   H15   S    
C12   O5    A    
O9    Zn1   S    
C20   C25   A    
C3    C4    S    
O5    Zn1   S    
C9    C18   A    
C9    H16   S    
C20   C21   A    
C16   C18   A    
C23   C26   A    
C10   H17   S    
C15   C17   A    
N2    Zn1   S    
O6    Zn1   S    
C6    C8    S    
C1    O1    A    
O4    Zn2   S    
C24   H10   S    
C22   C23   S    
C26   H1    S    
C6    O9    A    
C13   H14   S    
C7    C14   A    
C15   H12   S    
C4    N2    D    
C14   H13   S    
C10   C13   A    
C17   C21   A    
