data_mof_unit_60082.cif
_audit_creation_date              2012-12-11T16:52:24-0500
_audit_creation_method            fapswitch 2.2
_symmetry_space_group_name_H-M    P1
_symmetry_Int_Tables_number       1
_space_group_crystal_system       triclinic
_cell_length_a                    7.17902
_cell_length_b                    26.073962
_cell_length_c                    28.683592
_cell_angle_alpha                 90.0
_cell_angle_beta                  90.000047
_cell_angle_gamma                 89.999983
_cell_volume                      5369.15235764

loop_
_atom_site_label
_atom_site_type_symbol
_atom_type_description
_atom_site_fract_x
_atom_site_fract_y
_atom_site_fract_z
_atom_type_partial_charge
O1    O     O_R   0.601030 0.796770 0.202460 -0.538105
O2    O     O_R   0.398970 0.203230 0.797540 -0.538105
O3    O     O_R   0.398970 0.203230 0.702460 -0.538105
O4    O     O_R   0.601030 0.796770 0.297540 -0.538105
O5    O     O_R   0.101030 0.703230 0.297540 -0.538105
O6    O     O_R   0.898970 0.296770 0.702460 -0.538105
O7    O     O_R   0.898970 0.296770 0.797540 -0.538105
O8    O     O_R   0.101030 0.703230 0.202460 -0.538105
O9    O     O_R   0.271290 0.802910 0.297210 -0.510753
O10   O     O_R   0.728710 0.197090 0.702790 -0.510753
O11   O     O_R   0.728710 0.197090 0.797210 -0.510753
O12   O     O_R   0.271290 0.802910 0.202790 -0.510753
O13   O     O_R   0.771290 0.697090 0.202790 -0.510753
O14   O     O_R   0.228710 0.302910 0.797210 -0.510753
O15   O     O_R   0.228710 0.302910 0.702790 -0.510753
O16   O     O_R   0.771290 0.697090 0.297210 -0.510753
C1    C     C_R   0.439774 0.814569 0.313279 0.808892
C2    C     C_R   0.560226 0.185431 0.686720 0.808892
C3    C     C_R   0.560226 0.185431 0.813279 0.808892
C4    C     C_R   0.439774 0.814569 0.186721 0.808892
C5    C     C_R   0.939774 0.685431 0.186721 0.808892
C6    C     C_R   0.060226 0.314569 0.813279 0.808891
C7    C     C_R   0.060226 0.314569 0.686720 0.808892
C8    C     C_R   0.939774 0.685431 0.313279 0.808892
O17   O     O_3   0.434520 0.717290 0.250000 -0.379747
O18   O     O_3   0.565480 0.282710 0.750000 -0.379747
O19   O     O_3   0.934520 0.782710 0.250000 -0.379747
O20   O     O_3   0.065480 0.217290 0.750000 -0.379747
V1    V     V_3+5 0.159680 0.756060 0.250000 1.536513
V2    V     V_3+5 0.840320 0.243940 0.750000 1.536512
V3    V     V_3+5 0.659680 0.743940 0.250000 1.536513
V4    V     V_3+5 0.340320 0.256060 0.750000 1.536513
C9    C     C_R   0.925908 0.343151 0.609449 0.216701
C10   C     C_R   0.074092 0.656849 0.390551 0.216701
C11   C     C_R   0.074092 0.656849 0.109449 0.216700
C12   C     C_R   0.925906 0.343151 0.890550 0.216699
C13   C     C_R   0.425907 0.156849 0.890550 0.216701
C14   C     C_R   0.574092 0.843151 0.109450 0.216701
C15   C     C_R   0.574093 0.843151 0.390550 0.216701
C16   C     C_R   0.425909 0.156849 0.609449 0.216701
C17   C     C_R   0.910593 0.379281 0.573015 0.255132
C18   C     C_R   0.089407 0.620719 0.426985 0.255131
C19   C     C_R   0.089406 0.620719 0.073015 0.255132
C20   C     C_R   0.910589 0.379282 0.926984 0.255130
C21   C     C_R   0.410592 0.120719 0.926985 0.255131
C22   C     C_R   0.589407 0.879281 0.073015 0.255131
C23   C     C_R   0.589408 0.879281 0.426985 0.255131
C24   C     C_R   0.410594 0.120719 0.573015 0.255132
C25   C     C_R   0.019196 0.424488 0.573953 -0.066971
C26   C     C_R   0.980805 0.575512 0.426046 -0.066971
C27   C     C_R   0.980803 0.575512 0.073953 -0.066971
C28   C     C_R   0.019194 0.424488 0.926046 -0.066971
C29   C     C_R   0.519195 0.075512 0.926047 -0.066970
C30   C     C_R   0.480804 0.924488 0.073953 -0.066971
C31   C     C_R   0.480805 0.924488 0.426046 -0.066970
C32   C     C_R   0.519196 0.075512 0.573953 -0.066971
C33   C     C_R   0.146067 0.431901 0.610407 -0.249458
C34   C     C_R   0.853933 0.568098 0.389593 -0.249459
C35   C     C_R   0.853931 0.568099 0.110406 -0.249458
C36   C     C_R   0.146069 0.431902 0.889593 -0.249459
C37   C     C_R   0.646068 0.068098 0.889593 -0.249459
C38   C     C_R   0.353932 0.931902 0.110407 -0.249459
C39   C     C_R   0.353933 0.931902 0.389593 -0.249460
C40   C     C_R   0.646067 0.068098 0.610407 -0.249459
H1    H     H_    0.232158 0.466056 0.610805 0.138230
H2    H     H_    0.767842 0.533944 0.389195 0.138230
H3    H     H_    0.767839 0.533944 0.110804 0.138230
H4    H     H_    0.232161 0.466056 0.889196 0.138230
H5    H     H_    0.732159 0.033944 0.889195 0.138230
H6    H     H_    0.267841 0.966056 0.110805 0.138230
H7    H     H_    0.267842 0.966056 0.389195 0.138230
H8    H     H_    0.732157 0.033943 0.610805 0.138230
C41   C     C_R   0.164424 0.395861 0.646501 0.236461
C42   C     C_R   0.835576 0.604139 0.353499 0.236461
C43   C     C_R   0.835574 0.604139 0.146500 0.236462
C44   C     C_R   0.164426 0.395861 0.853500 0.236462
C45   C     C_R   0.664425 0.104139 0.853499 0.236461
C46   C     C_R   0.335575 0.895861 0.146501 0.236461
C47   C     C_R   0.335576 0.895861 0.353499 0.236462
C48   C     C_R   0.664424 0.104139 0.646501 0.236461
C49   C     C_R   0.050345 0.351592 0.647124 -0.180658
C50   C     C_R   0.949655 0.648408 0.352876 -0.180659
C51   C     C_R   0.949655 0.648408 0.147124 -0.180659
C52   C     C_R   0.050345 0.351592 0.852876 -0.180659
C53   C     C_R   0.550345 0.148408 0.852876 -0.180659
C54   C     C_R   0.449655 0.851592 0.147124 -0.180659
C55   C     C_R   0.449655 0.851592 0.352876 -0.180659
C56   C     C_R   0.550345 0.148408 0.647124 -0.180659
C57   C     C_R   0.161357 0.470678 0.506133 -0.155616
C58   C     C_R   0.838644 0.529322 0.493867 -0.155616
C59   C     C_R   0.838643 0.529323 0.006132 -0.155616
C60   C     C_R   0.161353 0.470678 0.993867 -0.155616
C61   C     C_R   0.661355 0.029322 0.993867 -0.155617
C62   C     C_R   0.338644 0.970678 0.006133 -0.155617
C63   C     C_R   0.338643 0.970678 0.493867 -0.155617
C64   C     C_R   0.661358 0.029322 0.506133 -0.155616
H9    H     H_    0.286758 0.448042 0.510385 0.120498
H10   H     H_    0.713243 0.551957 0.489615 0.120498
H11   H     H_    0.713244 0.551960 0.010383 0.120499
H12   H     H_    0.286753 0.448041 0.989616 0.120498
H13   H     H_    0.786755 0.051959 0.989616 0.120499
H14   H     H_    0.213244 0.948041 0.010384 0.120498
H15   H     H_    0.213243 0.948042 0.489615 0.120498
H16   H     H_    0.786759 0.051958 0.510385 0.120498
C65   C     C_R   0.151872 0.506825 0.470087 -0.181834
C66   C     C_R   0.848129 0.493175 0.529913 -0.181835
C67   C     C_R   0.848129 0.493176 0.970086 -0.181833
C68   C     C_R   0.151868 0.506825 0.029913 -0.181836
C69   C     C_R   0.651869 0.993175 0.029913 -0.181835
C70   C     C_R   0.348130 0.006825 0.970087 -0.181834
C71   C     C_R   0.348129 0.006825 0.529913 -0.181834
C72   C     C_R   0.651872 0.993175 0.470087 -0.181833
H17   H     H_    0.270025 0.511523 0.446987 0.106472
H18   H     H_    0.729976 0.488477 0.553013 0.106473
H19   H     H_    0.729977 0.488479 0.946985 0.106472
H20   H     H_    0.270020 0.511522 0.053014 0.106473
H21   H     H_    0.770022 0.988478 0.053014 0.106473
H22   H     H_    0.229977 0.011522 0.946986 0.106472
H23   H     H_    0.229975 0.011523 0.553013 0.106472
H24   H     H_    0.770026 0.988477 0.446987 0.106471
C73   C     C_R   0.990991 0.536733 0.463901 0.134335
C74   C     C_R   0.009010 0.463267 0.536099 0.134334
C75   C     C_R   0.009008 0.463267 0.963901 0.134335
C76   C     C_R   0.990989 0.536733 0.036098 0.134334
C77   C     C_R   0.490990 0.963267 0.036099 0.134335
C78   C     C_R   0.509009 0.036733 0.963901 0.134335
C79   C     C_R   0.509010 0.036733 0.536099 0.134335
C80   C     C_R   0.490992 0.963267 0.463901 0.134335
Br1   Br    Br    0.781401 0.280855 0.604815 -0.495973
Br2   Br    Br    0.218598 0.719145 0.395185 -0.495970
Br3   Br    Br    0.218600 0.719145 0.104816 -0.495974
Br4   Br    Br    0.781398 0.280855 0.895184 -0.495972
Br5   Br    Br    0.281400 0.219145 0.895184 -0.495971
Br6   Br    Br    0.718599 0.780855 0.104815 -0.495972
Br7   Br    Br    0.718599 0.780855 0.395184 -0.495970
Br8   Br    Br    0.281403 0.219145 0.604815 -0.495971
N1    N     N_2   0.789155 0.368688 0.534946 -0.481402
H25   H     H_    0.706758 0.399007 0.524773 0.249698
C81   C     C_3   0.877706 0.343203 0.496024 -0.449060
H26   H     H_    0.981977 0.368916 0.479506 0.173719
H27   H     H_    0.770821 0.332909 0.469663 0.184729
H28   H     H_    0.947493 0.307413 0.507743 0.238705
N2    N     N_2   0.210845 0.631312 0.465054 -0.481401
H29   H     H_    0.293244 0.600993 0.475226 0.249699
C82   C     C_3   0.122293 0.656796 0.503976 -0.449066
H30   H     H_    0.229178 0.667091 0.530336 0.184732
H31   H     H_    0.018028 0.631082 0.520495 0.173719
H32   H     H_    0.052499 0.692584 0.492257 0.238704
N3    N     N_2   0.210846 0.631312 0.034946 -0.481402
H33   H     H_    0.293241 0.600992 0.024773 0.249699
C83   C     C_3   0.122296 0.656798 0.996024 -0.449063
H34   H     H_    0.018026 0.631085 0.979505 0.173719
H35   H     H_    0.229182 0.667091 0.969664 0.184730
H36   H     H_    0.052510 0.692587 0.007743 0.238705
N4    N     N_2   0.789146 0.368690 0.965053 -0.481401
H37   H     H_    0.706747 0.399009 0.975224 0.249698
C84   C     C_3   0.877691 0.343205 0.003975 -0.449064
H38   H     H_    0.770802 0.332912 0.030335 0.184731
H39   H     H_    0.981955 0.368920 0.020495 0.173719
H40   H     H_    0.947485 0.307417 0.992258 0.238703
N5    N     N_2   0.289151 0.131311 0.965054 -0.481401
H41   H     H_    0.206752 0.100992 0.975225 0.249698
C85   C     C_3   0.377699 0.156796 0.003976 -0.449065
H42   H     H_    0.481962 0.131081 0.020495 0.173720
H43   H     H_    0.270811 0.167090 0.030336 0.184732
H44   H     H_    0.447494 0.192584 0.992258 0.238703
N6    N     N_2   0.710846 0.868689 0.034946 -0.481401
H45   H     H_    0.793244 0.899008 0.024774 0.249699
C86   C     C_3   0.622296 0.843204 0.996024 -0.449067
H46   H     H_    0.729182 0.832909 0.969664 0.184732
H47   H     H_    0.518031 0.868918 0.979505 0.173720
H48   H     H_    0.552503 0.807416 0.007743 0.238704
N7    N     N_2   0.710849 0.868689 0.465054 -0.481402
H49   H     H_    0.793249 0.899007 0.475225 0.249699
C87   C     C_3   0.622300 0.843205 0.503976 -0.449066
H50   H     H_    0.518037 0.868919 0.520495 0.173720
H51   H     H_    0.729187 0.832910 0.530336 0.184732
H52   H     H_    0.552504 0.807417 0.492258 0.238703
N8    N     N_2   0.289158 0.131312 0.534945 -0.481402
H53   H     H_    0.206759 0.100993 0.524773 0.249699
C88   C     C_3   0.377711 0.156797 0.496024 -0.449066
H54   H     H_    0.270827 0.167092 0.469663 0.184731
H55   H     H_    0.481976 0.131082 0.479505 0.173720
H56   H     H_    0.447504 0.192585 0.507743 0.238704
N9    N     N_2   0.294199 0.405336 0.682973 -0.519270
H57   H     H_    0.283278 0.441834 0.696586 0.241039
C89   C     C_3   0.484821 0.392805 0.671058 -0.430961
H58   H     H_    0.536807 0.418791 0.643217 0.161254
H59   H     H_    0.495325 0.352471 0.658886 0.245667
H60   H     H_    0.574534 0.397273 0.702326 0.170149
N10   N     N_2   0.705801 0.594664 0.317027 -0.519269
H61   H     H_    0.716723 0.558166 0.303413 0.241039
C90   C     C_3   0.515179 0.607195 0.328942 -0.430963
H62   H     H_    0.463194 0.581209 0.356783 0.161255
H63   H     H_    0.425466 0.602726 0.297674 0.170149
H64   H     H_    0.504675 0.647528 0.341114 0.245667
N11   N     N_2   0.705800 0.594664 0.182973 -0.519270
H65   H     H_    0.716720 0.558166 0.196586 0.241039
C91   C     C_3   0.515177 0.607196 0.171058 -0.430960
H66   H     H_    0.463191 0.581210 0.143216 0.161255
H67   H     H_    0.504674 0.647529 0.158886 0.245668
H68   H     H_    0.425464 0.602727 0.202325 0.170149
N12   N     N_2   0.294202 0.405336 0.817027 -0.519270
H69   H     H_    0.283283 0.441833 0.803414 0.241039
C92   C     C_3   0.484824 0.392804 0.828943 -0.430959
H70   H     H_    0.536809 0.418789 0.856785 0.161255
H71   H     H_    0.574539 0.397272 0.797676 0.170148
H72   H     H_    0.495326 0.352470 0.841115 0.245668
N13   N     N_2   0.794201 0.094664 0.817027 -0.519270
H73   H     H_    0.783281 0.058166 0.803414 0.241039
C93   C     C_3   0.984823 0.107196 0.828942 -0.430961
H74   H     H_    0.036808 0.081210 0.856784 0.161254
H75   H     H_    0.995325 0.147529 0.841114 0.245667
H76   H     H_    0.074536 0.102727 0.797675 0.170149
N14   N     N_2   0.205800 0.905336 0.182973 -0.519270
H77   H     H_    0.216720 0.941834 0.196586 0.241039
C94   C     C_3   0.015178 0.892804 0.171058 -0.430963
H78   H     H_    0.963192 0.918790 0.143216 0.161255
H79   H     H_    0.925465 0.897273 0.202325 0.170150
H80   H     H_    0.004675 0.852471 0.158886 0.245667
N15   N     N_2   0.205800 0.905336 0.317027 -0.519269
H81   H     H_    0.216721 0.941834 0.303414 0.241039
C95   C     C_3   0.015178 0.892805 0.328942 -0.430963
H82   H     H_    0.963194 0.918790 0.356784 0.161255
H83   H     H_    0.004674 0.852471 0.341114 0.245667
H84   H     H_    0.925464 0.897273 0.297675 0.170149
N16   N     N_2   0.794198 0.094663 0.682973 -0.519270
H85   H     H_    0.783277 0.058166 0.696587 0.241040
C96   C     C_3   0.984821 0.107195 0.671059 -0.430963
H86   H     H_    0.036806 0.081209 0.643217 0.161254
H87   H     H_    0.074534 0.102726 0.702326 0.170149
H88   H     H_    0.995325 0.147528 0.658887 0.245666

loop_
_geom_bond_atom_site_label_1
_geom_bond_atom_site_label_2
_ccdc_geom_bond_type
O17   V3    S    
O6    V2    S    
N12   H69   S    
O18   V4    S    
C84   H38   S    
C11   Br3   S    
O12   V1    S    
N4    C84   S    
C86   H47   S    
C86   H46   S    
C85   H42   S    
C10   C18   A    
C67   C75   A    
C68   H20   S    
C19   C27   A    
C44   C52   A    
C47   C55   A    
C82   H30   S    
C95   H84   S    
C69   H21   S    
O15   V4    S    
N6    C86   S    
C15   Br7   S    
N7    H49   S    
C94   H80   S    
C16   Br8   S    
O11   C3    A    
N15   H81   S    
O12   C4    A    
C66   H18   S    
O8    V1    S    
C65   H17   S    
C85   H43   S    
C12   C52   A    
C96   H88   S    
C12   Br4   S    
C60   C75   A    
C28   C75   S    
C83   H36   S    
O19   V1    S    
C57   C74   A    
C25   C74   S    
C37   H5    S    
N2    H29   S    
N2    C82   S    
O1    V3    S    
C25   C33   A    
C38   H6    S    
O3    C2    A    
O2    V4    S    
C32   C79   S    
C41   C49   A    
C39   H7    S    
N11   C91   S    
C8    C50   S    
C61   C78   A    
C89   H60   S    
C21   N5    S    
C28   C36   A    
C35   H3    S    
C29   C37   A    
C63   C80   A    
C34   H2    S    
N16   H85   S    
O11   V2    S    
C37   C45   A    
C90   H63   S    
C31   C39   A    
C91   H68   S    
C83   H34   S    
C32   C40   A    
C34   C42   A    
C15   C55   A    
C14   C54   A    
C11   C19   A    
C17   N1    S    
C19   N3    S    
O9    V1    S    
O4    V3    S    
C46   C54   A    
O15   C7    A    
C23   C31   A    
C21   C29   A    
C91   H66   S    
C84   H39   S    
O7    V2    S    
C48   C56   A    
C83   H35   S    
C27   C76   S    
C40   C48   A    
C66   C74   A    
N11   H65   S    
C26   C73   S    
C42   C50   A    
C17   C25   A    
N5    C85   S    
C63   H15   S    
C47   N15   S    
C87   H52   S    
O5    V1    S    
C43   N11   S    
C30   C77   S    
C44   N12   S    
C89   H59   S    
C22   N6    S    
C82   H31   S    
O13   C5    A    
N10   H61   S    
C26   C34   A    
C5    C51   S    
C85   H44   S    
C57   H9    S    
C62   C77   A    
C95   H82   S    
C87   H51   S    
C88   H55   S    
C61   H13   S    
N6    H45   S    
C72   H24   S    
C11   C51   A    
C39   C47   A    
C30   C38   A    
C3    C53   S    
C94   H78   S    
C88   H54   S    
C36   C44   A    
C2    C56   S    
N8    H53   S    
C64   C79   A    
C4    C54   S    
O16   V3    S    
C6    C52   S    
N14   H77   S    
N10   C90   S    
C93   H74   S    
C96   H86   S    
C59   C67   A    
N12   C92   S    
O10   V2    S    
C87   H50   S    
C90   H64   S    
C22   C30   A    
N13   H73   S    
C65   C73   A    
O9    C1    A    
C70   H22   S    
N1    C81   S    
C67   H19   S    
C23   N7    S    
N7    C87   S    
C18   C26   A    
O4    C1    A    
C71   H23   S    
C69   C77   A    
C93   H75   S    
C70   C78   A    
C84   H40   S    
C59   C76   A    
C64   H16   S    
C71   C79   A    
C96   H87   S    
C58   C73   A    
C13   Br5   S    
C12   C20   A    
C27   C35   A    
C13   C21   A    
C35   C43   A    
C18   N2    S    
C82   H32   S    
C60   H12   S    
C15   C23   A    
C92   H71   S    
C92   H72   S    
C13   C53   A    
C24   C32   A    
C92   H70   S    
C9    Br1   S    
N13   C93   S    
C14   Br6   S    
C88   H56   S    
N16   C96   S    
O2    C3    A    
C1    C55   S    
C20   N4    S    
C33   C41   A    
C38   C46   A    
C7    C49   S    
C33   H1    S    
O1    C4    A    
O8    C5    A    
C46   N14   S    
C41   N9    S    
C81   H26   S    
C95   H83   S    
C20   C28   A    
C45   N13   S    
C94   H79   S    
O7    C6    A    
N1    H25   S    
C64   C72   A    
C36   H4    S    
C9    C17   A    
O14   C6    A    
N3    C83   S    
C89   H58   S    
N15   C95   S    
N5    H41   S    
N3    H33   S    
C14   C22   A    
C81   H27   S    
C43   C51   A    
N9    H57   S    
O5    C8    A    
C81   H28   S    
O10   C2    A    
O6    C7    A    
O20   V2    S    
C86   H48   S    
C62   C70   A    
C68   C76   A    
C40   H8    S    
C48   N16   S    
O3    V4    S    
O13   V3    S    
C72   C80   A    
N14   C94   S    
N9    C89   S    
C29   C78   S    
C58   C66   A    
C45   C53   A    
C42   N10   S    
C93   H76   S    
O14   V4    S    
C31   C80   S    
C10   Br2   S    
O16   C8    A    
C90   H62   S    
C57   C65   A    
N4    H37   S    
C91   H67   S    
C63   C71   A    
C10   C50   A    
C59   H11   S    
C60   C68   A    
C9    C49   A    
C16   C24   A    
C58   H10   S    
C24   N8    S    
C16   C56   A    
C62   H14   S    
C61   C69   A    
N8    C88   S    
