data_mof_unit_41782.cif
_audit_creation_date              2013-03-05T16:31:32-0500
_audit_creation_method            fapswitch 2.2
_symmetry_space_group_name_H-M    P1
_symmetry_Int_Tables_number       1
_space_group_crystal_system       triclinic
_cell_length_a                    15.049836
_cell_length_b                    14.219701
_cell_length_c                    14.97578
_cell_angle_alpha                 89.223889
_cell_angle_beta                  89.840005
_cell_angle_gamma                 89.238637
_cell_volume                      3204.29145393

loop_
_atom_site_label
_atom_site_type_symbol
_atom_site_description
_atom_site_fract_x
_atom_site_fract_y
_atom_site_fract_z
_atom_type_partial_charge
O1    O     O_R   0.369060 0.579480 0.500010 -0.581065
O2    O     O_R   0.630940 0.420520 0.499990 -0.526473
O3    O     O_R   0.630940 0.579480 0.499990 -0.582415
O4    O     O_R   0.369060 0.420520 0.500010 -0.557946
C1    C     C_R   0.327801 0.500647 0.502000 0.997907
C2    C     C_R   0.672451 0.499212 0.502108 0.985170
O5    O     O_R   0.499980 0.579490 0.367850 -0.568344
O6    O     O_R   0.500020 0.420510 0.632150 -0.607203
O7    O     O_R   0.500020 0.579490 0.632150 -0.600896
O8    O     O_R   0.499980 0.420510 0.367850 -0.615516
C3    C     C_R   0.498611 0.500798 0.327288 0.957851
C4    C     C_R   0.496688 0.499609 0.672943 0.911954
Zn1   Zn    Zn3+2 0.500000 0.606140 0.500000 1.040306
Zn2   Zn    Zn3+2 0.500000 0.393860 0.500000 1.044824
C5    C     C_R   0.564659 0.460848 0.814897 0.367921
C6    C     C_R   0.421939 0.530648 0.187872 0.383066
C7    C     C_R   0.492128 0.499527 0.768600 -0.191103
C8    C     C_R   0.500146 0.503286 0.232070 -0.180738
C9    C     C_R   0.419286 0.541905 0.813319 0.065352
C10   C     C_R   0.579286 0.481966 0.186143 0.067761
C11   C     C_R   0.420173 0.542821 0.907366 0.116564
C12   C     C_R   0.577959 0.482854 0.092565 0.120929
C13   C     C_R   0.496841 0.509988 0.953489 -0.016449
C14   C     C_R   0.499231 0.510933 0.047132 -0.016233
C15   C     C_R   0.570788 0.474276 0.906386 0.006205
C16   C     C_R   0.422560 0.538654 0.095017 -0.002775
C17   C     C_R   0.346749 0.576062 0.956738 -0.222112
C18   C     C_R   0.653479 0.456175 0.043101 -0.216871
C19   C     C_R   0.347552 0.572665 0.049267 -0.196163
C20   C     C_R   0.649565 0.451188 0.951327 -0.208577
H1    H     H_    0.287082 0.603044 0.924956 0.155777
H2    H     H_    0.715749 0.436220 0.074267 0.151552
H3    H     H_    0.288874 0.596638 0.084797 0.186364
H4    H     H_    0.708538 0.428142 0.915707 0.178613
C21   C     C_R   0.091031 0.579073 0.482718 0.407245
C22   C     C_R   0.912131 0.424808 0.479154 0.424295
C23   C     C_R   0.902187 0.572479 0.562529 0.458656
C24   C     C_R   0.097614 0.430540 0.567860 0.451590
C25   C     C_R   0.183333 0.581648 0.481230 0.306113
C26   C     C_R   0.819043 0.422030 0.475193 0.338497
C27   C     C_R   0.810421 0.570882 0.556428 0.336320
C28   C     C_R   0.189414 0.428131 0.557975 0.329105
C29   C     C_R   0.232185 0.502845 0.512853 -0.450154
C30   C     C_R   0.768795 0.497435 0.510761 -0.421125
C31   C     C_R   0.048604 0.504313 0.526848 -0.183453
C32   C     C_R   0.952726 0.500258 0.522986 -0.173444
C33   C     C_R   0.432408 0.107673 0.454938 -0.410667
C34   C     C_R   0.534673 0.894088 0.570903 -0.387593
C35   C     C_R   0.565219 0.102914 0.543034 -0.422332
C36   C     C_R   0.460429 0.896276 0.429631 -0.415168
H5    H     H_    0.380356 0.072416 0.419670 0.156745
H6    H     H_    0.563471 0.929388 0.627028 0.161321
H7    H     H_    0.617067 0.063162 0.576416 0.161701
H8    H     H_    0.430200 0.933826 0.374237 0.163370
C37   C     C_R   0.433688 0.207627 0.455818 0.607198
C38   C     C_R   0.534444 0.794569 0.570879 0.615768
C39   C     C_R   0.566777 0.202977 0.541911 0.577838
C40   C     C_R   0.463079 0.796369 0.429553 0.557989
N1    N     N_R   0.500000 0.252470 0.500000 -0.166683
N2    N     N_R   0.500000 0.747530 0.500000 -0.177360
C41   C     C_R   0.497909 0.053721 0.499605 0.101872
C42   C     C_R   0.497401 0.946935 0.500054 0.085705
O9    O     O_3   0.632410 0.415171 0.769198 -0.631998
C43   C     C_3   0.623377 0.317252 0.783021 -0.237679
H9    H     H_    0.684294 0.281674 0.758366 0.189644
H10   H     H_    0.565299 0.290682 0.745787 0.203060
H11   H     H_    0.616904 0.296891 0.854722 0.127349
O10   O     O_3   0.346938 0.556040 0.236429 -0.579096
C44   C     C_3   0.294761 0.475463 0.250527 -0.309842
H12   H     H_    0.331135 0.420615 0.290054 0.196667
H13   H     H_    0.271939 0.445923 0.186228 0.145706
H14   H     H_    0.234847 0.495905 0.289384 0.184784
C45   C     C_3   0.340406 0.583778 0.762543 -0.961124
H15   H     H_    0.346016 0.579317 0.689133 0.238408
H16   H     H_    0.278913 0.546091 0.781561 0.222909
H17   H     H_    0.332600 0.659379 0.778822 0.242275
C46   C     C_3   0.664676 0.458655 0.235665 -0.917502
H18   H     H_    0.659219 0.462600 0.309182 0.243551
H19   H     H_    0.685895 0.386045 0.218957 0.231356
H20   H     H_    0.717136 0.508800 0.215231 0.229215
O11   O     O_3   0.042243 0.652108 0.444035 -0.540970
C47   C     C_3   0.032109 0.634644 0.352228 -0.261954
H21   H     H_    0.985888 0.575652 0.341876 0.125454
H22   H     H_    0.096833 0.620522 0.318352 0.175723
H23   H     H_    0.002087 0.698140 0.320026 0.188743
O12   O     O_3   0.961870 0.348158 0.450059 -0.530196
C48   C     C_3   0.005584 0.370445 0.368881 -0.335360
H24   H     H_    0.069563 0.405703 0.381055 0.154765
H25   H     H_    0.964003 0.413853 0.322442 0.115317
H26   H     H_    0.021638 0.303829 0.334327 0.180724
O13   O     O_3   0.941088 0.650240 0.600708 -0.513593
C49   C     C_3   0.978036 0.626142 0.684677 -0.290761
H27   H     H_    0.048627 0.604234 0.677047 0.143448
H28   H     H_    0.940791 0.570833 0.721616 0.109160
H29   H     H_    0.976894 0.689764 0.726704 0.187722
O14   O     O_3   0.056873 0.353506 0.607352 -0.510688
C50   C     C_3   0.018684 0.378996 0.689894 -0.297450
H30   H     H_    0.949634 0.405250 0.680055 0.153057
H31   H     H_    0.058295 0.431442 0.726815 0.104333
H32   H     H_    0.014978 0.315049 0.732893 0.186494
O15   O     O_3   0.225162 0.656179 0.438895 -0.527464
C51   C     C_3   0.226396 0.732988 0.497657 -0.134745
H33   H     H_    0.158325 0.760721 0.511011 0.178497
H34   H     H_    0.264547 0.790632 0.465790 0.176681
H35   H     H_    0.259957 0.714050 0.561742 0.118840
O16   O     O_3   0.775360 0.341598 0.448517 -0.556717
C52   C     C_3   0.797044 0.316065 0.360468 -0.253877
H36   H     H_    0.814424 0.377083 0.316876 0.129324
H37   H     H_    0.738320 0.281907 0.331173 0.171063
H38   H     H_    0.851071 0.262305 0.360784 0.206408
O17   O     O_3   0.762092 0.642513 0.596203 -0.528626
C53   C     C_3   0.735979 0.612524 0.682586 -0.095391
H39   H     H_    0.788268 0.571525 0.718954 0.089871
H40   H     H_    0.675051 0.570048 0.678702 0.189745
H41   H     H_    0.720622 0.675395 0.723065 0.184237
O18   O     O_3   0.235430 0.347965 0.585546 -0.551347
C54   C     C_3   0.265588 0.359932 0.673591 -0.234536
H42   H     H_    0.211026 0.380414 0.719885 0.140178
H43   H     H_    0.319489 0.412103 0.675345 0.152109
H44   H     H_    0.293827 0.291985 0.698191 0.175902
O19   O     O_3   0.374250 0.262695 0.406277 -0.585220
C55   C     C_3   0.286879 0.227780 0.409550 -0.260931
H45   H     H_    0.268845 0.199321 0.476774 0.199268
H46   H     H_    0.277746 0.173915 0.357487 0.135961
H47   H     H_    0.239971 0.286659 0.394282 0.191143
O20   O     O_3   0.574698 0.743577 0.639191 -0.557772
C56   C     C_3   0.534481 0.765147 0.721948 -0.326280
H48   H     H_    0.551622 0.708308 0.770631 0.189863
H49   H     H_    0.460580 0.768703 0.717590 0.155822
H50   H     H_    0.560966 0.831485 0.748854 0.149475
O21   O     O_3   0.631417 0.254244 0.585478 -0.569909
C57   C     C_3   0.714245 0.206677 0.591743 -0.227675
H51   H     H_    0.734059 0.173753 0.527516 0.187756
H52   H     H_    0.713566 0.154031 0.647203 0.110126
H53   H     H_    0.765791 0.258586 0.608451 0.217075
O22   O     O_3   0.422492 0.746220 0.362534 -0.530988
C58   C     C_3   0.449796 0.778438 0.277210 -0.225110
H54   H     H_    0.437810 0.722379 0.228274 0.210300
H55   H     H_    0.522103 0.794278 0.274382 0.126935
H56   H     H_    0.409322 0.840426 0.255543 0.137773

loop_
_geom_bond_atom_site_label_1
_geom_bond_atom_site_label_2
_geom_bond_distance
_ccdc_geom_bond_type
C48   H24   1.108160 S    
C37   O19   1.390377 S    
C3    C8    1.426054 S    
O15   C51   1.412204 S    
C37   N1    1.368359 A    
C17   C19   1.385974 A    
C45   H16   1.110111 S    
C45   H15   1.104991 S    
O17   C53   1.412973 S    
O3    C2    1.293928 A    
C53   H40   1.106774 S    
C50   H30   1.109064 S    
C21   O11   1.385311 S    
Zn1   N2    2.010524 S    
O2    C2    1.289596 A    
C31   C32   1.446229 S    
O5    C3    1.280868 A    
Zn2   N1    2.010524 S    
C58   H55   1.114784 S    
O20   C56   1.413362 S    
C10   C46   1.516161 S    
O1    C1    1.288619 A    
C33   C37   1.421939 A    
C9    C11   1.408769 A    
C14   C16   1.411403 A    
C24   C28   1.389080 A    
C34   H6    1.079586 S    
C54   H43   1.107128 S    
C5    C15   1.389417 A    
O16   C52   1.408703 S    
C40   N2    1.370127 A    
C19   H3    1.083270 S    
C35   C39   1.423240 A    
O18   C54   1.408886 S    
C51   H35   1.113916 S    
C34   C38   1.415188 A    
C44   H13   1.112790 S    
O7    Zn1   2.009957 S    
C24   C31   1.409343 A    
C7    C9    1.415170 A    
O10   C44   1.410842 S    
C4    C7    1.433969 S    
C52   H36   1.112285 S    
C22   C32   1.412055 A    
C6    O10   1.387416 S    
C38   O20   1.382413 S    
C41   C42   1.518514 S    
O3    Zn1   2.001806 S    
C11   C17   1.407903 A    
C12   C18   1.405652 A    
C23   C27   1.384846 A    
C52   H37   1.108521 S    
C51   H33   1.111427 S    
C18   H2    1.080928 S    
C53   H39   1.112384 S    
C50   H31   1.114495 S    
C25   O15   1.385187 S    
C46   H19   1.108328 S    
C6    C16   1.393709 A    
C58   H56   1.110110 S    
C35   C41   1.404756 A    
C20   H4    1.083532 S    
C17   H1    1.080916 S    
C36   C40   1.420681 A    
C43   H11   1.112681 S    
C9    C45   1.521848 S    
O8    Zn2   2.009957 S    
C54   H44   1.109128 S    
O13   C49   1.412490 S    
C23   O13   1.388715 S    
O12   C48   1.414858 S    
C57   H51   1.113626 S    
C25   C29   1.409297 A    
C40   O22   1.386859 S    
C46   H18   1.105930 S    
C49   H29   1.108982 S    
O11   C47   1.409482 S    
C38   N2    1.369063 A    
C43   H10   1.111245 S    
C44   H14   1.109436 S    
C21   C25   1.390207 A    
C56   H49   1.114729 S    
C34   C42   1.405569 A    
O5    Zn1   2.020041 S    
O6    C4    1.287543 A    
O14   C50   1.411510 S    
C49   H28   1.112183 S    
C36   H8    1.078850 S    
C51   H34   1.108903 S    
O19   C55   1.412178 S    
C57   H52   1.110701 S    
C28   O18   1.384709 S    
C10   C12   1.401479 A    
C47   H22   1.114148 S    
C11   C13   1.416980 A    
C36   C42   1.405458 A    
C27   C30   1.410703 A    
C12   C14   1.418023 A    
C22   C26   1.403480 A    
O1    Zn1   2.011700 S    
C28   C29   1.412799 A    
C55   H46   1.110422 S    
O21   C57   1.413045 S    
C21   C31   1.403995 A    
C50   H32   1.109017 S    
C26   O16   1.390580 S    
C46   H20   1.110454 S    
C15   C20   1.398024 A    
C5    C7    1.397386 A    
O6    Zn2   2.020041 S    
C39   O21   1.392404 S    
O22   C58   1.413390 S    
C33   C41   1.406214 A    
C33   H5    1.078843 S    
C47   H23   1.109293 S    
C58   H54   1.106992 S    
C22   O12   1.388362 S    
C43   H9    1.106187 S    
C55   H47   1.109785 S    
C18   C20   1.378646 A    
C55   H45   1.114140 S    
C56   H50   1.110067 S    
C54   H42   1.111617 S    
C57   H53   1.109301 S    
C35   H7    1.077544 S    
O4    C1    1.290999 A    
C49   H27   1.109163 S    
C52   H38   1.108568 S    
C8    C10   1.405366 A    
C13   C15   1.408643 A    
O4    Zn2   2.001807 S    
C44   H12   1.111897 S    
O2    Zn2   2.011698 S    
O7    C4    1.283935 A    
C39   N1    1.368208 A    
O8    C3    1.285874 A    
C13   C14   1.403193 A    
O9    C43   1.413185 S    
C26   C30   1.413142 A    
C45   H17   1.110171 S    
C16   C19   1.399442 A    
C6    C8    1.400010 A    
C47   H21   1.109600 S    
C27   O17   1.384065 S    
C48   H26   1.109039 S    
C24   O14   1.387060 S    
C48   H25   1.112117 S    
C5    O9    1.385812 S    
C1    C29   1.447664 S    
C2    C30   1.455948 S    
C23   C32   1.406072 A    
C53   H41   1.108407 S    
C56   H48   1.109444 S    
