data_mof_unit_35633.cif
_audit_creation_date              2012-12-11T16:10:56-0500
_audit_creation_method            fapswitch 2.2
_symmetry_space_group_name_H-M    P1
_symmetry_Int_Tables_number       1
_space_group_crystal_system       triclinic
_cell_length_a                    12.840172
_cell_length_b                    13.268037
_cell_length_c                    26.938108
_cell_angle_alpha                 97.250938
_cell_angle_beta                  90.163528
_cell_angle_gamma                 118.945377
_cell_volume                      3973.05687238

loop_
_atom_site_label
_atom_site_type_symbol
_atom_type_description
_atom_site_fract_x
_atom_site_fract_y
_atom_site_fract_z
_atom_type_partial_charge
C1    C     C_R   0.628022 0.894498 0.424382 0.540064
C2    C     C_1   0.139942 0.824366 0.179521 -0.045254
C3    C     C_1   0.160074 0.837357 0.231877 -0.005391
C4    C     C_R   0.602244 0.224246 0.443460 0.540817
C5    C     C_1   0.174433 0.844285 0.276559 -0.003746
C6    C     C_1   0.194389 0.851055 0.328550 -0.042978
C7    C     C_1   0.220458 0.859285 0.372339 -0.006728
C8    C     C_1   0.689720 0.798921 0.136308 -0.020857
C9    C     C_1   0.673557 0.808505 0.180185 -0.056799
C10   C     C_1   0.662419 0.817300 0.232268 -0.006589
C11   C     C_1   0.656557 0.826166 0.277003 -0.011252
C12   C     C_R   0.594016 0.362064 0.232864 0.002374
C13   C     C_1   0.650727 0.841286 0.329346 -0.066925
C14   C     C_1   0.643301 0.861001 0.373600 -0.032057
C15   C     C_1   0.694135 0.385446 0.874676 -0.006062
C16   C     C_R   0.268142 0.875503 0.422488 0.543660
C17   C     C_1   0.685529 0.359628 0.829870 -0.051694
C18   C     C_1   0.677454 0.339383 0.777125 -0.032279
C19   C     C_1   0.669262 0.324485 0.732025 -0.030176
C20   C     C_1   0.655034 0.303413 0.679303 -0.055205
C21   C     C_1   0.636038 0.276178 0.634579 -0.015515
C22   C     C_1   0.210854 0.859680 0.607594 -0.003427
C23   C     C_R   0.592429 0.354859 0.284541 0.256241
C24   C     C_R   0.138695 0.727020 0.717456 -0.005339
C25   C     C_R   0.133461 0.721603 0.769543 -0.003912
C26   C     C_R   0.150902 0.914659 0.783897 -0.130069
C27   C     C_R   0.154992 0.919581 0.732671 -0.104418
C28   C     C_R   0.630737 0.898325 0.563754 0.545261
C29   C     C_R   0.149908 0.827151 0.699521 0.025175
C30   C     C_R   0.142055 0.817397 0.802484 0.016559
C31   C     C_1   0.128003 0.810782 0.854856 -0.056559
C32   C     C_1   0.176449 0.844296 0.648685 -0.042108
C33   C     C_1   0.105126 0.795589 0.897238 -0.008542
C34   C     C_R   0.674264 0.330448 0.307805 0.017352
C35   C     C_1   0.656334 0.858011 0.606277 -0.001504
C36   C     C_R   0.799790 0.871247 0.721608 0.278766
C37   C     C_R   0.808021 0.850664 0.771118 -0.155048
C38   C     C_R   0.602369 0.693382 0.761158 0.264984
C39   C     C_R   0.594173 0.712835 0.711789 -0.155170
C40   C     C_R   0.603193 0.227505 0.582883 0.539313
C41   C     C_R   0.691824 0.800940 0.692212 0.008788
C42   C     C_R   0.708652 0.765601 0.791240 0.002637
C43   C     C_1   0.716583 0.756455 0.843381 -0.015141
C44   C     C_1   0.674563 0.829271 0.644409 -0.005067
C45   C     C_R   0.682321 0.350728 0.205578 -0.027304
C46   C     C_1   0.727763 0.752906 0.887279 -0.005220
C47   C     C_R   0.065476 0.771990 0.084191 0.546177
C48   C     C_R   0.715638 0.438134 0.066471 0.545948
C49   C     C_R   0.720159 0.782389 0.086113 0.555962
C50   C     C_R   0.059761 0.765150 0.944277 0.539058
C51   C     C_R   0.709538 0.432307 0.926569 0.535892
C52   C     C_R   0.267474 0.878961 0.561827 0.546543
C53   C     C_R   0.748069 0.751132 0.939133 0.561424
C54   C     C_1   0.637588 0.276404 0.399101 -0.001782
C55   C     C_R   0.762226 0.318904 0.280249 -0.042082
C56   C     C_1   0.692372 0.366652 0.153837 -0.049655
C57   C     C_R   0.766456 0.331383 0.229380 -0.137628
C58   C     C_R   0.850344 0.293405 0.303298 0.031301
C59   C     C_R   0.812759 0.190715 0.324514 -0.077537
C60   C     C_R   0.896808 0.166723 0.345374 -0.098643
C61   C     C_R   0.018683 0.244319 0.344869 -0.102973
C62   C     C_R   0.056782 0.345999 0.323427 -0.107752
C63   C     C_R   0.973099 0.370457 0.302591 -0.096402
C64   C     C_3   0.490278 0.499795 0.763977 -0.006194
C65   C     C_3   0.378977 0.407112 0.783891 -0.373699
C66   C     C_R   0.501753 0.379727 0.208120 0.052742
C67   C     C_1   0.658969 0.307004 0.358601 -0.016978
C68   C     C_R   0.380495 0.296657 0.207738 -0.053938
C69   C     C_R   0.292985 0.313731 0.185366 -0.117329
C70   C     C_R   0.325798 0.413606 0.163172 -0.105933
C71   C     C_R   0.446138 0.496744 0.163459 -0.094655
C72   C     C_R   0.533982 0.480407 0.186060 -0.092885
C73   C     C_3   0.550277 0.483341 0.331562 -0.005545
C74   C     C_3   0.451401 0.497832 0.356584 -0.360148
C75   C     C_R   0.136426 0.630027 0.682293 0.031239
C76   C     C_R   0.227181 0.600536 0.686555 -0.080239
C77   C     C_R   0.221522 0.505440 0.655162 -0.108925
C78   C     C_1   0.701924 0.391424 0.112192 -0.005830
C79   C     C_R   0.125753 0.439631 0.619189 -0.100911
C80   C     C_R   0.035664 0.469025 0.614460 -0.104648
C81   C     C_R   0.040875 0.563966 0.645850 -0.094167
C82   C     C_R   0.116042 0.615142 0.789300 0.027310
C83   C     C_R   0.010918 0.508684 0.775491 -0.076845
C84   C     C_R   0.995760 0.408125 0.793175 -0.107181
C85   C     C_R   0.084968 0.413278 0.824944 -0.115500
C86   C     C_R   0.189483 0.519018 0.839083 -0.091917
C87   C     C_R   0.205315 0.619639 0.821243 -0.072224
C88   C     C_3   0.949266 0.064090 0.731775 -0.015724
C89   C     C_1   0.113592 0.805798 0.135171 -0.007740
C90   C     C_3   0.021593 0.160147 0.700686 -0.369911
Cr1   Cr    Cr6+3 0.416010 0.828400 0.490230 1.027546
Cr2   Cr    Cr6+3 0.676380 0.087280 0.505260 1.020853
Cr3   Cr    Cr6+3 0.407590 0.084280 0.504540 1.031330
Cr4   Cr    Cr6+3 0.914090 0.832340 0.018020 1.025444
Cr5   Cr    Cr6+3 0.923310 0.576840 0.003860 1.028087
Cr6   Cr    Cr6+3 0.654200 0.573160 0.004700 1.026982
H1    H     H_    0.890671 0.902013 0.794407 0.107723
H2    H     H_    0.003876 0.449636 0.286119 0.111001
H3    H     H_    0.568688 0.493918 0.777853 0.148097
H4    H     H_    0.479950 0.480722 0.722215 0.121552
H5    H     H_    0.298820 0.408687 0.769357 0.155918
H6    H     H_    0.369305 0.319785 0.771378 0.100015
H7    H     H_    0.385776 0.423115 0.825549 0.163588
H8    H     H_    0.353886 0.218709 0.224706 0.136307
H9    H     H_    0.199729 0.249474 0.185205 0.116744
H10   H     H_    0.257970 0.426638 0.145793 0.115623
H11   H     H_    0.471139 0.573931 0.146242 0.125702
H12   H     H_    0.510204 0.661552 0.689289 0.113351
H13   H     H_    0.626813 0.546277 0.186598 0.111039
H14   H     H_    0.580855 0.540100 0.301561 0.133472
H15   H     H_    0.625764 0.512792 0.360197 0.132152
H16   H     H_    0.419194 0.443253 0.387102 0.162322
H17   H     H_    0.485546 0.590395 0.372766 0.110112
H18   H     H_    0.375893 0.471103 0.328501 0.155804
H19   H     H_    0.301480 0.650487 0.714482 0.128097
H20   H     H_    0.291088 0.482456 0.658877 0.103560
H21   H     H_    0.121252 0.365759 0.595033 0.109907
H22   H     H_    0.961371 0.417768 0.586687 0.115422
H23   H     H_    0.834470 0.323923 0.207975 0.129162
H24   H     H_    0.969707 0.584916 0.642350 0.111114
H25   H     H_    0.941186 0.503702 0.750912 0.117607
H26   H     H_    0.914989 0.326142 0.782174 0.113819
H27   H     H_    0.073239 0.335289 0.838494 0.101516
H28   H     H_    0.258603 0.522876 0.863617 0.125797
H29   H     H_    0.287282 0.700769 0.831968 0.126807
H30   H     H_    0.011356 0.066105 0.761208 0.118824
H31   H     H_    0.881352 0.083274 0.749729 0.126898
H32   H     H_    0.962201 0.161938 0.671152 0.171420
H33   H     H_    0.065443 0.245829 0.725171 0.100691
H34   H     H_    0.154423 0.986862 0.809108 0.105958
H35   H     H_    0.091434 0.144908 0.682676 0.154675
H36   H     H_    0.165606 0.997183 0.718988 0.127374
H37   H     H_    0.718671 0.128891 0.324529 0.119355
H38   H     H_    0.867550 0.087758 0.361762 0.131765
H39   H     H_    0.083602 0.225501 0.360952 0.118336
H40   H     H_    0.151162 0.405878 0.322916 0.109655
O1    O     O_R   0.294740 0.800910 0.434410 -0.508953
O2    O     O_R   0.635480 0.460400 0.052590 -0.504112
O3    O     O_R   0.662650 0.681410 0.060750 -0.494753
O4    O     O_R   0.526010 0.837250 0.440870 -0.496101
O5    O     O_R   0.814500 0.852290 0.965490 -0.504918
O6    O     O_R   0.013160 0.821640 0.966980 -0.515858
O7    O     O_R   0.038850 0.666600 0.954370 -0.499409
O8    O     O_R   0.813260 0.476410 0.948680 -0.493105
O9    O     O_R   0.630060 0.454430 0.944230 -0.515430
O10   O     O_R   0.657630 0.675880 0.960300 -0.486610
O11   O     O_3   0.830530 0.660780 0.008860 -0.275306
O12   O     O_R   0.664100 0.185180 0.560770 -0.498262
O13   O     O_R   0.704290 0.994500 0.446090 -0.513136
O14   O     O_R   0.662870 0.181760 0.460430 -0.499156
O15   O     O_R   0.498970 0.199080 0.457120 -0.500069
O16   O     O_R   0.309350 0.975930 0.448180 -0.491626
O17   O     O_R   0.296060 0.804610 0.542650 -0.503017
O18   O     O_R   0.527240 0.840670 0.541200 -0.497526
O19   O     O_R   0.705610 0.998200 0.554330 -0.503046
O20   O     O_3   0.503476 0.610665 0.781190 -0.558114
O21   O     O_3   0.505830 0.364982 0.311791 -0.558341
O22   O     O_3   0.895955 0.955437 0.700204 -0.546537
O23   O     O_R   0.500290 0.202770 0.565360 -0.508453
O24   O     O_R   0.310570 0.979360 0.548520 -0.495416
O25   O     O_3   0.499990 0.999990 0.500010 -0.246863
O26   O     O_R   0.819910 0.858260 0.073860 -0.497497
O27   O     O_R   0.018180 0.827180 0.067430 -0.493377
O28   O     O_R   0.044260 0.672570 0.062730 -0.504529
O29   O     O_R   0.818270 0.481940 0.049130 -0.492740

loop_
_geom_bond_atom_site_label_1
_geom_bond_atom_site_label_2
_ccdc_geom_bond_type
Cr2   O25   S    
C52   O24   A    
C66   C68   A    
C24   C25   A    
Cr5   O7    S    
C71   H11   S    
Cr2   O12   S    
C73   C74   S    
C40   O23   A    
C16   O1    A    
C65   H5    S    
Cr6   O3    S    
C37   H1    S    
C73   H14   S    
C39   C41   A    
C51   O8    A    
Cr6   O9    S    
C12   C23   A    
C45   C57   A    
C26   C27   A    
C22   C32   T    
C36   C37   A    
C38   C42   A    
C29   C32   S    
C74   H16   S    
C30   C31   S    
C8    C49   S    
C27   C29   A    
C51   O9    A    
C84   H26   S    
C82   C87   A    
C74   H18   S    
C79   H21   S    
C25   C30   A    
C76   H19   S    
C56   C78   T    
C18   C19   T    
C48   C78   S    
C37   C42   A    
Cr3   O23   S    
C24   C29   A    
Cr3   O24   S    
C88   H30   S    
Cr1   O1    S    
C90   H33   S    
C64   H3    S    
C66   C72   A    
C48   O29   A    
C19   C20   S    
C45   C56   S    
C8    C9    T    
C28   O19   A    
C31   C33   T    
C1    O13   A    
C70   C71   A    
C15   C51   S    
C77   H20   S    
C9    C10   S    
Cr4   O26   S    
C26   H34   S    
C36   O22   S    
C57   H23   S    
C47   O27   A    
C34   C55   A    
C13   C14   T    
C28   O18   A    
C27   H36   S    
C47   C89   S    
C36   C41   A    
C61   C62   A    
C86   H28   S    
C65   H6    S    
Cr5   O29   S    
C73   H15   S    
C77   C79   A    
C39   H12   S    
C80   H22   S    
C40   O12   A    
Cr4   O6    S    
Cr5   O11   S    
C84   C85   A    
C28   C35   S    
Cr1   O18   S    
C70   H10   S    
C88   H31   S    
C69   H9    S    
C86   C87   A    
C75   C81   A    
C54   C67   T    
C33   C50   S    
C85   C86   A    
C74   H17   S    
C12   C66   S    
C59   H37   S    
C83   H25   S    
Cr1   O4    S    
C60   C61   A    
C38   C39   A    
C2    C89   T    
C75   C76   A    
C59   C60   A    
C62   C63   A    
C83   C84   A    
C81   H24   S    
Cr3   O25   S    
C23   C34   A    
C17   C18   S    
C16   O16   A    
C76   C77   A    
C35   C44   T    
C49   O26   A    
C1    O4    A    
C47   O28   A    
C7    C16   S    
C88   C90   S    
C26   C30   A    
C88   O22   S    
C49   O3    A    
Cr2   O14   S    
C25   C82   S    
C41   C44   S    
Cr3   O15   S    
C42   C43   S    
C90   H35   S    
C60   H38   S    
C87   H29   S    
C4    O14   A    
C50   O7    A    
C61   H39   S    
C22   C52   S    
C58   C63   A    
C15   C17   T    
Cr6   O11   S    
C72   H13   S    
C90   H32   S    
C4    C54   S    
Cr4   O5    S    
C68   C69   A    
Cr5   O8    S    
C68   H8    S    
C80   C81   A    
C3    C5    T    
C34   C67   S    
C38   O20   S    
C24   C75   S    
Cr1   O17   S    
C6    C7    T    
C12   C45   A    
C73   O21   S    
C63   H2    S    
Cr6   O10   S    
C64   O20   S    
C48   O2    A    
Cr4   O11   S    
C64   C65   S    
C55   C57   A    
C2    C3    S    
C52   O17   A    
C71   C72   A    
Cr5   O28   S    
Cr6   O2    S    
C11   C13   S    
C5    C6    S    
C21   C40   S    
C4    O15   A    
C23   O21   S    
C46   C53   S    
C53   O10   A    
C85   H27   S    
Cr2   O19   S    
C53   O5    A    
C62   H40   S    
C69   C70   A    
C43   C46   T    
C58   C59   A    
C10   C11   T    
C79   C80   A    
C64   H4    S    
C20   C21   T    
C82   C83   A    
C55   C58   S    
Cr2   O13   S    
C65   H7    S    
Cr1   O25   S    
Cr3   O16   S    
C1    C14   S    
Cr4   O27   S    
C50   O6    A    
