data_mof_unit_63159.cif
_audit_creation_date              2012-12-10T20:58:27-0500
_audit_creation_method            fapswitch 2.2
_symmetry_space_group_name_H-M    P1
_symmetry_Int_Tables_number       1
_space_group_crystal_system       triclinic
_cell_length_a                    15.890405
_cell_length_b                    15.114829
_cell_length_c                    11.568428
_cell_angle_alpha                 90.000136
_cell_angle_beta                  89.970643
_cell_angle_gamma                 89.999472
_cell_volume                      2778.51339844

loop_
_atom_site_label
_atom_site_type_symbol
_atom_type_description
_atom_site_fract_x
_atom_site_fract_y
_atom_site_fract_z
_atom_type_partial_charge
C1    C     C_R   0.339075 0.500000 0.500061 0.901832
C2    C     C_R   0.573398 0.047091 0.529758 -0.038865
C3    C     C_R   0.573398 0.952908 0.529758 -0.038862
C4    C     C_R   0.426602 0.047092 0.470242 -0.038862
C5    C     C_1   0.500000 0.806872 0.500000 0.105282
C6    C     C_1   0.500000 0.193127 0.500000 0.105282
C7    C     C_1   0.500008 0.500000 0.161168 -0.169962
C8    C     C_1   0.499992 0.500000 0.838832 -0.169962
C9    C     C_1   0.500003 0.500000 0.059205 0.014819
C10   C     C_1   0.499997 0.500000 0.940795 0.014819
C11   C     C_R   0.956018 0.581191 0.499842 -0.056144
C12   C     C_R   0.660925 0.500000 0.499939 0.901832
C13   C     C_R   0.043982 0.418809 0.500158 -0.056144
C14   C     C_R   0.043979 0.581192 0.499979 -0.056146
C15   C     C_R   0.956021 0.418808 0.500021 -0.056146
C16   C     C_R   0.912831 0.499999 0.499884 0.032699
C17   C     C_R   0.087169 0.500001 0.500116 0.032699
C18   C     C_1   0.823588 0.499998 0.499869 -0.023406
C19   C     C_1   0.176412 0.500002 0.500131 -0.023406
C20   C     C_1   0.350718 0.094836 0.439438 0.187424
C21   C     C_1   0.649282 0.905164 0.560562 0.187424
C22   C     C_1   0.649282 0.094833 0.560564 0.187412
C23   C     C_1   0.251011 0.500001 0.500107 -0.153021
C24   C     C_1   0.350718 0.905167 0.439435 0.187412
C25   C     C_1   0.089940 0.664269 0.500026 0.200540
C26   C     C_1   0.910060 0.335731 0.499974 0.200540
C27   C     C_1   0.910054 0.664267 0.499611 0.200550
C28   C     C_1   0.089946 0.335733 0.500389 0.200550
C29   C     C_1   0.748988 0.499999 0.499893 -0.153020
C30   C     C_R   0.500000 0.904984 0.500000 -0.050335
C31   C     C_R   0.500000 0.095016 0.500000 -0.050335
C32   C     C_R   0.500011 0.500000 0.281391 0.902798
C33   C     C_R   0.499988 0.500000 0.718609 0.902799
C34   C     C_R   0.426602 0.952909 0.470242 -0.038865
N1    N     N_1   0.500000 0.270550 0.500000 -0.082356
N2    N     N_1   0.126597 0.269568 0.500591 -0.160942
N3    N     N_1   0.500000 0.729450 0.500000 -0.082356
N4    N     N_1   0.290169 0.132981 0.414842 -0.161127
N5    N     N_1   0.709831 0.867019 0.585158 -0.161127
N6    N     N_1   0.709831 0.132976 0.585163 -0.161106
N7    N     N_1   0.290169 0.867024 0.414837 -0.161106
N8    N     N_1   0.126588 0.730435 0.500081 -0.160920
N9    N     N_1   0.873412 0.269565 0.499919 -0.160920
N10   N     N_1   0.873403 0.730432 0.499409 -0.160942
O1    O     O_R   0.378020 0.573650 0.500040 -0.604991
O2    O     O_R   0.621980 0.426350 0.499960 -0.604992
O3    O     O_R   0.621980 0.573650 0.499960 -0.604989
O4    O     O_R   0.378020 0.426350 0.500040 -0.604988
O5    O     O_R   0.500010 0.573670 0.334460 -0.607083
O6    O     O_R   0.499990 0.426330 0.665540 -0.607083
O7    O     O_R   0.499990 0.573670 0.665540 -0.607086
O8    O     O_R   0.500010 0.426330 0.334460 -0.607086
Zn1   Zn    Zn3+2 0.500000 0.598370 0.500000 1.003983
Zn2   Zn    Zn3+2 0.500000 0.401630 0.500000 1.003983

loop_
_geom_bond_atom_site_label_1
_geom_bond_atom_site_label_2
_ccdc_geom_bond_type
C25   N8    T    
C2    C22   S    
C3    C30   A    
C19   C23   T    
C13   C28   S    
C11   C27   S    
C12   C29   S    
C33   O7    A    
C20   N4    T    
C9    C10   S    
C21   N5    T    
C13   C17   A    
O3    Zn1   S    
N3    Zn1   S    
O2    Zn2   S    
C2    C3    A    
O1    Zn1   S    
C1    O4    A    
C18   C29   T    
N1    Zn2   S    
O4    Zn2   S    
C24   N7    T    
C14   C17   A    
C1    O1    A    
O6    Zn2   S    
C12   O3    A    
O5    Zn1   S    
C8    C10   T    
C17   C19   S    
O8    Zn2   S    
C26   N9    T    
C1    C23   S    
C5    N3    T    
C8    C33   S    
C13   C15   A    
C14   C25   S    
C11   C14   A    
C4    C34   A    
C32   O5    A    
C3    C21   S    
C4    C31   A    
C30   C34   A    
C15   C16   A    
C4    C20   S    
C6    N1    T    
C28   N2    T    
C16   C18   S    
C5    C30   S    
C11   C16   A    
C7    C9    T    
C22   N6    T    
C32   O8    A    
C15   C26   S    
C6    C31   S    
C7    C32   S    
C33   O6    A    
C27   N10   T    
C24   C34   S    
C2    C31   A    
O7    Zn1   S    
C12   O2    A    
