data_mof_unit_64843.cif
_audit_creation_date              2013-03-05T16:13:03-0500
_audit_creation_method            fapswitch 2.2
_symmetry_space_group_name_H-M    P1
_symmetry_Int_Tables_number       1
_space_group_crystal_system       triclinic
_cell_length_a                    37.268867
_cell_length_b                    30.37778
_cell_length_c                    21.764774
_cell_angle_alpha                 90.051559
_cell_angle_beta                  54.546402
_cell_angle_gamma                 90.017761
_cell_volume                      20072.1037254

loop_
_atom_site_label
_atom_site_type_symbol
_atom_site_description
_atom_site_fract_x
_atom_site_fract_y
_atom_site_fract_z
_atom_type_partial_charge
O1    O     O_R   0.064270 0.537170 0.435740 -0.597661
O2    O     O_R   0.935730 0.537170 0.564260 -0.606180
O3    O     O_R   0.564270 0.037170 0.435740 -0.599310
O4    O     O_R   0.435730 0.037170 0.564260 -0.599541
O5    O     O_R   0.064230 0.462780 0.435770 -0.592247
O6    O     O_R   0.935770 0.462780 0.564230 -0.538177
O7    O     O_R   0.564230 0.962780 0.435770 -0.569775
O8    O     O_R   0.435770 0.962780 0.564230 -0.569774
C1    C     C_R   0.085088 0.499974 0.414931 0.760194
C2    C     C_R   0.914901 0.499972 0.585003 0.834535
C3    C     C_R   0.585100 0.999969 0.415016 0.804471
C4    C     C_R   0.414900 0.999978 0.584985 0.804221
O9    O     O_R   0.000000 0.537170 0.590170 -0.596998
O10   O     O_R   0.000000 0.537170 0.409830 -0.595813
O11   O     O_R   0.500000 0.037170 0.590170 -0.596348
O12   O     O_R   0.500000 0.037170 0.409830 -0.596224
O13   O     O_R   0.999960 0.462780 0.590210 -0.537280
O14   O     O_R   0.000040 0.462780 0.409790 -0.531766
O15   O     O_R   0.499960 0.962780 0.590210 -0.540602
O16   O     O_R   0.500040 0.962780 0.409790 -0.540804
C5    C     C_R   0.998795 0.499900 0.619904 0.856592
C6    C     C_R   0.998825 0.499904 0.382238 0.847563
C7    C     C_R   0.498912 0.999903 0.619762 0.860389
C8    C     C_R   0.501072 0.999871 0.380254 0.860502
Cu1   Cu    Cu3+1 0.000000 0.544020 0.500000 0.946465
Cu2   Cu    Cu3+1 0.500000 0.044020 0.500000 0.949484
Cu3   Cu    Cu3+1 0.000000 0.455930 0.500000 1.080680
Cu4   Cu    Cu3+1 0.500000 0.955930 0.500000 1.068537
C9    C     C_R   0.035950 0.656357 0.939870 -0.192951
C10   C     C_R   0.964014 0.656458 0.059589 -0.185325
C11   C     C_R   0.535812 0.156371 0.939845 -0.189144
C12   C     C_R   0.464158 0.156428 0.060103 -0.189748
C13   C     C_R   0.461020 0.297634 0.027376 -0.192851
C14   C     C_R   0.538969 0.297622 0.972462 -0.192178
C15   C     C_R   0.961078 0.797655 0.026831 -0.192366
C16   C     C_R   0.038950 0.797619 0.972512 -0.192992
C17   C     C_R   0.035787 0.702213 0.939423 -0.168470
C18   C     C_R   0.964186 0.702310 0.059876 -0.168247
C19   C     C_R   0.535646 0.202226 0.939477 -0.167274
C20   C     C_R   0.464323 0.202286 0.060438 -0.167732
C21   C     C_R   0.018121 0.529921 0.701981 0.073422
C22   C     C_R   0.013101 0.534357 0.267812 0.090340
C23   C     C_R   0.520047 0.028513 0.700002 0.068833
C24   C     C_R   0.479871 0.028419 0.300152 0.069250
C25   C     C_R   0.995955 0.499045 0.689101 -0.229008
C26   C     C_R   0.995043 0.499765 0.319209 -0.227289
C27   C     C_R   0.496088 0.999058 0.688884 -0.225214
C28   C     C_R   0.503851 0.998970 0.311175 -0.225296
C29   C     C_R   0.973103 0.465057 0.743450 0.307754
C30   C     C_R   0.973331 0.465358 0.308750 0.306005
C31   C     C_R   0.471385 0.966344 0.744923 0.307854
C32   C     C_R   0.528575 0.966260 0.255039 0.307741
C33   C     C_R   0.974449 0.463055 0.807697 -0.050322
C34   C     C_R   0.975544 0.463525 0.241373 -0.056386
C35   C     C_R   0.472407 0.964294 0.809525 -0.049494
C36   C     C_R   0.527579 0.964231 0.190403 -0.049517
C37   C     C_R   0.998764 0.495687 0.816464 -0.151589
C38   C     C_R   0.999112 0.496920 0.186106 -0.147700
C39   C     C_R   0.498663 0.995435 0.816467 -0.154234
C40   C     C_R   0.501325 0.995387 0.183531 -0.154370
C41   C     C_R   0.020026 0.527873 0.761716 0.093811
C42   C     C_R   0.015099 0.532942 0.202748 0.073425
C43   C     C_R   0.521908 0.026239 0.759752 0.095592
C44   C     C_R   0.478036 0.026167 0.240370 0.096065
C45   C     C_3   0.048722 0.567414 0.738699 -0.461836
C46   C     C_3   0.059495 0.554045 0.157207 -0.450006
C47   C     C_3   0.552686 0.064195 0.734690 -0.455207
C48   C     C_3   0.447280 0.064157 0.265503 -0.455898
C49   C     C_3   0.047123 0.569366 0.669583 -0.434323
C50   C     C_3   0.057245 0.555686 0.229154 -0.444156
C51   C     C_3   0.551132 0.066329 0.665540 -0.439459
C52   C     C_3   0.448809 0.066270 0.334684 -0.439968
H1    H     H_    0.031625 0.595354 0.778524 0.192982
H2    H     H_    0.085560 0.531624 0.113664 0.208349
H3    H     H_    0.537124 0.092982 0.773079 0.191987
H4    H     H_    0.462866 0.092933 0.227190 0.192107
H5    H     H_    0.081848 0.559258 0.724323 0.201968
H6    H     H_    0.058594 0.587150 0.136417 0.195703
H7    H     H_    0.585346 0.054268 0.720700 0.202291
H8    H     H_    0.414621 0.054268 0.279437 0.201874
H9    H     H_    0.029487 0.598687 0.669014 0.204443
H10   H     H_    0.082005 0.534250 0.227439 0.189815
H11   H     H_    0.535085 0.096580 0.663504 0.205137
H12   H     H_    0.464871 0.096498 0.336807 0.205255
H13   H     H_    0.079235 0.561924 0.615425 0.188969
H14   H     H_    0.054988 0.589737 0.249872 0.203066
H15   H     H_    0.582768 0.057187 0.611759 0.188538
H16   H     H_    0.417161 0.057160 0.388431 0.188247
C53   C     C_R   0.202678 0.464194 0.273766 -0.171302
C54   C     C_R   0.797300 0.463689 0.724569 -0.171248
C55   C     C_R   0.702744 0.963777 0.275205 -0.175985
C56   C     C_R   0.297267 0.963836 0.724752 -0.176370
H17   H     H_    0.220257 0.435965 0.238257 0.131523
H18   H     H_    0.779726 0.435132 0.758949 0.137899
H19   H     H_    0.720351 0.935248 0.240667 0.136853
H20   H     H_    0.279670 0.935320 0.759244 0.136615
C57   C     C_R   0.156761 0.463717 0.320466 -0.183390
C58   C     C_R   0.843214 0.463231 0.677842 -0.110201
C59   C     C_R   0.656831 0.963277 0.321974 -0.127560
C60   C     C_R   0.343179 0.963325 0.677982 -0.127849
H21   H     H_    0.139525 0.435215 0.319788 0.151951
H22   H     H_    0.860435 0.434360 0.677306 0.186266
H23   H     H_    0.639644 0.934399 0.322391 0.185611
H24   H     H_    0.360374 0.934452 0.677518 0.185567
C61   C     C_R   0.133414 0.500072 0.366612 -0.019815
C62   C     C_R   0.866558 0.500037 0.633231 -0.018142
C63   C     C_R   0.633445 0.000049 0.366783 -0.026763
C64   C     C_R   0.366554 0.000077 0.633227 -0.026486
C65   C     C_R   0.156593 0.536676 0.366069 -0.188098
C66   C     C_R   0.843345 0.537032 0.635200 -0.180645
C67   C     C_R   0.656618 0.037046 0.364996 -0.195966
C68   C     C_R   0.343370 0.037065 0.635073 -0.196442
H25   H     H_    0.139243 0.564991 0.401495 0.146594
H26   H     H_    0.860661 0.565698 0.600958 0.150920
H27   H     H_    0.639269 0.065680 0.399418 0.148788
H28   H     H_    0.360710 0.065685 0.600694 0.148475
C69   C     C_R   0.202490 0.536767 0.320485 -0.170203
C70   C     C_R   0.797447 0.537106 0.680751 -0.163497
C71   C     C_R   0.702517 0.037156 0.319415 -0.164684
C72   C     C_R   0.297470 0.037186 0.680657 -0.165496
H29   H     H_    0.219900 0.565206 0.320886 0.131187
H30   H     H_    0.780008 0.565852 0.681478 0.132951
H31   H     H_    0.719925 0.065898 0.318839 0.133208
H32   H     H_    0.280052 0.065919 0.681278 0.132532
C73   C     C_R   0.225738 0.500643 0.273824 0.100967
C74   C     C_R   0.774231 0.500560 0.725982 0.093876
C75   C     C_R   0.725771 0.000649 0.273971 0.095867
C76   C     C_R   0.274228 0.000697 0.726044 0.096128
C77   C     C_R   0.297377 0.508970 0.256658 -0.174176
C78   C     C_R   0.702584 0.509296 0.743391 -0.170060
C79   C     C_R   0.797406 0.009277 0.256639 -0.175092
C80   C     C_R   0.202589 0.009288 0.743388 -0.175671
H33   H     H_    0.280010 0.514787 0.316632 0.130475
H34   H     H_    0.719934 0.515422 0.683522 0.134743
H35   H     H_    0.780048 0.015316 0.316553 0.131170
H36   H     H_    0.219944 0.015304 0.683486 0.130674
C81   C     C_R   0.343267 0.508706 0.210937 -0.183455
C82   C     C_R   0.656695 0.509046 0.789164 -0.184342
C83   C     C_R   0.843295 0.008996 0.210881 -0.180684
C84   C     C_R   0.156700 0.008990 0.789141 -0.181386
H37   H     H_    0.360531 0.514548 0.236560 0.151771
H38   H     H_    0.639401 0.515199 0.763689 0.152610
H39   H     H_    0.860581 0.015039 0.236412 0.153370
H40   H     H_    0.139411 0.015000 0.763618 0.152906
C85   C     C_R   0.366466 0.501085 0.133062 -0.023783
C86   C     C_R   0.633530 0.501066 0.866913 -0.024745
C87   C     C_R   0.866469 0.001116 0.133079 -0.024767
C88   C     C_R   0.133531 0.001135 0.866926 -0.024259
C89   C     C_R   0.342967 0.493797 0.101704 -0.202946
C90   C     C_R   0.657061 0.493398 0.898095 -0.203177
C91   C     C_R   0.842945 0.993594 0.101827 -0.205836
C92   C     C_R   0.157058 0.993658 0.898168 -0.206378
H41   H     H_    0.360008 0.487721 0.041894 0.155349
H42   H     H_    0.640041 0.487032 0.957801 0.156480
H43   H     H_    0.859969 0.987315 0.042077 0.156388
H44   H     H_    0.140038 0.987401 0.957905 0.156131
C93   C     C_R   0.297057 0.493289 0.147740 -0.178870
C94   C     C_R   0.702973 0.492845 0.851981 -0.175636
C95   C     C_R   0.797033 0.993067 0.147923 -0.173618
C96   C     C_R   0.202970 0.993147 0.852076 -0.174276
H45   H     H_    0.279433 0.487281 0.122781 0.134063
H46   H     H_    0.720637 0.486512 0.876764 0.139891
H47   H     H_    0.779374 0.986833 0.123089 0.140752
H48   H     H_    0.220632 0.986944 0.876899 0.140368
C97   C     C_R   0.274070 0.500963 0.225375 0.103456
C98   C     C_R   0.725914 0.500888 0.774486 0.104162
C99   C     C_R   0.774085 0.000998 0.225473 0.103376
C100  C     C_R   0.225914 0.001050 0.774542 0.103767
C101  C     C_R   0.999989 0.633206 0.999797 -0.027070
C102  C     C_R   0.499987 0.133201 0.999985 -0.025845
H49   H     H_    0.063856 0.638999 0.892748 0.146490
H50   H     H_    0.936094 0.639184 0.106756 0.148739
H51   H     H_    0.563604 0.139026 0.892498 0.146605
H52   H     H_    0.436367 0.139129 0.107461 0.146064
C103  C     C_R   0.999994 0.725683 0.999623 0.125448
C104  C     C_R   0.499986 0.225676 0.999950 0.125575
C105  C     C_R   0.500047 0.725881 0.000033 0.103169
C106  C     C_R   0.000150 0.225629 0.002138 0.095812
H53   H     H_    0.430803 0.279846 0.048177 0.132808
H54   H     H_    0.569185 0.279825 0.951649 0.133570
H55   H     H_    0.930891 0.779882 0.047359 0.133160
H56   H     H_    0.069135 0.779819 0.951900 0.132475
O17   O     O_R   0.962790 0.435650 0.037200 -0.598402
O18   O     O_R   0.037210 0.435650 0.962800 -0.592570
O19   O     O_R   0.462790 0.935650 0.037200 -0.595796
O20   O     O_R   0.537210 0.935650 0.962800 -0.595661
C107  C     C_R   1.000000 0.414741 0.000987 0.760664
C108  C     C_R   0.500005 0.914833 0.999992 0.766935
O21   O     O_R   0.962770 0.499920 0.947050 -0.590781
O22   O     O_R   0.037230 0.499920 0.052950 -0.585722
O23   O     O_R   0.462770 0.999920 0.947050 -0.591533
O24   O     O_R   0.537230 0.999920 0.052950 -0.591235
O25   O     O_R   0.037170 0.499970 0.872660 -0.586264
O26   O     O_R   0.962830 0.499970 0.127340 -0.588324
O27   O     O_R   0.537170 0.999970 0.872660 -0.587739
O28   O     O_R   0.462830 0.999970 0.127340 -0.587966
C109  C     C_R   0.999767 0.497989 0.881683 0.834530
C110  C     C_R   0.000029 0.498903 0.118688 0.825430
C111  C     C_R   0.499738 0.997843 0.881686 0.832614
C112  C     C_R   0.500262 0.997822 0.118307 0.832709
Cu5   Cu    Cu3+1 0.955930 0.499910 0.044070 0.931184
Cu6   Cu    Cu3+1 0.044070 0.499910 0.955930 0.934029
Cu7   Cu    Cu3+1 0.455930 0.999910 0.044070 0.931881
Cu8   Cu    Cu3+1 0.544070 0.999910 0.955930 0.933204
O29   O     O_R   0.962770 0.564180 0.037230 -0.584808
O30   O     O_R   0.037230 0.564180 0.962770 -0.588924
O31   O     O_R   0.462770 0.064180 0.037230 -0.585848
O32   O     O_R   0.537230 0.064180 0.962770 -0.585416
C113  C     C_R   0.999997 0.584970 0.999934 0.791061
C114  C     C_R   0.499995 0.084969 0.000001 0.792455
O33   O     O_R   0.499950 0.435720 0.052230 -0.590589
O34   O     O_R   0.500050 0.435720 0.947770 -0.590730
O35   O     O_R   0.999950 0.935720 0.052230 -0.590674
O36   O     O_R   0.000050 0.935720 0.947770 -0.590623
C115  C     C_R   0.500000 0.366996 0.999914 -0.051596
C116  C     C_R   0.000006 0.867001 0.999887 -0.051569
C117  C     C_R   0.499999 0.415157 0.999976 0.785566
C118  C     C_R   0.000006 0.915158 0.999968 0.785392
O37   O     O_R   0.435710 0.499990 0.116480 -0.593804
O38   O     O_R   0.564290 0.499990 0.883520 -0.593585
O39   O     O_R   0.935710 0.999990 0.116480 -0.591679
O40   O     O_R   0.064290 0.999990 0.883520 -0.591955
O41   O     O_R   0.435700 0.499990 0.012100 -0.589405
O42   O     O_R   0.564300 0.499990 0.987900 -0.588943
O43   O     O_R   0.935700 0.999990 0.012100 -0.591048
O44   O     O_R   0.064300 0.999990 0.987900 -0.591403
C119  C     C_R   0.414885 0.500338 0.084970 0.786292
C120  C     C_R   0.585114 0.500333 0.915029 0.786933
C121  C     C_R   0.914886 0.000347 0.084971 0.786002
C122  C     C_R   0.085114 0.000351 0.915030 0.785314
Cu9   Cu    Cu3+1 0.499980 0.499990 0.061820 0.932650
Cu10  Cu    Cu3+1 0.500020 0.499990 0.938180 0.932223
Cu11  Cu    Cu3+1 0.999980 0.999990 0.061820 0.933662
Cu12  Cu    Cu3+1 0.000020 0.999990 0.938180 0.933603
C123  C     C_R   0.460379 0.343704 0.028359 0.064185
C124  C     C_R   0.539622 0.343691 0.971436 0.064311
C125  C     C_R   0.960420 0.843721 0.028006 0.063988
C126  C     C_R   0.039598 0.843687 0.971611 0.064112
O45   O     O_R   0.500010 0.564260 0.052180 -0.586235
O46   O     O_R   0.499990 0.564260 0.947820 -0.586430
O47   O     O_R   0.000010 0.064260 0.052180 -0.584527
O48   O     O_R   0.999990 0.064260 0.947820 -0.584502
C127  C     C_R   0.500006 0.585074 0.000016 0.791110
C128  C     C_R   0.000079 0.085030 0.999984 0.789074
C129  C     C_R   0.039814 0.297060 0.968276 -0.169869
C130  C     C_R   0.960210 0.296994 0.039033 -0.170317
C131  C     C_R   0.536578 0.797436 0.941246 -0.176562
C132  C     C_R   0.463490 0.797477 0.058797 -0.176843
H57   H     H_    0.070838 0.279563 0.940444 0.132821
H58   H     H_    0.929221 0.279463 0.066692 0.135241
H59   H     H_    0.565175 0.780009 0.895663 0.134434
H60   H     H_    0.434901 0.780082 0.104389 0.134035
C133  C     C_R   0.039839 0.342953 0.967533 -0.185256
C134  C     C_R   0.960127 0.342877 0.039692 -0.193880
C135  C     C_R   0.536687 0.843301 0.941462 -0.201049
C136  C     C_R   0.463354 0.843342 0.058543 -0.201112
H61   H     H_    0.071048 0.360097 0.939183 0.153340
H62   H     H_    0.928907 0.359952 0.067566 0.146518
H63   H     H_    0.565245 0.860568 0.895575 0.149189
H64   H     H_    0.434786 0.860641 0.104418 0.148936
C137  C     C_R   0.999988 0.366289 0.002843 -0.021044
C138  C     C_R   0.500015 0.866560 0.999996 -0.006624
H65   H     H_    0.063453 0.719249 0.891488 0.125778
H66   H     H_    0.936524 0.719420 0.107763 0.126343
H67   H     H_    0.563195 0.219282 0.891382 0.126425
H68   H     H_    0.436773 0.219391 0.108517 0.125657
C139  C     C_R   0.000048 0.273910 0.003253 0.098481
C140  C     C_R   0.500041 0.774264 0.000032 0.096778
C141  C     C_R   0.511315 0.702652 0.935401 -0.168875
C142  C     C_R   0.488775 0.702717 0.064664 -0.168822
C143  C     C_R   0.981659 0.202930 0.970682 -0.167818
C144  C     C_R   0.018822 0.202088 0.032399 -0.164124
H69   H     H_    0.519812 0.720052 0.885179 0.130277
H70   H     H_    0.480280 0.720171 0.114889 0.130188
H71   H     H_    0.967292 0.220799 0.946835 0.133547
H72   H     H_    0.033135 0.219266 0.056985 0.135408
C145  C     C_R   0.511025 0.656770 0.935540 -0.180535
C146  C     C_R   0.489048 0.656832 0.064521 -0.180624
C147  C     C_R   0.982188 0.157013 0.968908 -0.181082
C148  C     C_R   0.018462 0.156204 0.032198 -0.181428
H73   H     H_    0.519735 0.639562 0.885008 0.151681
H74   H     H_    0.480330 0.639669 0.115049 0.151539
H75   H     H_    0.967850 0.140018 0.944223 0.149114
H76   H     H_    0.032816 0.138591 0.056283 0.149490
C149  C     C_R   0.500028 0.633478 0.000031 -0.031150
C150  C     C_R   0.000313 0.133349 0.000165 -0.028179
C151  C     C_R   0.499990 0.274357 0.999937 0.041017
C152  C     C_R   0.000013 0.774364 0.999621 0.041392
N1    N     N_R   0.947963 0.433331 0.734339 0.123976
O49   O     O_R   0.959811 0.392175 0.721831 -0.366161
O50   O     O_R   0.914996 0.446119 0.733336 -0.394074
N2    N     N_R   0.949288 0.432508 0.366043 0.121745
O51   O     O_R   0.915654 0.443975 0.432885 -0.381767
O52   O     O_R   0.964568 0.392609 0.354943 -0.362706
N3    N     N_R   0.444782 0.935987 0.737015 0.121206
O53   O     O_R   0.454410 0.894256 0.726929 -0.369744
O54   O     O_R   0.412832 0.950498 0.734472 -0.392738
N4    N     N_R   0.555197 0.935909 0.262857 0.121308
O55   O     O_R   0.545612 0.894174 0.272782 -0.369688
O56   O     O_R   0.587135 0.950427 0.265452 -0.392313
C153  C     C_3   0.416494 0.366575 0.063004 -0.427226
C154  C     C_3   0.394980 0.376768 0.146621 -0.344428
C155  C     C_3   0.345771 0.385808 0.188611 -0.838401
H77   H     H_    0.339858 0.411148 0.158890 0.269569
H78   H     H_    0.328271 0.355173 0.192547 0.247129
H79   H     H_    0.332124 0.397628 0.246546 0.247622
H80   H     H_    0.399136 0.348457 0.174355 0.224665
H81   H     H_    0.411183 0.405955 0.151419 0.230025
H82   H     H_    0.420390 0.397341 0.032145 0.196611
H83   H     H_    0.394308 0.345042 0.057567 0.203241
C156  C     C_3   0.583527 0.366544 0.936626 -0.426911
C157  C     C_3   0.604891 0.376712 0.853075 -0.347371
C158  C     C_3   0.654128 0.385672 0.810820 -0.829643
H84   H     H_    0.660164 0.411013 0.840433 0.268740
H85   H     H_    0.671629 0.355013 0.806732 0.249151
H86   H     H_    0.667670 0.397458 0.752942 0.248860
H87   H     H_    0.600621 0.348412 0.825396 0.225565
H88   H     H_    0.588665 0.405927 0.848460 0.230259
H89   H     H_    0.579686 0.397317 0.967512 0.196683
H90   H     H_    0.605782 0.345008 0.941844 0.204344
C159  C     C_3   0.916539 0.866594 0.062621 -0.426656
C160  C     C_3   0.895017 0.876794 0.146242 -0.345139
C161  C     C_3   0.845788 0.885729 0.188273 -0.836356
H91   H     H_    0.839811 0.911019 0.158570 0.269583
H92   H     H_    0.828344 0.855046 0.192226 0.248097
H93   H     H_    0.832134 0.897568 0.246201 0.247340
H94   H     H_    0.899236 0.848517 0.173957 0.225014
H95   H     H_    0.911167 0.906028 0.151044 0.229949
H96   H     H_    0.920445 0.897355 0.031743 0.196952
H97   H     H_    0.894351 0.845063 0.057188 0.204112
C162  C     C_3   0.083473 0.866532 0.937152 -0.426812
C163  C     C_3   0.105043 0.876754 0.853553 -0.344905
C164  C     C_3   0.154255 0.885715 0.811661 -0.837325
H98   H     H_    0.160168 0.911001 0.841512 0.269734
H99   H     H_    0.171719 0.855039 0.807632 0.247681
H100  H     H_    0.167940 0.897571 0.753763 0.247265
H101  H     H_    0.100884 0.848480 0.825690 0.224693
H102  H     H_    0.088881 0.905983 0.848817 0.229930
H103  H     H_    0.079546 0.897281 0.968151 0.196957
H104  H     H_    0.105636 0.844972 0.942568 0.203641
C165  C     C_3   0.952129 0.424989 0.862801 -0.357271
C166  C     C_3   0.985396 0.388289 0.843710 -0.320562
C167  C     C_3   0.962144 0.344929 0.880918 -0.807872
H105  H     H_    0.936317 0.349874 0.941958 0.247658
H106  H     H_    0.946443 0.331746 0.854234 0.270460
H107  H     H_    0.986430 0.320467 0.873826 0.247381
H108  H     H_    0.007619 0.382983 0.781697 0.248583
H109  H     H_    0.006016 0.398061 0.863124 0.200257
H110  H     H_    0.936005 0.435772 0.921887 0.201357
H111  H     H_    0.924672 0.411748 0.861901 0.240238
C168  C     C_3   0.954514 0.425288 0.227849 -0.343778
C169  C     C_3   0.904470 0.431206 0.272485 -0.301620
C170  C     C_3   0.883812 0.394472 0.254829 -0.839139
H112  H     H_    0.896978 0.395164 0.194174 0.254957
H113  H     H_    0.890890 0.361901 0.268761 0.263801
H114  H     H_    0.847565 0.399135 0.288879 0.240336
H115  H     H_    0.889346 0.431002 0.333960 0.251413
H116  H     H_    0.896850 0.463328 0.258086 0.228600
H117  H     H_    0.968731 0.421650 0.167029 0.184918
H118  H     H_    0.962210 0.393756 0.243497 0.232443
C171  C     C_3   0.447058 0.928126 0.867678 -0.350776
C172  C     C_3   0.477699 0.889997 0.854586 -0.334108
C173  C     C_3   0.451620 0.850966 0.905435 -0.804461
H119  H     H_    0.431976 0.861087 0.965606 0.255753
H120  H     H_    0.429077 0.837938 0.891968 0.262290
H121  H     H_    0.474607 0.824309 0.896328 0.251511
H122  H     H_    0.496527 0.878969 0.794861 0.251120
H123  H     H_    0.501658 0.901159 0.866057 0.199334
H124  H     H_    0.430071 0.940775 0.925916 0.208392
H125  H     H_    0.419904 0.915457 0.865456 0.237513
C174  C     C_3   0.552948 0.928064 0.132147 -0.350525
C175  C     C_3   0.522349 0.889882 0.145259 -0.334653
C176  C     C_3   0.548469 0.850821 0.094409 -0.803243
H126  H     H_    0.568117 0.860881 0.034241 0.255783
H127  H     H_    0.571015 0.837861 0.107896 0.262541
H128  H     H_    0.525510 0.824131 0.103498 0.251395
H129  H     H_    0.503537 0.878918 0.204982 0.251194
H130  H     H_    0.498371 0.900969 0.133806 0.199273
H131  H     H_    0.569857 0.940683 0.073944 0.208500
H132  H     H_    0.580163 0.915468 0.134246 0.237663

loop_
_geom_bond_atom_site_label_1
_geom_bond_atom_site_label_2
_geom_bond_distance
_ccdc_geom_bond_type
C59   H23   1.082981 S    
C136  C138  1.403312 A    
C142  H70   1.083454 S    
C21   C41   1.344044 A    
C105  C142  1.402292 A    
C66   C70   1.393410 A    
C23   C43   1.343705 A    
C155  H78   1.110730 S    
C172  H123  1.110367 S    
C164  H98   1.107173 S    
C24   C44   1.343644 A    
C94   C98   1.401151 A    
C34   C168  1.522022 S    
O44   Cu11  1.964847 S    
C55   C75   1.401581 A    
C35   C39   1.430382 A    
C166  H108  1.111982 S    
O34   Cu10  1.963762 S    
C133  C137  1.405183 A    
C154  H81   1.111020 S    
C60   H24   1.082978 S    
C159  H96   1.110657 S    
C175  C176  1.526107 S    
C10   C18   1.392923 A    
C89   H41   1.082838 S    
C81   H37   1.082845 S    
C86   C90   1.405257 A    
C92   H44   1.082840 S    
C134  C137  1.405030 A    
O31   C114  1.294743 A    
O48   C128  1.300071 A    
C147  H75   1.083120 S    
O4    C4    1.294880 A    
C5    C25   1.447511 S    
C57   C61   1.403667 A    
C143  C147  1.395167 A    
C78   H34   1.083320 S    
O23   Cu7   1.974707 S    
O35   Cu11  1.963387 S    
O42   C120  1.300030 A    
C170  H113  1.110870 S    
C135  H63   1.082969 S    
C45   H5    1.111483 S    
C161  H91   1.107166 S    
O17   Cu5   1.963102 S    
C147  C150  1.403617 A    
C171  H125  1.109578 S    
C47   H7    1.111482 S    
C176  H128  1.110014 S    
C68   C72   1.393449 A    
C166  C167  1.526052 S    
C53   C73   1.401856 A    
O16   Cu4   1.973726 S    
C58   H22   1.082994 S    
O26   Cu5   1.972664 S    
C129  C133  1.394232 A    
C107  C137  1.472438 S    
O13   C5    1.287349 A    
O7    Cu4   1.961088 S    
C8    C28   1.446103 S    
O15   C7    1.287067 A    
C10   C101  1.401735 A    
C17   C103  1.405643 A    
O4    Cu2   1.962297 S    
C155  H77   1.107223 S    
C48   C52   1.540735 S    
C156  H90   1.112905 S    
C54   C74   1.401588 A    
O9    C5    1.292368 A    
C52   H12   1.111456 S    
C77   H33   1.083307 S    
C132  H60   1.083139 S    
O8    Cu4   1.960978 S    
N4    O55   1.300923 A    
C16   C152  1.399928 A    
C78   C82   1.393168 A    
C106  C143  1.401906 A    
C21   C49   1.489265 S    
C164  H100  1.110366 S    
C171  H124  1.106093 S    
O40   Cu12  1.961342 S    
C23   C51   1.488989 S    
C37   C109  1.443114 S    
O3    Cu2   1.962181 S    
O19   C108  1.294598 A    
C19   H67   1.082674 S    
C37   C41   1.382028 A    
C11   C102  1.401786 A    
C71   H31   1.083342 S    
C15   H55   1.083379 S    
C39   C43   1.382350 A    
C58   C62   1.403978 A    
C40   C44   1.382310 A    
C116  C126  1.415623 A    
N2    O52   1.300791 A    
C146  H74   1.083131 S    
C87   C121  1.470053 S    
C142  C146  1.393918 A    
C46   C50   1.519584 S    
C29   C33   1.429363 A    
C95   C99   1.401119 A    
C24   C52   1.488988 S    
C31   C35   1.429866 A    
C96   C100  1.401116 A    
C50   H10   1.112358 S    
O3    C3    1.294845 A    
C40   C112  1.444893 S    
C41   C45   1.488718 S    
C28   C32   1.421801 A    
C77   C81   1.393190 A    
C159  C160  1.535391 S    
C21   C25   1.381459 A    
O45   C127  1.300091 A    
C9    C101  1.401839 A    
C23   C27   1.380659 A    
C24   C28   1.380655 A    
C128  C150  1.467881 S    
C146  C149  1.404623 A    
C169  H116  1.111280 S    
C73   C97   1.467365 S    
C168  C169  1.533816 S    
C15   C125  1.399553 A    
C162  H103  1.110662 S    
C158  H84   1.107157 S    
N3    O54   1.300811 A    
C85   C119  1.470091 S    
O43   Cu12  1.964847 S    
C44   C48   1.489024 S    
C116  C118  1.462908 S    
O41   C119  1.299990 A    
C158  H85   1.110732 S    
C172  C173  1.526115 S    
C1    C61   1.467119 S    
C46   H2    1.112175 S    
C56   H20   1.083385 S    
C157  C158  1.526260 S    
C67   C71   1.393426 A    
C70   H30   1.083343 S    
C32   N4    1.435324 S    
O5    Cu3   1.961088 S    
C83   H39   1.082844 S    
C160  H95   1.111002 S    
C13   C151  1.399910 A    
Cu11  Cu12  2.690132 S    
C66   H26   1.083100 S    
O8    C4    1.295367 A    
O24   C112  1.285402 A    
C79   C99   1.400825 A    
C144  C148  1.393936 A    
C129  C139  1.400717 A    
C36   C174  1.521862 S    
C51   H11   1.111455 S    
C60   C64   1.403971 A    
C174  H131  1.106080 S    
C175  H129  1.111531 S    
C42   C46   1.492982 S    
O13   Cu3   1.973349 S    
Cu8   O32   1.963337 S    
C163  C164  1.526254 S    
O36   C118  1.296105 A    
O42   Cu9   1.964847 S    
C93   C97   1.401239 A    
C20   C104  1.405618 A    
O22   Cu6   1.974702 S    
O44   C122  1.300004 A    
C145  C149  1.404646 A    
C161  H92   1.110733 S    
C91   C95   1.393974 A    
C87   C91   1.405284 A    
O5    C1    1.295357 A    
C165  H111  1.110088 S    
C102  C114  1.465206 S    
C80   H36   1.083319 S    
N1    O49   1.300942 A    
C141  C145  1.393812 A    
C9    H49   1.083276 S    
O15   Cu4   1.973349 S    
C10   H50   1.083227 S    
Cu12  O48   1.963365 S    
C153  H83   1.112906 S    
C91   H43   1.082840 S    
C167  H106  1.110745 S    
C173  H121  1.110019 S    
C157  H88   1.111007 S    
C2    C62   1.467623 S    
C47   H3    1.111763 S    
O39   C121  1.300090 A    
C68   H28   1.083144 S    
C49   H13   1.111733 S    
C168  H118  1.108992 S    
C129  H57   1.083324 S    
O39   Cu11  1.961348 S    
O14   C6    1.290817 A    
C63   C67   1.403913 A    
C115  C124  1.415630 A    
C88   C92   1.405281 A    
O37   Cu9   1.961348 S    
C105  C141  1.402222 A    
C163  H101  1.112429 S    
O35   C118  1.296144 A    
C131  H59   1.083139 S    
C48   H4    1.111759 S    
O18   C107  1.296418 A    
O47   C128  1.298674 A    
O10   C6    1.293594 A    
C7    C27   1.446175 S    
C166  H109  1.110649 S    
C3    C63   1.467716 S    
O26   C110  1.286725 A    
C86   C120  1.470027 S    
C82   C86   1.404788 A    
C136  H64   1.082967 S    
C53   H17   1.083367 S    
C148  C150  1.404098 A    
C79   C83   1.393168 A    
C55   H19   1.083384 S    
C133  H61   1.082793 S    
C88   C122  1.470057 S    
O40   C122  1.300097 A    
Cu5   O29   1.963446 S    
C55   C59   1.394191 A    
C69   C73   1.401467 A    
C71   C75   1.401246 A    
C38   C42   1.390267 A    
C13   H53   1.083404 S    
C14   H54   1.083399 S    
C167  H105  1.109188 S    
C170  H112  1.110192 S    
C65   C69   1.393388 A    
C30   C34   1.421246 A    
O33   Cu9   1.963387 S    
O27   C111  1.292664 A    
C96   H48   1.083285 S    
C81   C85   1.404744 A    
C176  H127  1.110719 S    
C11   H51   1.083286 S    
O34   C117  1.296158 A    
C174  C175  1.532818 S    
O38   C120  1.300052 A    
C22   C26   1.391720 A    
C61   C65   1.403706 A    
C124  C156  1.515064 S    
C156  H89   1.110678 S    
C173  H119  1.110280 S    
C125  C159  1.515077 S    
C13   C123  1.399648 A    
O6    Cu3   1.960978 S    
C160  C161  1.526258 S    
O12   Cu2   1.973347 S    
O21   C109  1.285655 A    
O36   Cu12  1.963762 S    
N4    O56   1.300813 A    
O33   C117  1.296141 A    
C106  C144  1.400815 A    
C54   H18   1.083378 S    
C155  H79   1.110364 S    
C172  H122  1.111543 S    
C164  H99   1.110734 S    
C16   C126  1.399609 A    
C46   H6    1.111615 S    
C80   C100  1.400820 A    
O1    C1    1.294549 A    
C82   H38   1.082851 S    
N3    O53   1.300940 A    
C33   C37   1.428248 A    
C27   C31   1.421893 A    
O27   Cu8   1.972669 S    
C130  C134  1.393880 A    
C12   H52   1.083283 S    
C154  H80   1.112422 S    
O46   C127  1.299943 A    
O43   C121  1.300007 A    
O25   Cu6   1.972669 S    
C64   C68   1.403916 A    
C143  H71   1.083444 S    
C162  C163  1.535363 S    
O17   C107  1.295929 A    
C78   C98   1.400842 A    
C25   C29   1.422506 A    
C144  H72   1.083356 S    
O28   Cu7   1.972664 S    
C127  C149  1.470412 S    
C51   H15   1.111738 S    
C6    C26   1.458093 S    
C16   H56   1.083382 S    
C30   N2    1.434953 S    
C93   H45   1.083275 S    
C170  H114  1.110299 S    
O22   C110  1.291943 A    
C4    C64   1.467728 S    
C145  H73   1.083132 S    
C90   C94   1.393990 A    
C153  C154  1.535307 S    
C84   H40   1.082846 S    
C74   C98   1.466905 S    
O6    C2    1.295196 A    
C33   C165  1.520547 S    
C72   C76   1.401257 A    
C80   C84   1.393176 A    
C59   C63   1.403965 A    
C77   C97   1.401031 A    
O19   Cu7   1.963102 S    
C130  H58   1.083278 S    
C141  H69   1.083457 S    
O32   C114  1.294705 A    
C18   C103  1.405574 A    
C45   C49   1.540811 S    
O2    Cu1   1.962297 S    
C47   C51   1.540750 S    
C103  C152  1.478836 S    
O10   Cu1   1.973347 S    
C104  C151  1.478812 S    
C49   H9    1.111459 S    
C159  H97   1.112906 S    
C36   C40   1.430424 A    
C12   C102  1.401785 A    
C9    C17   1.393092 A    
C15   C152  1.399948 A    
C123  C153  1.515041 S    
O37   C119  1.300125 A    
C89   C93   1.393898 A    
C85   C89   1.405268 A    
C131  C135  1.393308 A    
C48   H8    1.111481 S    
C156  C157  1.535380 S    
C92   C96   1.393960 A    
Cu5   Cu6   2.675843 S    
C29   N1    1.435509 S    
C22   C50   1.492952 S    
O28   C112  1.292650 A    
C14   C124  1.399639 A    
C84   C88   1.404795 A    
C165  C166  1.534624 S    
O7    C3    1.295397 A    
C83   C87   1.404790 A    
C175  H130  1.110355 S    
C116  C125  1.415595 A    
N2    O51   1.301109 A    
O23   C111  1.285357 A    
C79   H35   1.083318 S    
C115  C117  1.463015 S    
C162  H104  1.112905 S    
C134  H62   1.082500 S    
C108  C138  1.466430 S    
C45   H1    1.111747 S    
Cu9   O45   1.963740 S    
C69   H29   1.083332 S    
C62   C66   1.403825 A    
C165  H110  1.106815 S    
O16   C8    1.287192 A    
C39   C111  1.444863 S    
C31   N3    1.435317 S    
C65   H25   1.083177 S    
O11   C7    1.291922 A    
C153  H82   1.110665 S    
O12   C8    1.291763 A    
C169  H115  1.110440 S    
C169  C170  1.525623 S    
O1    Cu1   1.962181 S    
C173  H120  1.110722 S    
O9    Cu1   1.973715 S    
C56   C76   1.401564 A    
C52   H16   1.111735 S    
C168  H117  1.109659 S    
O24   Cu8   1.974702 S    
C43   C47   1.489019 S    
O18   Cu6   1.963212 S    
O38   Cu10  1.961342 S    
C115  C123  1.415640 A    
C105  C140  1.469747 S    
C163  H102  1.111010 S    
C106  C139  1.466806 S    
O11   Cu2   1.973715 S    
O21   Cu5   1.974707 S    
Cu7   O31   1.963446 S    
C53   C57   1.394277 A    
C126  C162  1.515049 S    
C17   H65   1.082659 S    
C18   H66   1.082657 S    
C160  H94   1.112428 S    
C135  C138  1.403287 A    
O29   C113  1.294814 A    
C101  C113  1.465297 S    
C14   C151  1.399922 A    
O20   Cu8   1.963212 S    
C50   H14   1.111544 S    
C131  C140  1.402356 A    
Cu11  O47   1.963740 S    
C35   C171  1.521953 S    
Cu6   O30   1.963337 S    
C95   H47   1.083286 S    
C130  C139  1.400333 A    
O2    C2    1.295028 A    
C56   C60   1.394160 A    
C76   C100  1.466840 S    
C34   C38   1.422510 A    
C22   C42   1.374882 A    
C154  C155  1.526273 S    
C38   C110  1.449086 S    
C174  H132  1.109608 S    
O14   Cu3   1.973726 S    
C148  H76   1.083166 S    
C19   C104  1.405604 A    
C132  C136  1.393306 A    
C132  C140  1.402326 A    
Cu1   Cu3   2.675982 S    
C171  C172  1.532844 S    
C26   C30   1.418357 A    
Cu2   Cu4   2.675982 S    
C161  H93   1.110363 S    
C176  H126  1.110268 S    
C158  H86   1.110366 S    
O30   C113  1.294690 A    
O25   C109  1.291398 A    
N1    O50   1.300907 A    
C11   C19   1.393055 A    
C12   C20   1.393092 A    
C94   H46   1.083283 S    
C32   C36   1.429920 A    
O41   Cu10  1.964847 S    
C75   C99   1.466848 S    
C90   H42   1.082844 S    
C167  H107  1.110594 S    
Cu9   Cu10  2.690132 S    
Cu10  O46   1.963365 S    
C157  H87   1.112429 S    
C67   H27   1.083146 S    
C70   C74   1.401258 A    
Cu7   Cu8   2.675843 S    
O20   C108  1.294640 A    
C54   C58   1.394193 A    
C57   H21   1.083108 S    
C72   H32   1.083342 S    
C20   H68   1.082676 S    
