data_mof_unit_61502.cif
_audit_creation_date              2012-12-10T18:09:52-0500
_audit_creation_method            fapswitch 2.2
_symmetry_space_group_name_H-M    P1
_symmetry_Int_Tables_number       1
_space_group_crystal_system       triclinic
_cell_length_a                    21.645506
_cell_length_b                    21.645575
_cell_length_c                    32.087986
_cell_angle_alpha                 90.00007
_cell_angle_beta                  90.000136
_cell_angle_gamma                 89.999949
_cell_volume                      15034.165583

loop_
_atom_site_label
_atom_site_type_symbol
_atom_type_description
_atom_site_fract_x
_atom_site_fract_y
_atom_site_fract_z
_atom_type_partial_charge
C1    C     C_R   0.314768 0.500000 0.000000 -0.368284
C2    C     C_R   0.553599 0.219770 0.987183 0.307463
C3    C     C_1   0.500000 0.000000 0.662083 0.230416
C4    C     C_1   0.500000 0.000000 0.837916 0.230208
C5    C     C_1   0.000000 0.500000 0.837916 0.230390
C6    C     C_1   0.500000 1.000000 0.162084 0.230273
C7    C     C_1   0.000001 0.500000 0.162084 0.230341
C8    C     C_1   0.000000 0.500000 0.124760 -0.137716
C9    C     C_1   0.500000 1.000000 0.124760 -0.137491
C10   C     C_1   1.000000 0.500000 0.875240 -0.137801
C11   C     C_1   0.500000 0.000000 0.875240 -0.137405
C12   C     C_1   0.500000 1.000000 0.624759 -0.137811
C13   C     C_R   0.780217 0.553665 0.987311 0.308303
C14   C     C_1   0.000000 0.500000 0.624760 -0.137606
C15   C     C_1   0.500000 1.000000 0.375240 -0.137716
C16   C     C_1   1.000000 0.500001 0.375240 -0.137682
C17   C     C_3   0.192712 0.348250 0.005630 0.165259
C18   C     C_3   0.153522 0.292976 0.993162 -0.808537
C19   C     C_3   0.651797 0.192708 0.005248 0.165124
C20   C     C_3   0.706907 0.153334 0.992712 -0.807388
C21   C     C_3   0.807283 0.651751 0.005638 0.165263
C22   C     C_3   0.846526 0.707001 0.993196 -0.808515
C23   C     C_3   0.348208 0.807293 0.005274 0.165132
C24   C     C_R   0.446398 0.780229 0.987192 0.307465
C25   C     C_3   0.293087 0.846654 0.992743 -0.807390
C26   C     C_3   0.192716 0.651752 0.994374 0.165377
C27   C     C_3   0.153476 0.707001 0.006822 -0.808663
C28   C     C_3   0.651794 0.807292 0.994734 0.165020
C29   C     C_3   0.706909 0.846661 0.007265 -0.807368
C30   C     C_3   0.807285 0.348254 0.994348 0.165383
C31   C     C_3   0.846495 0.292985 0.006798 -0.808672
C32   C     C_3   0.348205 0.192709 0.994742 0.165020
C33   C     C_3   0.293089 0.153346 0.007278 -0.807373
C34   C     C_3   0.692707 0.848196 0.505167 0.165426
C35   C     C_R   0.219782 0.553663 0.012693 0.308086
C36   C     C_3   0.653311 0.793113 0.492610 -0.809269
C37   C     C_3   0.151734 0.692718 0.505742 0.165319
C38   C     C_3   0.207036 0.653539 0.493317 -0.808010
C39   C     C_3   0.307294 0.151803 0.505163 0.165425
C40   C     C_3   0.346684 0.206888 0.492602 -0.809272
C41   C     C_3   0.848261 0.307283 0.505723 0.165333
C42   C     C_3   0.792975 0.346486 0.493298 -0.808006
C43   C     C_3   0.692705 0.151802 0.494826 0.165308
C44   C     C_3   0.653313 0.206888 0.507382 -0.809087
C45   C     C_3   0.151734 0.307284 0.494265 0.165445
C46   C     C_R   0.553602 0.780230 0.012811 0.307654
C47   C     C_3   0.207035 0.346464 0.506694 -0.808098
C48   C     C_3   0.307295 0.848196 0.494841 0.165308
C49   C     C_3   0.346689 0.793114 0.507403 -0.809077
C50   C     C_3   0.848264 0.692716 0.494264 0.165439
C51   C     C_3   0.792964 0.653535 0.506692 -0.808098
C52   C     C_3   0.315878 0.395932 0.926781 0.161494
C53   C     C_3   0.356689 0.343246 0.911757 -0.807403
C54   C     C_3   0.603741 0.315850 0.926555 0.158848
C55   C     C_3   0.656306 0.356730 0.911423 -0.804053
C56   C     C_3   0.684123 0.604072 0.926784 0.161476
C57   C     C_R   0.780217 0.446334 0.012686 0.308079
C58   C     C_3   0.643310 0.656757 0.911761 -0.807388
C59   C     C_3   0.396235 0.684148 0.926571 0.158852
C60   C     C_3   0.343662 0.643272 0.911447 -0.804052
C61   C     C_3   0.315877 0.604062 0.073222 0.160660
C62   C     C_3   0.356692 0.656744 0.088249 -0.806363
C63   C     C_3   0.603760 0.684147 0.073433 0.159539
C64   C     C_3   0.656335 0.643274 0.088558 -0.804889
C65   C     C_3   0.684122 0.395918 0.073209 0.160672
C66   C     C_3   0.643313 0.343228 0.088228 -0.806367
C67   C     C_3   0.396254 0.315850 0.073441 0.159539
C68   C     C_R   0.446401 0.219770 0.012813 0.307643
C69   C     C_3   0.343686 0.356727 0.088571 -0.804897
C70   C     C_3   0.815843 0.896332 0.426504 0.160551
C71   C     C_3   0.856738 0.843794 0.411348 -0.805678
C72   C     C_3   0.104151 0.815877 0.426838 0.159553
C73   C     C_3   0.156840 0.856705 0.411838 -0.804543
C74   C     C_3   0.184156 0.103663 0.426501 0.160558
C75   C     C_3   0.143265 0.156203 0.411345 -0.805684
C76   C     C_3   0.895858 0.184117 0.426832 0.159536
C77   C     C_3   0.843150 0.143316 0.411832 -0.804532
C78   C     C_3   0.815844 0.103676 0.573491 0.161369
C79   C     C_R   0.719767 0.946416 0.487156 0.308076
C80   C     C_3   0.856734 0.156220 0.588643 -0.806573
C81   C     C_3   0.104148 0.184118 0.573164 0.158863
C82   C     C_3   0.156859 0.143318 0.588162 -0.803710
C83   C     C_3   0.184157 0.896340 0.573501 0.161364
C84   C     C_3   0.143265 0.843803 0.588660 -0.806578
C85   C     C_3   0.895850 0.815881 0.573163 0.158861
C86   C     C_3   0.843147 0.856690 0.588162 -0.803707
C87   C     C_R   0.053681 0.719787 0.487343 0.307853
C88   C     C_R   0.280233 0.053582 0.487155 0.308074
C89   C     C_R   0.500000 0.314760 1.000000 -0.368761
C90   C     C_R   0.946320 0.280214 0.487338 0.307866
C91   C     C_R   0.719767 0.053584 0.512842 0.308320
C92   C     C_R   0.053680 0.280214 0.512659 0.307676
C93   C     C_R   0.280233 0.946418 0.512847 0.308311
C94   C     C_R   0.946319 0.719786 0.512659 0.307679
C95   C     C_R   0.283888 0.448426 0.984431 0.284986
C96   C     C_R   0.551499 0.283877 0.984315 0.285282
C97   C     C_R   0.716112 0.551577 0.984434 0.284969
C98   C     C_R   0.448497 0.716122 0.984323 0.285282
C99   C     C_R   0.283888 0.551574 0.015570 0.285061
C100  C     C_R   0.685231 0.500001 1.000000 -0.368284
C101  C     C_R   0.551503 0.716122 0.015679 0.285220
C102  C     C_R   0.716111 0.448424 0.015564 0.285064
C103  C     C_R   0.448501 0.283878 0.015682 0.285229
C104  C     C_R   0.783875 0.948518 0.484289 0.285212
C105  C     C_R   0.051593 0.783892 0.484462 0.285144
C106  C     C_R   0.216125 0.051480 0.484287 0.285213
C107  C     C_R   0.948407 0.216109 0.484459 0.285136
C108  C     C_R   0.783875 0.051482 0.515709 0.285119
C109  C     C_R   0.051592 0.216109 0.515540 0.285203
C110  C     C_R   0.216125 0.948521 0.515714 0.285134
C111  C     C_R   0.500000 0.685239 0.000000 -0.368752
C112  C     C_R   0.948406 0.783891 0.515539 0.285196
C113  C     C_R   0.120621 0.500000 0.000000 1.000205
C114  C     C_R   0.500000 0.120618 1.000000 0.999516
C115  C     C_R   0.879379 0.500000 1.000000 1.000195
C116  C     C_R   0.500000 0.879382 0.000000 0.999498
C117  C     C_R   0.620618 1.000000 0.500000 1.000999
C118  C     C_R   1.000000 0.620621 0.500000 0.999223
C119  C     C_R   0.379382 1.000000 0.500000 1.001008
C120  C     C_R   0.000000 0.379378 0.499999 0.999238
C121  C     C_R   0.000000 0.500000 0.080486 0.881863
C122  C     C_R   0.814759 1.000000 0.500000 -0.368474
C123  C     C_R   0.500000 1.000000 0.080486 0.881170
C124  C     C_R   0.000000 0.500000 0.919514 0.882355
C125  C     C_R   0.500000 1.000000 0.919514 0.880642
C126  C     C_R   0.500000 1.000000 0.580486 0.882935
C127  C     C_R   0.000000 0.500000 0.580486 0.880734
C128  C     C_R   0.500000 1.000000 0.419514 0.882415
C129  C     C_R   1.000000 0.500000 0.419514 0.881229
C130  C     C_R   0.040902 0.461517 0.271730 0.505219
C131  C     C_R   0.541984 0.037301 0.271731 0.504989
C132  C     C_R   0.959099 0.538486 0.271730 0.505219
C133  C     C_R   0.999999 0.814771 0.500000 -0.368389
C134  C     C_R   0.458016 0.962699 0.271731 0.504991
C135  C     C_R   0.042923 0.536216 0.728270 0.505356
C136  C     C_R   0.544078 0.965199 0.728269 0.504837
C137  C     C_R   0.957077 0.463784 0.728270 0.505357
C138  C     C_R   0.455922 0.034801 0.728269 0.504837
C139  C     C_R   0.544074 0.965194 0.771730 0.505471
C140  C     C_R   0.042927 0.536212 0.771731 0.504937
C141  C     C_R   0.455925 0.034806 0.771730 0.505471
C142  C     C_R   0.957073 0.463788 0.771731 0.504935
C143  C     C_R   0.541980 0.037306 0.228270 0.505322
C144  C     C_R   0.185242 1.000000 0.500000 -0.368475
C145  C     C_R   0.040906 0.461521 0.228269 0.505082
C146  C     C_R   0.458020 0.962694 0.228270 0.505321
C147  C     C_R   0.959095 0.538482 0.228269 0.505083
C148  C     C_R   0.000000 0.500002 0.293416 -0.351199
C149  C     C_R   0.500000 1.000000 0.293417 -0.350735
C150  C     C_R   0.000000 0.500000 0.706584 -0.351519
C151  C     C_R   0.500000 0.000000 0.706583 -0.350456
C152  C     C_R   0.500000 0.000000 0.793416 -0.351736
C153  C     C_R   0.000000 0.500000 0.793417 -0.350608
C154  C     C_R   0.500000 1.000000 0.206584 -0.351388
C155  C     C_R   0.999999 0.185229 0.500000 -0.368399
C156  C     C_R   0.000001 0.500001 0.206584 -0.350876
C157  C     C_R   0.187536 0.500000 0.000001 -0.373141
C158  C     C_R   0.500000 0.187529 0.999999 -0.373509
C159  C     C_R   0.812464 0.500000 0.999999 -0.373148
C160  C     C_R   0.500000 0.812470 0.000001 -0.373519
C161  C     C_R   0.687528 0.000000 0.499999 -0.372756
C162  C     C_R   1.000000 0.687538 0.500000 -0.373701
C163  C     C_R   0.312472 0.000000 0.500001 -0.372754
C164  C     C_R   0.000000 0.312462 0.499999 -0.373698
C165  C     C_R   0.500000 0.619913 0.000000 1.109911
C166  C     C_R   0.219783 0.446336 0.987308 0.308283
C167  C     C_R   0.380090 0.500000 1.000000 1.109832
C168  C     C_R   0.500000 0.380087 1.000000 1.109914
C169  C     C_R   0.619910 0.500001 0.000000 1.109829
C170  C     C_R   0.999999 0.119909 0.500000 1.109817
C171  C     C_R   0.880086 1.000000 0.500000 1.109670
C172  C     C_R   0.999999 0.880091 0.500000 1.109825
C173  C     C_R   0.119914 1.000000 0.500000 1.109677
C174  C     C_1   1.000000 0.500001 0.337916 0.230250
C175  C     C_1   0.500000 1.000000 0.337916 0.230364
C176  C     C_1   0.000000 0.500000 0.662084 0.230183
F1    F     F_    0.080640 0.424150 0.207351 -0.600339
F2    F     F_    0.084609 0.571396 0.707352 -0.599645
F3    F     F_    0.413108 0.068598 0.707350 -0.600819
F4    F     F_    0.915391 0.428604 0.707351 -0.599643
F5    F     F_    0.582764 0.073526 0.292650 -0.600499
F6    F     F_    0.080624 0.424135 0.292649 -0.599992
F7    F     F_    0.417236 0.926473 0.292649 -0.600498
F8    F     F_    0.919377 0.575869 0.292648 -0.599992
F9    F     F_    0.582749 0.073543 0.207351 -0.599754
F10   F     F_    0.919362 0.575852 0.207350 -0.600338
F11   F     F_    0.417251 0.926457 0.207351 -0.599756
F12   F     F_    0.084623 0.571379 0.792650 -0.600644
F13   F     F_    0.586877 0.931385 0.792649 -0.599376
F14   F     F_    0.915377 0.428621 0.792649 -0.600647
F15   F     F_    0.413122 0.068616 0.792649 -0.599376
F16   F     F_    0.586891 0.931402 0.707350 -0.600819
H1    H     H_    0.175306 0.366044 0.036054 0.136986
H2    H     H_    0.692538 0.104340 0.989238 0.261303
H3    H     H_    0.350128 0.595312 0.922909 0.262952
H4    H     H_    0.333815 0.560179 0.086763 0.138131
H5    H     H_    0.268224 0.612285 0.084976 0.178037
H6    H     H_    0.338607 0.701486 0.076540 0.239352
H7    H     H_    0.357207 0.657836 0.122841 0.212511
H8    H     H_    0.404653 0.650302 0.076786 0.262824
H9    H     H_    0.559803 0.666268 0.086900 0.137864
H10   H     H_    0.611995 0.731794 0.085191 0.177838
H11   H     H_    0.701143 0.661297 0.076919 0.239391
H12   H     H_    0.657299 0.642776 0.123152 0.212672
H13   H     H_    0.824639 0.633944 0.036072 0.136942
H14   H     H_    0.649875 0.595315 0.077093 0.262947
H15   H     H_    0.666178 0.439796 0.086755 0.138131
H16   H     H_    0.731775 0.387699 0.084962 0.178034
H17   H     H_    0.661404 0.298491 0.076514 0.239349
H18   H     H_    0.642797 0.342125 0.122821 0.212512
H19   H     H_    0.595351 0.349666 0.076765 0.262812
H20   H     H_    0.440215 0.333724 0.086906 0.137862
H21   H     H_    0.388016 0.268203 0.085198 0.177843
H22   H     H_    0.298874 0.338711 0.076934 0.239402
H23   H     H_    0.342726 0.357222 0.123165 0.212672
H24   H     H_    0.758938 0.668109 0.009527 0.180994
H25   H     H_    0.350150 0.404687 0.077109 0.262947
H26   H     H_    0.833701 0.940313 0.413058 0.138327
H27   H     H_    0.768198 0.888090 0.414746 0.178238
H28   H     H_    0.838741 0.798965 0.422967 0.239364
H29   H     H_    0.857227 0.842868 0.376753 0.212776
H30   H     H_    0.904697 0.850265 0.422809 0.262972
H31   H     H_    0.060279 0.833802 0.413272 0.138048
H32   H     H_    0.112401 0.768225 0.415092 0.177887
H33   H     H_    0.201572 0.838643 0.423581 0.239222
H34   H     H_    0.157983 0.857203 0.377246 0.212971
H35   H     H_    0.829657 0.726406 0.963237 0.254247
H36   H     H_    0.150363 0.904669 0.423286 0.262773
H37   H     H_    0.166296 0.059683 0.413056 0.138327
H38   H     H_    0.231802 0.111903 0.414743 0.178238
H39   H     H_    0.161263 0.201032 0.422964 0.239370
H40   H     H_    0.142776 0.157129 0.376750 0.212776
H41   H     H_    0.095305 0.149734 0.422805 0.262969
H42   H     H_    0.939723 0.166165 0.413273 0.138076
H43   H     H_    0.887637 0.231771 0.415080 0.177868
H44   H     H_    0.798424 0.161413 0.423560 0.239214
H45   H     H_    0.842022 0.142798 0.377240 0.212974
H46   H     H_    0.843508 0.743273 0.017590 0.203058
H47   H     H_    0.849590 0.095353 0.423293 0.262769
H48   H     H_    0.833706 0.059698 0.586939 0.138523
H49   H     H_    0.768199 0.111916 0.585249 0.178461
H50   H     H_    0.838735 0.201046 0.577020 0.239366
H51   H     H_    0.857222 0.157153 0.623238 0.212713
H52   H     H_    0.904694 0.149750 0.577183 0.262963
H53   H     H_    0.060285 0.166164 0.586725 0.137930
H54   H     H_    0.112368 0.231772 0.584915 0.177725
H55   H     H_    0.201582 0.161417 0.576431 0.239156
H56   H     H_    0.157990 0.142801 0.622754 0.213071
H57   H     H_    0.895534 0.692735 0.989613 0.261023
H58   H     H_    0.150419 0.095355 0.576701 0.262788
H59   H     H_    0.166298 0.940322 0.586945 0.138523
H60   H     H_    0.231803 0.888101 0.585260 0.178462
H61   H     H_    0.161262 0.798973 0.577042 0.239366
H62   H     H_    0.142776 0.842880 0.623255 0.212714
H63   H     H_    0.095305 0.850272 0.577198 0.262970
H64   H     H_    0.939717 0.833826 0.586725 0.137921
H65   H     H_    0.887622 0.768228 0.584913 0.177730
H66   H     H_    0.798421 0.838602 0.576429 0.239155
H67   H     H_    0.842013 0.857202 0.622754 0.213069
H68   H     H_    0.365867 0.824537 0.035777 0.136754
H69   H     H_    0.849598 0.904653 0.576705 0.262792
H70   H     H_    0.331756 0.758961 0.009057 0.181136
H71   H     H_    0.273820 0.829896 0.962714 0.254282
H72   H     H_    0.256676 0.843626 0.017042 0.202907
H73   H     H_    0.241063 0.331923 0.009547 0.180968
H74   H     H_    0.307447 0.895649 0.989256 0.261302
H75   H     H_    0.175357 0.633951 0.963939 0.136999
H76   H     H_    0.241062 0.668109 0.990485 0.180999
H77   H     H_    0.170349 0.726401 0.036782 0.254324
H78   H     H_    0.156494 0.743277 0.982431 0.202970
H79   H     H_    0.104468 0.692737 0.010405 0.261062
H80   H     H_    0.634138 0.824529 0.964228 0.136590
H81   H     H_    0.668251 0.758962 0.990956 0.181152
H82   H     H_    0.726173 0.829912 0.037297 0.254201
H83   H     H_    0.743324 0.843631 0.982969 0.203001
H84   H     H_    0.170449 0.273579 0.963215 0.254241
H85   H     H_    0.692544 0.895656 0.010746 0.261257
H86   H     H_    0.824672 0.366062 0.963923 0.137019
H87   H     H_    0.758936 0.331916 0.990440 0.180976
H88   H     H_    0.829591 0.273575 0.036746 0.254316
H89   H     H_    0.843486 0.256722 0.982396 0.202977
H90   H     H_    0.895505 0.307230 0.010403 0.261063
H91   H     H_    0.365856 0.175469 0.964236 0.136592
H92   H     H_    0.331752 0.241041 0.990963 0.181161
H93   H     H_    0.273832 0.170098 0.037310 0.254207
H94   H     H_    0.256670 0.156378 0.982984 0.202997
H95   H     H_    0.156526 0.256707 0.017559 0.203063
H96   H     H_    0.307450 0.104350 0.010758 0.261256
H97   H     H_    0.675497 0.865811 0.535690 0.136881
H98   H     H_    0.741035 0.831718 0.508918 0.181218
H99   H     H_    0.670031 0.773892 0.462559 0.254416
H100  H     H_    0.656348 0.756659 0.516879 0.202765
H101  H     H_    0.604318 0.807499 0.489156 0.261077
H102  H     H_    0.133887 0.675302 0.536150 0.136762
H103  H     H_    0.168046 0.741071 0.509679 0.180902
H104  H     H_    0.226482 0.670473 0.463386 0.254084
H105  H     H_    0.243263 0.656546 0.517742 0.203055
H106  H     H_    0.104511 0.307211 0.989545 0.261027
H107  H     H_    0.192815 0.604526 0.489686 0.261152
H108  H     H_    0.324509 0.134191 0.535686 0.136886
H109  H     H_    0.258966 0.168278 0.508916 0.181216
H110  H     H_    0.329958 0.226106 0.462551 0.254418
H111  H     H_    0.343648 0.243343 0.516870 0.202765
H112  H     H_    0.395678 0.192506 0.489146 0.261077
H113  H     H_    0.866102 0.324678 0.536138 0.136742
H114  H     H_    0.831932 0.258933 0.509646 0.180919
H115  H     H_    0.773536 0.329577 0.463359 0.254092
H116  H     H_    0.756737 0.343475 0.517716 0.203048
H117  H     H_    0.634149 0.175477 0.035757 0.136745
H118  H     H_    0.807211 0.395497 0.489684 0.261152
H119  H     H_    0.675491 0.134184 0.464305 0.136856
H120  H     H_    0.741034 0.168277 0.491071 0.181202
H121  H     H_    0.670039 0.226112 0.537431 0.254336
H122  H     H_    0.656349 0.243339 0.483110 0.202872
H123  H     H_    0.604320 0.192505 0.510839 0.261034
H124  H     H_    0.133891 0.324700 0.463856 0.136889
H125  H     H_    0.168048 0.258931 0.490329 0.180900
H126  H     H_    0.226477 0.329530 0.536625 0.254148
H127  H     H_    0.243264 0.343458 0.482270 0.202967
H128  H     H_    0.668257 0.241038 0.009021 0.181158
H129  H     H_    0.192812 0.395476 0.510324 0.261197
H130  H     H_    0.324507 0.865806 0.464317 0.136851
H131  H     H_    0.258966 0.831718 0.491090 0.181204
H132  H     H_    0.329965 0.773896 0.537454 0.254338
H133  H     H_    0.343652 0.756657 0.483135 0.202868
H134  H     H_    0.395682 0.807499 0.510857 0.261033
H135  H     H_    0.866107 0.675301 0.463855 0.136889
H136  H     H_    0.831949 0.741069 0.490329 0.180901
H137  H     H_    0.773522 0.670467 0.536624 0.254147
H138  H     H_    0.756734 0.656542 0.482269 0.202968
H139  H     H_    0.726160 0.170077 0.962676 0.254292
H140  H     H_    0.807187 0.604523 0.510321 0.261196
H141  H     H_    0.333820 0.439813 0.913239 0.138294
H142  H     H_    0.268225 0.387713 0.915027 0.178216
H143  H     H_    0.338601 0.298507 0.923468 0.239355
H144  H     H_    0.357204 0.342149 0.877165 0.212382
H145  H     H_    0.404651 0.349685 0.923221 0.262834
H146  H     H_    0.559778 0.333723 0.913092 0.137696
H147  H     H_    0.611980 0.268204 0.914797 0.177716
H148  H     H_    0.701120 0.338716 0.923057 0.239361
H149  H     H_    0.657261 0.357227 0.876829 0.212762
H150  H     H_    0.743330 0.156368 0.017003 0.202900
H151  H     H_    0.649841 0.404689 0.922887 0.262961
H152  H     H_    0.666182 0.560191 0.913242 0.138297
H153  H     H_    0.731776 0.612293 0.915031 0.178207
H154  H     H_    0.661398 0.701497 0.923471 0.239347
H155  H     H_    0.642795 0.657853 0.877168 0.212380
H156  H     H_    0.595349 0.650317 0.923224 0.262839
H157  H     H_    0.440192 0.666272 0.913101 0.137696
H158  H     H_    0.387995 0.731795 0.914814 0.177715
H159  H     H_    0.298853 0.661289 0.923089 0.239357
H160  H     H_    0.342694 0.642775 0.876853 0.212764
O1    O     O_R   0.091640 0.551640 0.999920 -0.591545
O2    O     O_R   0.948360 0.591640 0.499920 -0.591484
O3    O     O_R   0.408360 0.948360 0.499920 -0.591738
O4    O     O_R   0.051640 0.408360 0.499920 -0.591488
O5    O     O_R   0.591640 0.948360 0.500080 -0.591745
O6    O     O_R   0.948360 0.408360 0.500080 -0.591517
O7    O     O_R   0.408360 0.051640 0.500080 -0.591749
O8    O     O_R   0.051640 0.591640 0.500080 -0.591515
O9    O     O_R   0.000010 0.551640 0.060910 -0.612435
O10   O     O_R   0.448360 0.000010 0.060910 -0.611907
O11   O     O_R   0.999990 0.448360 0.060910 -0.612436
O12   O     O_R   0.448360 0.091640 0.999920 -0.591710
O13   O     O_R   0.551640 0.999990 0.060910 -0.611906
O14   O     O_R   0.000010 0.448360 0.939090 -0.612770
O15   O     O_R   0.448360 0.999990 0.939090 -0.611549
O16   O     O_R   0.999990 0.551640 0.939090 -0.612770
O17   O     O_R   0.551640 0.000010 0.939090 -0.611548
O18   O     O_R   0.500010 0.051640 0.560910 -0.612982
O19   O     O_R   0.948360 0.500010 0.560910 -0.611772
O20   O     O_R   0.499990 0.948360 0.560910 -0.612981
O21   O     O_R   0.051640 0.499990 0.560910 -0.611773
O22   O     O_R   0.500010 0.948360 0.439090 -0.612624
O23   O     O_R   0.908360 0.448360 0.999920 -0.591549
O24   O     O_R   0.948360 0.499990 0.439090 -0.612107
O25   O     O_R   0.499990 0.051640 0.439090 -0.612625
O26   O     O_R   0.051640 0.500010 0.439090 -0.612106
O27   O     O_R   0.500000 0.591640 0.965510 -0.643687
O28   O     O_R   0.408360 0.500000 0.965510 -0.643755
O29   O     O_R   0.500000 0.408360 0.965510 -0.643675
O30   O     O_R   0.591640 0.500000 0.965510 -0.643748
O31   O     O_R   0.500000 0.408360 0.034490 -0.643656
O32   O     O_R   0.408360 0.500000 0.034490 -0.643768
O33   O     O_R   0.500000 0.591640 0.034490 -0.643662
O34   O     O_R   0.551640 0.908360 0.999920 -0.591706
O35   O     O_R   0.591640 0.500000 0.034490 -0.643781
O36   O     O_R   0.000000 0.091640 0.465510 -0.643785
O37   O     O_R   0.908360 0.000000 0.465510 -0.643582
O38   O     O_R   0.000000 0.908360 0.465510 -0.643780
O39   O     O_R   0.091640 0.000000 0.465510 -0.643595
O40   O     O_R   1.000000 0.908360 0.534490 -0.643807
O41   O     O_R   0.908360 0.000000 0.534490 -0.643561
O42   O     O_R   0.000000 0.091640 0.534490 -0.643809
O43   O     O_R   0.091640 0.000000 0.534490 -0.643547
O44   O     O_3   0.188601 0.393900 0.974234 -0.580365
O45   O     O_R   0.091640 0.448360 0.000080 -0.591563
O46   O     O_3   0.605956 0.188571 0.973981 -0.580639
O47   O     O_3   0.811401 0.606103 0.974241 -0.580366
O48   O     O_3   0.394035 0.811426 0.973998 -0.580631
O49   O     O_3   0.188598 0.606098 0.025767 -0.580451
O50   O     O_3   0.605962 0.811427 0.026007 -0.580583
O51   O     O_3   0.811398 0.393893 0.025751 -0.580438
O52   O     O_3   0.394041 0.188573 0.026012 -0.580584
O53   O     O_3   0.688566 0.894076 0.473927 -0.580584
O54   O     O_3   0.106141 0.688608 0.474309 -0.580408
O55   O     O_3   0.311433 0.105922 0.473923 -0.580584
O56   O     O_R   0.448360 0.908360 0.000080 -0.591656
O57   O     O_3   0.893864 0.311394 0.474298 -0.580409
O58   O     O_3   0.688567 0.105926 0.526069 -0.580485
O59   O     O_3   0.106138 0.311392 0.525696 -0.580460
O60   O     O_3   0.311434 0.894080 0.526079 -0.580489
O61   O     O_3   0.893860 0.688608 0.525695 -0.580461
O62   O     O_3   0.317073 0.397585 0.970751 -0.578705
O63   O     O_3   0.602275 0.317063 0.970529 -0.578286
O64   O     O_3   0.682928 0.602419 0.970755 -0.578704
O65   O     O_3   0.397716 0.682936 0.970544 -0.578284
O66   O     O_3   0.317072 0.602414 0.029252 -0.578597
O67   O     O_R   0.908360 0.551640 0.000080 -0.591540
O68   O     O_3   0.602283 0.682936 0.029459 -0.578380
O69   O     O_3   0.682927 0.397579 0.029239 -0.578592
O70   O     O_3   0.397724 0.317064 0.029468 -0.578385
O71   O     O_3   0.817061 0.897757 0.470478 -0.578673
O72   O     O_3   0.102450 0.817076 0.470808 -0.578504
O73   O     O_3   0.182938 0.102240 0.470475 -0.578674
O74   O     O_3   0.897551 0.182926 0.470803 -0.578507
O75   O     O_3   0.817062 0.102245 0.529517 -0.578804
O76   O     O_3   0.102449 0.182925 0.529194 -0.578406
O77   O     O_3   0.182939 0.897761 0.529527 -0.578805
O78   O     O_R   0.551640 0.091640 0.000080 -0.591661
O79   O     O_3   0.897548 0.817075 0.529193 -0.578405
O80   O     O_R   0.591640 0.051640 0.499920 -0.591734
Zn1   Zn    Zn3+2 0.000000 0.568980 0.000000 0.991765
Zn2   Zn    Zn3+2 0.500000 0.500000 0.046050 0.951193
Zn3   Zn    Zn3+2 0.000000 0.000000 0.453950 0.951590
Zn4   Zn    Zn3+2 0.000000 0.000000 0.546050 0.951645
Zn5   Zn    Zn3+2 0.431020 0.000000 0.000000 0.992795
Zn6   Zn    Zn3+2 0.000000 0.431020 0.000000 0.991784
Zn7   Zn    Zn3+2 0.568980 0.000000 0.000000 0.992788
Zn8   Zn    Zn3+2 0.500000 0.068980 0.500000 0.991165
Zn9   Zn    Zn3+2 0.931020 0.500000 0.500000 0.992645
Zn10  Zn    Zn3+2 0.500000 0.931020 0.500000 0.991162
Zn11  Zn    Zn3+2 0.068980 0.500000 0.500000 0.992653
Zn12  Zn    Zn3+2 0.500000 0.500000 0.953950 0.951196

loop_
_geom_bond_atom_site_label_1
_geom_bond_atom_site_label_2
_ccdc_geom_bond_type
C50   H135  S    
C59   O65   S    
C63   H10   S    
C19   C20   S    
C19   H128  S    
O24   Zn9   S    
C1    C99   A    
C65   H16   S    
C46   O50   S    
C57   C102  A    
C58   H154  S    
C70   H26   S    
C136  F16   S    
C127  O21   A    
C60   H160  S    
C117  O5    A    
C56   H153  S    
C90   C107  A    
C19   O46   S    
C10   C124  S    
C88   O55   S    
C92   C109  A    
C12   C126  S    
C1    C167  S    
C29   H85   S    
C72   H32   S    
C139  C152  A    
O15   Zn5   S    
C101  O68   S    
O67   Zn1   S    
C39   H108  S    
C105  O72   S    
C93   C110  A    
O13   Zn7   S    
C64   H12   S    
C59   C60   S    
C21   C22   S    
C42   H118  S    
C104  O71   S    
C143  F9    S    
C79   C161  A    
C68   C158  A    
C45   H125  S    
C78   O75   S    
O35   Zn2   S    
C113  O45   A    
C26   H76   S    
C45   C47   S    
C55   H151  S    
C134  C146  A    
O6    Zn9   S    
C167  O28   A    
O7    Zn8   S    
C146  F11   S    
C96   O63   S    
C61   H5    S    
C129  O26   A    
C143  C154  A    
C48   H130  S    
C165  O27   A    
C138  C141  A    
C148  C174  S    
C71   H28   S    
C90   C164  A    
C149  C175  S    
C43   C44   S    
C35   C157  A    
C45   H124  S    
C37   C38   S    
C49   H132  S    
C146  C154  A    
C46   C160  A    
C21   H24   S    
C16   C129  S    
C61   H4    S    
C53   H143  S    
C33   H93   S    
C47   H127  S    
C24   C98   A    
C131  C149  A    
C95   C166  A    
C65   O69   S    
C131  C143  A    
C105  C133  A    
O8    Zn11  S    
C166  O44   S    
C118  C162  S    
C74   O73   S    
C170  O36   A    
C69   H22   S    
C72   C73   S    
C87   O54   S    
C20   H150  S    
O78   Zn7   S    
C45   O59   S    
C138  C151  A    
C94   O61   S    
O40   Zn4   S    
C115  O23   A    
C82   H56   S    
C42   H115  S    
C19   H117  S    
C89   C96   A    
C2    C96   A    
C48   O60   S    
O39   Zn3   S    
C28   H81   S    
C30   C31   S    
C58   H156  S    
C9    C123  S    
C50   O61   S    
C13   C97   A    
C63   O68   S    
C8    C121  S    
C168  O31   A    
C129  O24   A    
C97   O64   S    
O14   Zn6   S    
C91   O58   S    
C76   H42   S    
C113  C157  S    
C107  C155  A    
C55   H149  S    
C26   O49   S    
C27   H79   S    
C137  C142  A    
C28   H80   S    
C68   C103  A    
C119  O7    A    
O42   Zn4   S    
C6    C9    T    
C7    C8    T    
C85   C86   S    
C67   O70   S    
C31   H89   S    
C133  C172  S    
C62   H7    S    
C102  O69   S    
C49   H134  S    
C78   C80   S    
C23   O48   S    
C104  C122  A    
C93   C163  A    
C41   H114  S    
C54   H146  S    
C98   O65   S    
O45   Zn6   S    
C110  O77   S    
C120  O6    A    
O43   Zn4   S    
C93   O60   S    
C114  C158  S    
C7    C156  S    
C51   H137  S    
C87   C105  A    
C33   H96   S    
C32   O52   S    
O38   Zn3   S    
C66   H18   S    
C32   H91   S    
C37   H103  S    
C89   C103  A    
C38   H104  S    
C74   H37   S    
C138  F3    S    
C85   O79   S    
C17   O44   S    
C18   H84   S    
C13   O47   S    
C147  F10   S    
C4    C152  S    
C46   C101  A    
C30   H86   S    
C78   H49   S    
C43   H120  S    
C103  O70   S    
O21   Zn11  S    
C39   C40   S    
C25   H72   S    
O37   Zn3   S    
C59   H157  S    
C55   H148  S    
C134  C149  A    
C118  O8    A    
C107  O74   S    
C40   H111  S    
C125  O17   A    
C95   O62   S    
C128  O25   A    
C125  O15   A    
C1    C95   A    
C17   C18   S    
C51   H140  S    
C31   H88   S    
C27   H77   S    
C165  O33   A    
C23   H68   S    
C171  O41   A    
C137  C150  A    
O32   Zn2   S    
O5    Zn10  S    
C97   C100  A    
C52   C53   S    
C35   O49   S    
C81   O76   S    
C16   C174  T    
O80   Zn8   S    
C50   H136  S    
C54   C55   S    
C63   H9    S    
C132  C147  A    
C81   H54   S    
C82   H58   S    
O9    Zn1   S    
C65   H15   S    
C135  C150  A    
O33   Zn2   S    
C70   H27   S    
C80   H51   S    
C85   H65   S    
C94   C112  A    
C34   O53   S    
C56   C58   S    
C121  O9    A    
C57   C159  A    
C61   C62   S    
C67   H21   S    
C120  C164  S    
O36   Zn3   S    
C63   C64   S    
C173  O43   A    
C87   C162  A    
C21   O47   S    
C122  C171  S    
C84   H61   S    
C171  O37   A    
C167  O32   A    
O56   Zn5   S    
C13   C159  A    
C60   H3    S    
C29   H83   S    
C36   H99   S    
C83   H60   S    
C41   C42   S    
C44   H121  S    
C25   H74   S    
O22   Zn10  S    
C76   O74   S    
C26   C27   S    
O29   Zn12  S    
C69   H25   S    
C168  O29   A    
C28   C29   S    
C11   C125  S    
C24   O48   S    
C116  C160  S    
O2    Zn9   S    
C83   O77   S    
C73   H34   S    
C106  O73   S    
C52   H141  S    
C142  F14   S    
C116  O56   A    
C127  O19   A    
C86   H66   S    
C14   C176  T    
C145  C156  A    
C69   H23   S    
C70   C71   S    
C134  F7    S    
C140  C153  A    
C34   H97   S    
C56   O64   S    
C71   H30   S    
C70   O71   S    
C130  C145  A    
C77   H45   S    
C136  C139  A    
C135  C140  A    
C140  F12   S    
C60   H159  S    
C112  O79   S    
C108  O75   S    
C44   H122  S    
O28   Zn12  S    
C18   H95   S    
C72   H31   S    
C64   H14   S    
C47   H129  S    
C77   H44   S    
C14   C127  S    
C42   H116  S    
C121  O11   A    
O23   Zn6   S    
C89   C168  S    
C2    C158  A    
O4    Zn11  S    
C84   H63   S    
C50   C51   S    
C67   H20   S    
C4    C11   T    
C40   H110  S    
C147  C156  A    
C6    C154  S    
O25   Zn8   S    
C82   H55   S    
C48   C49   S    
C64   H11   S    
C15   C128  S    
C18   H106  S    
C44   H123  S    
C136  C151  A    
C117  O80   A    
C26   H75   S    
C58   H155  S    
C85   H64   S    
C114  O12   A    
C100  C169  S    
O31   Zn2   S    
C113  O1    A    
C91   C108  A    
C135  F2    S    
C139  F13   S    
C73   H36   S    
C109  O76   S    
C101  C111  A    
C43   O58   S    
C68   O52   S    
C79   O53   S    
C32   C33   S    
C62   H8    S    
C49   H133  S    
C132  F8    S    
C131  F5    S    
C155  C170  S    
O17   Zn7   S    
C137  F4    S    
C2    O46   S    
C41   H113  S    
C54   H147  S    
C80   H50   S    
C126  O20   A    
C109  C155  A    
C61   O66   S    
C53   H144  S    
C33   H94   S    
C115  C159  S    
C77   H47   S    
C91   C161  A    
C66   H19   S    
C32   H92   S    
C169  O30   A    
C22   H46   S    
C150  C176  S    
C37   H102  S    
C99   O66   S    
C120  O4    A    
C17   H1    S    
C141  F15   S    
C112  C133  A    
C74   H38   S    
C81   C82   S    
O10   Zn5   S    
C90   O57   S    
C56   H152  S    
C30   H87   S    
O12   Zn5   S    
C43   H119  S    
O34   Zn7   S    
C57   O51   S    
C172  O38   A    
O19   Zn9   S    
C5    C153  S    
C173  O39   A    
C40   H112  S    
C21   H13   S    
O27   Zn12  S    
C169  O35   A    
C17   H73   S    
C3    C12   T    
C144  C173  S    
C123  O10   A    
C124  O14   A    
C94   C162  A    
C86   H69   S    
C34   C36   S    
C92   C164  A    
C38   H107  S    
C118  O2    A    
C52   O62   S    
C75   H40   S    
C35   C99   A    
C20   H2    S    
C92   O59   S    
C48   H131  S    
C115  O67   A    
C74   C75   S    
O11   Zn6   S    
C130  C148  A    
C71   H29   S    
C132  C148  A    
C81   H53   S    
C114  O78   A    
C31   H90   S    
C116  O34   A    
C76   C77   S    
C62   H6    S    
C22   H57   S    
C130  F6    S    
C119  C163  S    
C22   H35   S    
C23   H70   S    
C117  C161  S    
O20   Zn10  S    
C80   H52   S    
C67   C69   S    
C126  O18   A    
C110  C144  A    
C88   C106  A    
O1    Zn1   S    
C51   H138  S    
C37   O54   S    
C128  O22   A    
C47   H126  S    
C100  C102  A    
C30   O51   S    
O18   Zn8   S    
C66   H17   S    
C75   H39   S    
C111  C165  S    
C84   H62   S    
C79   C104  A    
C83   C84   S    
C39   O55   S    
C53   H145  S    
C29   H82   S    
C36   H100  S    
C36   H101  S    
C78   H48   S    
C98   C111  A    
C83   H59   S    
C54   O63   S    
C28   O50   S    
C108  C122  A    
C123  O13   A    
C157  C166  A    
C172  O40   A    
C24   C160  A    
C25   H71   S    
C106  C144  A    
C59   H158  S    
C170  O42   A    
C88   C163  A    
C3    C151  S    
C15   C175  T    
C39   H109  S    
O30   Zn12  S    
C119  O3    A    
C5    C10   T    
C73   H33   S    
C72   O72   S    
O26   Zn11  S    
O41   Zn4   S    
C52   H142  S    
C75   H41   S    
C76   H43   S    
C41   O57   S    
C23   C25   S    
C142  C153  A    
C124  O16   A    
C86   H67   S    
C27   H78   S    
C141  C152  A    
C38   H105  S    
C65   C66   S    
C145  F1    S    
O3    Zn10  S    
C20   H139  S    
O16   Zn1   S    
C34   H98   S    
