data_mof_unit_29694.cif
_audit_creation_date              2012-12-11T14:49:43-0500
_audit_creation_method            fapswitch 2.2
_symmetry_space_group_name_H-M    P1
_symmetry_Int_Tables_number       1
_space_group_crystal_system       triclinic
_cell_length_a                    17.005932
_cell_length_b                    7.052238
_cell_length_c                    16.785766
_cell_angle_alpha                 90.340597
_cell_angle_beta                  100.619932
_cell_angle_gamma                 89.928468
_cell_volume                      1978.59786862

loop_
_atom_site_label
_atom_site_type_symbol
_atom_type_description
_atom_site_fract_x
_atom_site_fract_y
_atom_site_fract_z
_atom_type_partial_charge
O1    O     O_R   0.579510 0.506290 0.439030 -0.546835
O2    O     O_R   0.420490 0.006290 0.560970 -0.537949
O3    O     O_R   0.412540 0.170090 0.405290 -0.547865
O4    O     O_R   0.587460 0.670090 0.594710 -0.548557
C1    C     C_R   0.386133 0.346661 0.380749 0.766989
C2    C     C_R   0.614669 0.846798 0.618515 0.769996
O5    O     O_R   0.578390 0.176230 0.429330 -0.527155
O6    O     O_R   0.421610 0.676230 0.570670 -0.532752
O7    O     O_R   0.587530 0.011250 0.585190 -0.506129
O8    O     O_R   0.412470 0.511250 0.414810 -0.503803
C3    C     C_R   0.603625 0.345142 0.412849 0.697210
C4    C     C_R   0.395756 0.845470 0.586475 0.710713
O9    O     O_3   0.502800 0.340940 0.551110 -0.369168
O10   O     O_3   0.497200 0.840940 0.448890 -0.370410
V1    V     V_3+5 0.499480 0.064020 0.490520 1.501306
V2    V     V_3+5 0.500520 0.564020 0.509480 1.485995
C5    C     C_R   0.167026 0.909785 0.863110 -0.260541
C6    C     C_R   0.832836 0.415385 0.137199 -0.264991
C7    C     C_R   0.330851 0.856401 0.635200 -0.172666
C8    C     C_R   0.668183 0.353880 0.363859 -0.185164
C9    C     C_R   0.190007 0.905324 0.643298 0.247524
C10   C     C_R   0.806952 0.296192 0.350187 0.247179
C11   C     C_R   0.250253 0.876534 0.596695 0.089281
C12   C     C_R   0.747171 0.301872 0.398346 0.084376
C13   C     C_R   0.350083 0.851014 0.720721 0.160077
C14   C     C_R   0.650595 0.415075 0.282423 0.151366
C15   C     C_R   0.289250 0.869790 0.768769 -0.033121
C16   C     C_R   0.711230 0.416944 0.233613 -0.031861
C17   C     C_R   0.208340 0.901879 0.729632 0.001596
C18   C     C_R   0.790088 0.353110 0.267453 0.004701
C19   C     C_R   0.147753 0.925791 0.777993 0.103753
C20   C     C_R   0.850313 0.351007 0.217941 0.101984
C21   C     C_R   0.245796 0.875128 0.900522 0.545113
C22   C     C_R   0.756135 0.480083 0.105263 0.537701
C23   C     C_R   0.306855 0.857146 0.855076 0.138412
C24   C     C_R   0.695441 0.480666 0.151664 0.129603
C25   C     C_3   0.752963 0.751316 0.832507 0.529690
C26   C     C_3   0.246019 0.246060 0.167652 0.507470
H1    H     H_    0.785145 0.616323 0.850366 0.091402
H2    H     H_    0.212267 0.111975 0.151739 0.089923
C27   C     C_3   0.687677 0.711166 0.755911 -0.091563
C28   C     C_3   0.312049 0.207884 0.243754 -0.080977
H3    H     H_    0.706186 0.578467 0.730631 0.057275
H4    H     H_    0.293356 0.077620 0.270004 0.053200
C29   C     C_3   0.841071 0.854102 0.732579 -0.098257
C30   C     C_3   0.160038 0.365207 0.267556 -0.098469
C31   C     C_3   0.763918 0.094201 0.800520 -0.392524
C32   C     C_3   0.239379 0.592425 0.197103 -0.382513
C33   C     C_3   0.812081 0.906548 0.813539 -0.211372
C34   C     C_3   0.188872 0.407952 0.185865 -0.205675
H5    H     H_    0.803931 0.206565 0.784457 0.109939
H6    H     H_    0.201005 0.710025 0.212239 0.105475
H7    H     H_    0.747324 0.142330 0.858496 0.239543
H8    H     H_    0.256379 0.633361 0.138623 0.261868
C35   C     C_3   0.686759 0.869061 0.689643 -0.149806
C36   C     C_3   0.314520 0.369583 0.309342 -0.146621
C37   C     C_3   0.769111 0.856669 0.658026 0.630110
C38   C     C_3   0.232478 0.365932 0.341601 0.606799
C39   C     C_3   0.686216 0.069166 0.734648 0.772326
C40   C     C_3   0.316933 0.566619 0.263199 0.769347
H9    H     H_    0.884279 0.966377 0.722647 0.193792
H10   H     H_    0.118800 0.482544 0.277303 0.185761
O11   O     O_R   0.087500 0.266000 0.085220 -0.532214
O12   O     O_R   0.912500 0.766000 0.914780 -0.528102
O13   O     O_R   0.921600 0.589950 0.070670 -0.529660
O14   O     O_R   0.078400 0.089950 0.929330 -0.541928
C41   C     C_R   0.895352 0.422170 0.086060 0.793578
C42   C     C_R   0.104456 0.921269 0.913885 0.800985
O15   O     O_R   0.087460 0.596020 0.094710 -0.551164
O16   O     O_R   0.912540 0.096020 0.905290 -0.555351
O17   O     O_R   0.079520 0.760970 0.939020 -0.530624
O18   O     O_R   0.920480 0.260970 0.060980 -0.542918
C43   C     C_R   0.117039 0.426424 0.116414 0.797245
C44   C     C_R   0.883408 0.925858 0.883275 0.793234
O19   O     O_3   0.997180 0.425140 0.948910 -0.379272
O20   O     O_3   0.002820 0.925140 0.051090 -0.380800
V3    V     V_3+5 0.000520 0.702080 0.009480 1.525008
V4    V     V_3+5 0.999480 0.202080 0.990520 1.494252
N1    N     N_3   0.066200 0.962617 0.741049 -0.598010
H11   H     H_    0.030494 0.854483 0.757386 0.229507
H12   H     H_    0.048477 0.091335 0.763433 0.230332
N2    N     N_3   0.930024 0.288195 0.249918 -0.598733
H13   H     H_    0.943347 0.172377 0.215594 0.254619
H14   H     H_    0.969700 0.398668 0.244825 0.222314
N3    N     N_3   0.885483 0.673971 0.740354 -0.685990
H15   H     H_    0.846678 0.559089 0.739482 0.220293
H16   H     H_    0.914337 0.658433 0.690800 0.277568
N4    N     N_3   0.112892 0.189232 0.261251 -0.686074
H17   H     H_    0.149498 0.070608 0.260340 0.220117
H18   H     H_    0.086023 0.178071 0.312274 0.293579
N5    N     N_3   0.772904 0.697230 0.601721 -0.648050
H19   H     H_    0.740669 0.732333 0.544434 0.252218
H20   H     H_    0.746396 0.575464 0.618953 0.175826
N6    N     N_3   0.227120 0.209432 0.397913 -0.616965
H21   H     H_    0.263642 0.239374 0.453825 0.257912
H22   H     H_    0.247196 0.082319 0.377500 0.190680
F1    F     F_    0.620927 0.076133 0.773469 -0.686749
F2    F     F_    0.382230 0.566686 0.224371 -0.680504
N7    N     N_3   0.677913 0.227357 0.676876 -0.613744
H23   H     H_    0.731888 0.294683 0.674402 0.212448
H24   H     H_    0.636691 0.326196 0.690826 0.262651
N8    N     N_3   0.326889 0.728360 0.319978 -0.605211
H25   H     H_    0.273195 0.795897 0.323918 0.216073
H26   H     H_    0.366946 0.826290 0.303628 0.260630
F3    F     F_    0.778644 0.018376 0.614696 -0.691721
F4    F     F_    0.225842 0.530074 0.385561 -0.717275
F5    F     F_    0.263877 0.859389 0.982584 -0.667999
F6    F     F_    0.739541 0.541676 0.027402 -0.644770
N9    N     N_3   0.109462 0.937156 0.601669 -0.587686
H27   H     H_    0.089427 0.817122 0.567047 0.240123
H28   H     H_    0.108973 0.053137 0.563040 0.264403
N10   N     N_3   0.885474 0.231831 0.386587 -0.592104
H29   H     H_    0.880879 0.096312 0.410275 0.266029
H30   H     H_    0.909343 0.324151 0.433791 0.242383
N11   N     N_3   0.386631 0.823053 0.897914 -0.554621
H31   H     H_    0.386593 0.698073 0.931133 0.278447
H32   H     H_    0.403182 0.934965 0.938689 0.281919
N12   N     N_3   0.617889 0.548445 0.114405 -0.550311
H33   H     H_    0.597095 0.465114 0.063122 0.279348
H34   H     H_    0.623709 0.687975 0.095546 0.277854
N13   N     N_3   0.226904 0.867656 0.509736 -0.643724
H35   H     H_    0.275524 0.848223 0.480775 0.256860
H36   H     H_    0.191319 0.747093 0.495688 0.288040
N14   N     N_3   0.769508 0.255928 0.483060 -0.578889
H37   H     H_    0.721036 0.258943 0.512986 0.273164
H38   H     H_    0.808174 0.362118 0.510628 0.241619
N15   N     N_3   0.432008 0.825259 0.758615 -0.586090
H39   H     H_    0.451507 0.695769 0.738712 0.247857
H40   H     H_    0.466091 0.934739 0.740512 0.267738
N16   N     N_3   0.570447 0.473462 0.249208 -0.556011
H41   H     H_    0.531718 0.361929 0.255225 0.251438
H42   H     H_    0.555678 0.589946 0.282343 0.264013
F7    F     F_    0.719731 0.807758 0.898412 -0.612518
F8    F     F_    0.278457 0.292527 0.100237 -0.636148
N17   N     N_3   0.608538 0.674538 0.775708 -0.612420
H43   H     H_    0.593692 0.776365 0.815684 0.357730
H44   H     H_    0.610766 0.545054 0.806156 0.272035
N18   N     N_3   0.390750 0.167135 0.223135 -0.611344
H45   H     H_    0.405243 0.264702 0.181755 0.349825
H46   H     H_    0.387675 0.035483 0.193662 0.271748

loop_
_geom_bond_atom_site_label_1
_geom_bond_atom_site_label_2
_ccdc_geom_bond_type
O14   C42   A    
C35   C39   S    
C28   N18   S    
C39   N7    S    
O12   V3    S    
C1    C36   S    
O15   V3    S    
O1    C3    A    
C27   N17   S    
C2    C35   S    
O2    C4    A    
C2    O7    A    
N10   H30   S    
N17   H43   S    
C11   N13   S    
N3    H15   S    
C32   H8    S    
C29   C37   S    
C5    C21   A    
C30   H10   S    
O15   C43   A    
C26   H2    S    
O20   V4    S    
C26   C28   S    
C32   H6    S    
C40   F2    S    
N9    H28   S    
N8    H26   S    
O16   V4    S    
N11   H31   S    
C12   N14   S    
C15   C17   A    
C41   O18   A    
C29   H9    S    
O19   V3    S    
N12   H33   S    
C27   C35   S    
O18   V4    S    
C28   C36   S    
C8    C12   A    
N11   H32   S    
C21   F5    S    
O16   C44   A    
C23   N11   S    
C37   N5    S    
C22   C24   A    
C14   N16   S    
C31   H7    S    
C32   C34   S    
O6    V2    S    
C30   C38   S    
C27   H3    S    
N6    H21   S    
C28   H4    S    
C40   N8    S    
N10   H29   S    
C32   C40   S    
C30   N4    S    
N3    H16   S    
O14   V4    S    
C3    C8    S    
O13   V3    S    
C37   F3    S    
C13   N15   S    
O20   V3    S    
C31   C33   S    
C34   C43   S    
N5    H19   S    
N1    H12   S    
C7    C11   A    
C31   H5    S    
O11   C43   A    
C15   C23   A    
C6    C41   S    
C9    C17   A    
C36   C40   S    
C38   F4    S    
O4    V2    S    
N16   H42   S    
N15   H40   S    
N5    H20   S    
C25   C33   S    
O5    C3    A    
N7    H23   S    
C29   C33   S    
O6    C4    A    
O1    V2    S    
N6    H22   S    
O2    V1    S    
C6    C22   A    
N13   H35   S    
N18   H46   S    
O4    C2    A    
N7    H24   S    
N4    H18   S    
N2    H14   S    
C35   C37   S    
C5    C19   A    
C25   F7    S    
C6    C20   A    
N15   H39   S    
O17   V3    S    
O3    V1    S    
N14   H38   S    
N17   H44   S    
C5    C42   S    
C10   C18   A    
C33   C44   S    
C14   C16   A    
O3    C1    A    
C9    N9    S    
C19   N1    S    
C26   C34   S    
C13   C15   A    
C20   N2    S    
C30   C34   S    
C10   N10   S    
O13   C41   A    
C29   N3    S    
C22   F6    S    
C9    C11   A    
N16   H41   S    
C38   N6    S    
C16   C18   A    
C17   C19   A    
O8    V2    S    
N9    H27   S    
C18   C20   A    
C8    C14   A    
C42   O17   A    
C39   F1    S    
C4    C7    S    
O5    V1    S    
C21   C23   A    
C36   C38   S    
C10   C12   A    
C26   F8    S    
C25   C27   S    
N8    H25   S    
C7    C13   A    
O19   V4    S    
N12   H34   S    
N13   H36   S    
N18   H45   S    
C31   C39   S    
N1    H11   S    
C1    O8    A    
N4    H17   S    
C16   C24   A    
C25   H1    S    
N2    H13   S    
O9    V2    S    
O12   C44   A    
O10   V1    S    
C24   N12   S    
O7    V1    S    
N14   H37   S    
O11   V4    S    
