data_mof_unit_12669.cif
_audit_creation_date              2012-10-26T21:00:16-0400
_audit_creation_method            fapswitch 2.2
_symmetry_space_group_name_H-M    P1
_symmetry_Int_Tables_number       1
_space_group_crystal_system       triclinic
_cell_length_a                    19.339063
_cell_length_b                    8.684206
_cell_length_c                    7.480483
_cell_angle_alpha                 103.419461
_cell_angle_beta                  94.550351
_cell_angle_gamma                 93.132925
_cell_volume                      1214.68945299

loop_
_atom_site_label
_atom_site_type_symbol
_atom_type_description
_atom_site_fract_x
_atom_site_fract_y
_atom_site_fract_z
_atom_type_partial_charge
C1    C     C_R   0.497793 0.199578 0.452858 0.555982
C2    C     C_R   0.811160 0.420193 0.334129 -0.114770
C3    C     C_R   0.146397 0.503134 0.505561 0.005590
C4    C     C_R   0.853603 0.496866 0.494439 0.005590
C5    C     C_R   0.177207 0.431578 0.346803 -0.104496
C6    C     C_R   0.822793 0.568426 0.653196 -0.104497
C7    C     C_R   0.249125 0.435462 0.348282 -0.128627
C8    C     C_R   0.750875 0.564541 0.651717 -0.128627
C9    C     C_R   0.292090 0.511726 0.507963 -0.011048
C10   C     C_R   0.707910 0.488275 0.492036 -0.011047
C11   C     C_R   0.929824 0.499162 0.497078 0.351135
C12   C     C_R   0.502207 0.800422 0.547142 0.555980
C13   C     C_R   0.070176 0.500838 0.502922 0.351135
C14   C     C_2   0.302166 0.683773 0.837932 0.577426
C15   C     C_2   0.697833 0.316221 0.162071 0.577426
C16   C     C_2   0.496651 0.031244 0.426799 -0.137584
C17   C     C_2   0.503349 0.968756 0.573201 -0.137585
C18   C     C_R   0.367806 0.504984 0.502912 0.553224
C19   C     C_R   0.632194 0.495016 0.497088 0.553225
C20   C     C_R   0.261401 0.588040 0.668426 0.039572
C21   C     C_R   0.738599 0.411958 0.331575 0.039572
C22   C     C_R   0.188840 0.579804 0.665872 -0.114770
Cu1   Cu    Cu3+1 0.507710 0.517380 0.684380 1.048639
Cu2   Cu    Cu3+1 0.492290 0.482620 0.315620 1.048639
H1    H     H_    0.165450 0.638079 0.788270 0.171717
H2    H     H_    0.685653 0.256151 0.883529 0.344248
H3    H     H_    0.435728 0.241908 0.941681 0.224101
H4    H     H_    0.381629 0.388588 0.972006 0.235502
H5    H     H_    0.564272 0.758092 0.058317 0.224102
H6    H     H_    0.618371 0.611411 0.027994 0.235501
H7    H     H_    0.834550 0.361916 0.211732 0.171718
H8    H     H_    0.145819 0.371687 0.220970 0.157094
H9    H     H_    0.854181 0.628319 0.779027 0.157094
H10   H     H_    0.271183 0.376464 0.224030 0.149767
H11   H     H_    0.728817 0.623541 0.775967 0.149764
H12   H     H_    0.490232 0.958499 0.286232 0.144528
H13   H     H_    0.509768 0.041501 0.713768 0.144527
H14   H     H_    0.314347 0.743837 0.116474 0.344249
N1    N     N_R   0.028906 0.431504 0.346524 -0.212835
N2    N     N_R   0.971093 0.568496 0.653476 -0.212835
N3    N     N_R   0.960083 0.430603 0.343697 -0.217142
N4    N     N_R   0.039917 0.569397 0.656303 -0.217142
N5    N     N_2   0.480680 0.456420 0.038530 -0.017761
N6    N     N_2   0.519320 0.543580 0.961470 -0.017761
N7    N     N_3   0.429132 0.355969 0.923251 -0.440204
N8    N     N_3   0.570867 0.644031 0.076749 -0.440203
O1    O     O_R   0.505010 0.286130 0.619770 -0.490816
O2    O     O_R   0.282900 0.672875 0.011125 -0.711174
O3    O     O_2   0.649230 0.223768 0.173170 -0.506240
O4    O     O_R   0.717100 0.327115 0.988877 -0.711172
O5    O     O_R   0.494990 0.713870 0.380230 -0.490816
O6    O     O_R   0.491990 0.256780 0.308370 -0.489235
O7    O     O_R   0.508010 0.743220 0.691630 -0.489236
O8    O     O_R   0.406650 0.514660 0.655750 -0.451930
O9    O     O_R   0.593350 0.485340 0.344250 -0.451931
O10   O     O_R   0.393640 0.485310 0.344340 -0.524661
O11   O     O_R   0.606360 0.514690 0.655660 -0.524661
O12   O     O_2   0.350769 0.776229 0.826835 -0.506239

loop_
_geom_bond_atom_site_label_1
_geom_bond_atom_site_label_2
_ccdc_geom_bond_type
C12   C17   S    
Cu2   O6    S    
C2    C4    A    
Cu1   Cu2   S    
C15   O3    D    
Cu1   O7    S    
Cu2   O10   S    
C5    C7    A    
C10   C19   S    
C9    C20   A    
H14   O2    S    
C12   O7    A    
C3    C13   S    
C6    H9    S    
C18   O10   A    
H5    N8    S    
N5    N6    D    
C5    H8    S    
H3    N7    S    
C2    C21   A    
N2    N4    A    
N1    N3    A    
C1    C16   S    
C17   H13   S    
C19   O11   A    
Cu2   O9    S    
N5    N7    S    
Cu2   O5    S    
C6    C8    A    
C2    H7    S    
C4    C6    A    
C13   N4    A    
C7    H10   S    
C20   C22   A    
C11   N3    A    
C7    C9    A    
H2    O4    S    
C10   C21   A    
C11   N2    A    
C14   O12   D    
C1    O6    A    
H4    N7    S    
C13   N1    A    
Cu1   O1    S    
C18   O8    A    
C14   C20   S    
C9    C18   S    
C15   C21   S    
C12   O5    A    
C8    H11   S    
Cu1   O8    S    
C8    C10   A    
C15   O4    S    
C19   O9    A    
Cu1   O11   S    
Cu2   N5    S    
C1    O1    A    
C3    C22   A    
C14   O2    S    
C3    C5    A    
H6    N8    S    
C16   H12   S    
Cu1   N6    S    
N6    N8    S    
C16   C17   D    
C4    C11   S    
C22   H1    S    
