data_mof_unit_5680.cif
_audit_creation_date              2012-12-10T17:50:31-0500
_audit_creation_method            fapswitch 2.2
_symmetry_space_group_name_H-M    P1
_symmetry_Int_Tables_number       1
_space_group_crystal_system       triclinic
_cell_length_a                    15.71449
_cell_length_b                    10.724398
_cell_length_c                    9.88949
_cell_angle_alpha                 89.153749
_cell_angle_beta                  89.95034
_cell_angle_gamma                 91.699016
_cell_volume                      1665.74453197

loop_
_atom_site_label
_atom_site_type_symbol
_atom_type_description
_atom_site_fract_x
_atom_site_fract_y
_atom_site_fract_z
_atom_type_partial_charge
C1    C     C_R   0.504576 0.259675 0.502080 0.870952
C2    C     C_R   0.482457 0.041735 0.878188 -0.123294
C3    C     C_R   0.437967 0.928657 0.866311 -0.129418
C4    C     C_R   0.337924 0.499468 0.500054 0.892579
C5    C     C_R   0.429922 0.874018 0.739942 -0.146426
C6    C     C_R   0.466409 0.932998 0.623518 0.099750
C7    C     C_R   0.495094 0.057212 0.631518 0.110186
C8    C     C_R   0.506526 0.125471 0.507789 -0.120544
C9    C     C_R   0.506497 0.064346 0.383841 -0.224712
C10   C     C_R   0.495848 0.937446 0.380611 -0.219585
C11   C     C_R   0.478847 0.870929 0.500231 -0.130208
C12   C     C_3   0.082646 0.497941 0.500238 0.210609
C13   C     C_R   0.388700 0.335837 0.142297 -0.227545
C14   C     C_R   0.334835 0.253454 0.073579 -0.360301
C15   C     C_R   0.332910 0.254399 0.931659 0.521892
C16   C     C_R   0.490890 0.738716 0.499576 0.878561
C17   C     C_R   0.388429 0.336623 0.862299 -0.223578
C18   C     C_R   0.444884 0.419475 0.929030 0.072136
C19   C     C_R   0.444937 0.419385 0.073468 0.176762
C20   C     C_R   0.552306 0.577729 0.070256 -0.123631
C21   C     C_R   0.552294 0.577679 0.926967 -0.105215
C22   C     C_R   0.662099 0.500269 0.499966 0.915631
C23   C     C_3   0.974043 0.598697 0.566479 -0.164891
C24   C     C_3   0.969618 0.393707 0.562079 -0.166996
C25   C     C_3   0.026108 0.397644 0.433796 -0.165256
C26   C     C_1   0.248928 0.498687 0.500218 -0.178228
C27   C     C_1   0.751137 0.499640 0.499888 -0.193328
C28   C     C_3   0.027986 0.493996 0.628514 -0.163859
C29   C     C_3   0.207859 0.127704 0.914967 0.095335
C30   C     C_3   0.217769 0.995135 0.971664 -0.338829
C31   C     C_3   0.136483 0.947116 0.041793 -0.985218
C32   C     C_3   0.917464 0.498420 0.500043 0.212343
C33   C     C_3   0.030498 0.602630 0.438207 -0.166155
C34   C     C_3   0.972151 0.502350 0.371768 -0.164358
C35   C     C_1   0.173565 0.498142 0.500284 -0.083110
C36   C     C_1   0.826511 0.499014 0.499927 -0.085110
C37   C     C_R   0.511084 0.105845 0.762265 -0.163070
H1    H     H_    0.049620 0.315507 0.379593 0.129896
H2    H     H_    0.942569 0.308339 0.612706 0.130073
H3    H     H_    0.947170 0.505778 0.266845 0.132287
H4    H     H_    0.057578 0.687979 0.387556 0.133619
H5    H     H_    0.950610 0.680872 0.620693 0.131536
H6    H     H_    0.053032 0.490536 0.733403 0.131933
H7    H     H_    0.516270 0.114184 0.288681 0.173044
H8    H     H_    0.548314 0.190397 0.778395 0.165843
H9    H     H_    0.493333 0.081216 0.977051 0.130730
H10   H     H_    0.158638 0.123685 0.834443 0.157601
H11   H     H_    0.182714 0.192022 0.991873 0.119038
H12   H     H_    0.412291 0.881215 0.955399 0.126037
H13   H     H_    0.232973 0.931854 0.887515 0.228977
H14   H     H_    0.271179 0.992858 0.044947 0.215333
H15   H     H_    0.121216 0.007448 0.128349 0.263193
H16   H     H_    0.145474 0.850697 0.080559 0.267568
H17   H     H_    0.082415 0.945797 0.969491 0.263624
H18   H     H_    0.395200 0.785611 0.734269 0.154974
H19   H     H_    0.502917 0.891469 0.284557 0.168638
H20   H     H_    0.594980 0.641173 0.123134 0.143412
H21   H     H_    0.384595 0.330327 0.249531 0.229909
H22   H     H_    0.295720 0.188876 0.133217 0.159646
H23   H     H_    0.386136 0.331401 0.755135 0.229079
H24   H     H_    0.594935 0.641132 0.871887 0.148907
N1    N     N_R   0.499210 0.498800 0.142780 -0.112245
N2    N     N_R   0.499180 0.498720 0.857170 -0.113086
O1    O     O_R   0.500000 0.316780 0.614690 -0.651954
O2    O     O_R   0.499990 0.316750 0.385360 -0.639603
O3    O     O_R   0.376780 0.500000 0.614650 -0.637710
O4    O     O_R   0.376770 0.499980 0.385310 -0.631317
O5    O     O_R   0.500010 0.683250 0.614640 -0.625633
O6    O     O_R   0.500000 0.683220 0.385310 -0.620460
O7    O     O_R   0.623230 0.500020 0.614690 -0.613120
O8    O     O_R   0.623220 0.500000 0.385350 -0.610040
O9    O     O_3   0.284888 0.170798 0.853781 -0.646037
Zn1   Zn    Zn3+2 0.500010 0.500020 0.653130 0.926897
Zn2   Zn    Zn3+2 0.499990 0.499980 0.346870 0.935539

loop_
_geom_bond_atom_site_label_1
_geom_bond_atom_site_label_2
_ccdc_geom_bond_type
C30   H14   S    
C1    C8    S    
C31   H15   S    
C3    H12   S    
C7    C8    A    
C2    H9    S    
C14   H22   S    
C23   H5    S    
C29   H10   S    
C34   H3    S    
C32   C36   S    
C5    C6    A    
C18   N2    A    
C19   N1    A    
C24   H2    S    
C18   C19   A    
C8    C9    A    
C23   C33   S    
C1    O2    A    
O1    Zn1   S    
C16   O5    A    
C10   H19   S    
C9    C10   A    
C21   H24   S    
C25   C34   S    
C29   O9    S    
C30   H13   S    
C13   C14   A    
C33   C34   S    
C13   C19   A    
C29   H11   S    
C24   C25   S    
C6    C11   A    
C13   H21   S    
N2    Zn1   S    
O5    Zn1   S    
O3    Zn1   S    
O2    Zn2   S    
C32   C34   S    
C24   C32   S    
C29   C30   S    
C15   O9    S    
C25   H1    S    
C4    O4    A    
C11   C16   S    
O7    Zn1   S    
C17   C18   A    
C7    C37   A    
O6    Zn2   S    
O4    Zn2   S    
C23   C28   S    
C31   H16   S    
C12   C35   S    
C12   C28   S    
C22   C27   S    
C37   H8    S    
C1    O1    A    
C22   O8    A    
C15   C17   A    
C9    H7    S    
C5    H18   S    
C16   O6    A    
C24   C28   S    
C3    C5    A    
O8    Zn2   S    
C4    C26   S    
C6    C7    A    
C27   C36   T    
C28   H6    S    
C12   C25   S    
C33   H4    S    
C23   C32   S    
C2    C3    A    
C12   C33   S    
C4    O3    A    
C2    C37   A    
C30   C31   S    
C31   H17   S    
C20   N1    A    
C21   N2    A    
C10   C11   A    
C17   H23   S    
C26   C35   T    
C20   C21   A    
C14   C15   A    
N1    Zn2   S    
C20   H20   S    
C22   O7    A    
