data_mof_unit_47621.cif
_audit_creation_date              2012-12-10T19:02:41-0500
_audit_creation_method            fapswitch 2.2
_symmetry_space_group_name_H-M    P1
_symmetry_Int_Tables_number       1
_space_group_crystal_system       triclinic
_cell_length_a                    9.548132
_cell_length_b                    10.860207
_cell_length_c                    13.884769
_cell_angle_alpha                 90.002582
_cell_angle_beta                  85.255526
_cell_angle_gamma                 90.51189
_cell_volume                      1434.78578775

loop_
_atom_site_label
_atom_site_type_symbol
_atom_type_description
_atom_site_fract_x
_atom_site_fract_y
_atom_site_fract_z
_atom_type_partial_charge
C1    C     C_R   0.500987 0.737727 0.500349 0.828314
C2    C     C_1   0.465802 0.492020 0.785776 -0.181879
C3    C     C_R   0.379791 0.934931 0.486777 -0.015012
C4    C     C_R   0.504634 0.871231 0.495395 -0.204884
C5    C     C_R   0.632286 0.939411 0.494820 0.447358
C6    C     C_R   0.629380 0.067445 0.488119 -0.295825
C7    C     C_R   0.501076 0.129801 0.491581 -0.147912
C8    C     C_R   0.377518 0.061958 0.485856 0.062006
C9    C     C_3   0.239256 0.069121 0.544876 -0.546176
C10   C     C_3   0.240871 0.928180 0.545761 0.328065
C11   C     C_R   0.935753 0.471648 0.418095 0.295843
C12   C     C_R   0.477789 0.498692 0.682890 0.794473
C13   C     C_R   0.916743 0.538490 0.578426 -0.096742
C14   C     C_R   0.065353 0.539125 0.578276 -0.059729
C15   C     C_R   0.083230 0.472575 0.417689 0.228940
C16   C     C_3   0.094168 0.355370 0.361191 -0.273491
C17   C     C_3   0.934426 0.354021 0.362829 -0.554118
C18   C     C_R   0.499683 0.262547 0.498739 0.837886
C19   C     C_R   0.522255 0.501044 0.317061 0.829718
C20   C     C_1   0.534506 0.507957 0.214108 -0.119344
C21   C     C_2   0.550551 0.525675 0.024280 -0.164922
C22   C     C_2   0.450612 0.474444 0.975465 -0.149586
C23   C     C_1   0.457694 0.484472 0.872309 0.001920
C24   C     C_1   0.543064 0.515697 0.127530 0.031909
Cu1   Cu    Cu3+1 0.359330 0.500020 0.500000 0.969390
Cu2   Cu    Cu3+1 0.640670 0.499980 0.500000 0.957697
H1    H     H_    0.363947 0.423306 0.012469 0.163547
H2    H     H_    0.112960 0.569848 0.642120 0.160296
H3    H     H_    0.136559 0.278224 0.402137 0.159894
H4    H     H_    0.892371 0.366436 0.291145 0.221880
H5    H     H_    0.884868 0.277167 0.406524 0.198367
H6    H     H_    0.637711 0.576191 0.987082 0.155114
H7    H     H_    0.727954 0.117643 0.487077 0.173876
H8    H     H_    0.246487 0.116440 0.615136 0.187971
H9    H     H_    0.155810 0.105850 0.502072 0.170400
H10   H     H_    0.158525 0.887858 0.502830 0.131867
H11   H     H_    0.854360 0.568082 0.642585 0.136951
N1    N     N_R   0.852140 0.499070 0.499400 -0.184594
N2    N     N_R   0.148050 0.499110 0.499400 -0.205803
O1    O     O_R   0.381190 0.680360 0.500000 -0.557413
O2    O     O_R   0.618770 0.680320 0.499990 -0.552550
O3    O     O_R   0.364410 0.500000 0.637850 -0.580985
O4    O     O_R   0.602000 0.499960 0.637840 -0.589625
O5    O     O_R   0.381230 0.319680 0.500010 -0.577539
O6    O     O_R   0.618810 0.319640 0.500000 -0.592442
O7    O     O_R   0.398000 0.500040 0.362160 -0.570886
O8    O     O_R   0.635590 0.500000 0.362150 -0.575364
C25   C     C_2   0.166283 0.373236 0.261579 0.917727
O9    O     O_2   0.255579 0.300117 0.230596 -0.606854
O10   O     O_R   0.131438 0.473224 0.204980 -0.765647
H12   H     H_    0.187384 0.475400 0.139767 0.321330
O11   O     O_3   0.760986 0.883517 0.500819 -0.590061
C26   C     C_3   0.785754 0.865951 0.599176 0.093396
H13   H     H_    0.861809 0.789697 0.601445 0.176409
H14   H     H_    0.689656 0.836561 0.644891 0.114115
C27   C     C_3   0.851189 0.980984 0.642084 -0.398443
H15   H     H_    0.938705 0.015721 0.591494 0.234034
H16   H     H_    0.771046 0.054245 0.652824 0.207857
C28   C     C_3   0.907099 0.952998 0.739509 -0.881081
H17   H     H_    0.820134 0.922175 0.792266 0.248894
H18   H     H_    0.955944 0.037336 0.767758 0.256062
H19   H     H_    0.987667 0.879826 0.731784 0.280985
O12   O     O_3   0.243301 0.865947 0.636171 -0.599654
C29   C     C_3   0.325835 0.922960 0.704109 0.061862
H20   H     H_    0.258409 0.986500 0.749943 0.154631
H21   H     H_    0.417585 0.975355 0.670292 0.138680
C30   C     C_3   0.381364 0.823322 0.768176 -0.328917
H22   H     H_    0.291872 0.769370 0.803518 0.230186
H23   H     H_    0.449026 0.759915 0.722553 0.199930
C31   C     C_3   0.467194 0.878600 0.845658 -0.923174
H24   H     H_    0.557207 0.932961 0.811731 0.250668
H25   H     H_    0.508536 0.803512 0.889304 0.263163
H26   H     H_    0.400363 0.939259 0.894312 0.267041

loop_
_geom_bond_atom_site_label_1
_geom_bond_atom_site_label_2
_ccdc_geom_bond_type
Cu1   O3    S    
C8    C9    S    
C11   N1    A    
C10   H10   S    
C30   C31   S    
C5    O11   S    
C31   H24   S    
Cu2   N1    S    
C18   O5    A    
C9    C10   S    
C13   H11   S    
C19   C20   S    
C1    O1    A    
C6    H7    S    
C7    C18   S    
C2    C12   S    
C29   H20   S    
C16   C25   S    
C31   H26   S    
C25   O10   S    
O10   H12   S    
C14   N2    A    
C19   O7    A    
C28   H17   S    
C3    C10   S    
C26   H13   S    
Cu1   N2    S    
C26   C27   S    
C17   H4    S    
C15   N2    A    
C13   N1    A    
C6    C7    A    
Cu2   O8    S    
C5    C6    A    
Cu1   O5    S    
C1    O2    A    
C25   O9    D    
Cu1   Cu2   S    
C27   H16   S    
Cu2   O4    S    
C12   O4    A    
C22   H1    S    
C26   H14   S    
Cu1   O1    S    
C9    H8    S    
C17   H5    S    
C21   H6    S    
C19   O8    A    
C28   H18   S    
C1    C4    S    
C31   H25   S    
C29   C30   S    
C30   H22   S    
C18   O6    A    
C20   C24   T    
C7    C8    A    
C16   C17   S    
C27   H15   S    
C3    C8    A    
C21   C24   S    
C2    C23   T    
C9    H9    S    
C27   C28   S    
C22   C23   S    
C4    C5    A    
C28   H19   S    
C12   O3    A    
Cu2   O6    S    
C14   H2    S    
C16   H3    S    
C21   C22   D    
C11   C15   A    
Cu1   O7    S    
C10   O12   S    
C11   C17   S    
C3    C4    A    
C15   C16   S    
Cu2   O2    S    
O11   C26   S    
O12   C29   S    
C30   H23   S    
C13   C14   A    
C29   H21   S    
