data_mof_unit_67813.cif
_audit_creation_date              2013-03-05T15:41:23-0500
_audit_creation_method            fapswitch 2.2
_symmetry_space_group_name_H-M    P1
_symmetry_Int_Tables_number       1
_space_group_crystal_system       triclinic
_cell_length_a                    8.129674
_cell_length_b                    8.699403
_cell_length_c                    10.900566
_cell_angle_alpha                 93.197712
_cell_angle_beta                  83.458988
_cell_angle_gamma                 93.121843
_cell_volume                      763.813541727

loop_
_atom_site_label
_atom_site_type_symbol
_atom_site_description
_atom_site_fract_x
_atom_site_fract_y
_atom_site_fract_z
_atom_type_partial_charge
O1    O     O_R   0.389250 0.738570 0.508370 -0.583914
O2    O     O_R   0.678390 0.711620 0.486510 -0.575449
C1    C     C_R   0.543787 0.792190 0.500083 0.947696
O3    O     O_R   0.355430 0.513500 0.696140 -0.631976
O4    O     O_R   0.644580 0.486550 0.674270 -0.536933
C2    C     C_R   0.500623 0.512003 0.740822 0.887773
Zn1   Zn    Zn3+2 0.306940 0.517990 0.514600 1.170235
Zn2   Zn    Zn3+2 0.693060 0.482010 0.485400 1.208567
O5    O     O_R   0.321610 0.288380 0.513490 -0.571626
O6    O     O_R   0.610750 0.261430 0.491630 -0.623311
O7    O     O_R   0.355420 0.513450 0.325730 -0.602497
O8    O     O_R   0.644570 0.486500 0.303860 -0.521237
C3    C     C_R   0.456608 0.207001 0.503688 0.924330
C4    C     C_R   0.502042 0.505614 0.259430 0.916140
C5    C     C_3   0.366041 0.640165 0.944666 -0.370287
C6    C     C_3   0.348591 0.615782 0.092130 0.072123
H1    H     H_    0.318168 0.350993 0.927884 0.124861
C7    C     C_3   0.452940 0.355953 0.925246 0.054638
C8    C     C_3   0.682490 0.587521 0.915192 0.011339
C9    C     C_3   0.502114 0.524572 0.878719 -0.313864
C10   C     C_3   0.503658 0.514160 0.122615 -0.260925
C11   C     C_3   0.483372 0.336838 0.064199 -0.038045
C12   C     C_3   0.671740 0.602944 0.063843 -0.284046
C13   C     C_2   0.568596 0.954211 0.505915 -0.264884
C14   C     C_2   0.437522 0.042932 0.504742 -0.228834
H2    H     H_    0.312179 0.993447 0.502344 0.244966
N1    N     N_2   0.950330 0.457950 0.465890 0.081540
N2    N     N_2   0.049670 0.542050 0.534110 0.079065
C15   C     C_2   0.195680 0.611091 0.898694 0.412221
H3    H     H_    0.139708 0.496522 0.891016 0.085803
O9    O     O_2   0.119089 0.715794 0.867075 -0.420020
C16   C     C_2   0.834727 0.553026 0.096748 0.513606
H4    H     H_    0.938546 0.634654 0.079240 0.121993
O10   O     O_2   0.857267 0.425105 0.128633 -0.481630
N3    N     N_R   0.494929 0.224995 0.836501 0.256406
O11   O     O_R   0.375168 0.135073 0.799287 -0.322706
O12   O     O_R   0.641263 0.214097 0.775988 -0.312729
N4    N     N_R   0.623964 0.240707 0.081197 0.252900
O13   O     O_R   0.645651 0.206657 0.193115 -0.339703
O14   O     O_R   0.689775 0.149205 0.993186 -0.258546
C17   C     C_2   0.741948 0.009065 0.512036 0.714380
H5    H     H_    0.817308 0.038325 0.427656 0.153006
O15   O     O_2   0.802198 0.010329 0.609500 -0.381883
N5    N     N_R   0.001421 0.310095 0.438501 0.272134
O16   O     O_R   0.993859 0.248587 0.327755 -0.318641
O17   O     O_R   0.019224 0.222863 0.528425 -0.332249
N6    N     N_R   0.015988 0.697093 0.541499 0.328662
O18   O     O_R   0.005109 0.765757 0.439875 -0.307549
O19   O     O_R   0.055575 0.781377 0.636779 -0.222025
C18   C     C_2   0.415560 0.803468 0.900271 0.724443
H6    H     H_    0.431224 0.818924 0.801405 0.102916
O20   O     O_2   0.425146 0.918905 0.967569 -0.467180
N7    N     N_R   0.327069 0.767833 0.161235 0.261166
O21   O     O_R   0.201484 0.846871 0.141780 -0.223160
O22   O     O_R   0.389783 0.801351 0.264242 -0.377403
C19   C     C_2   0.189002 0.525301 0.135217 0.387301
H7    H     H_    0.144401 0.428889 0.080795 0.076153
O23   O     O_2   0.105384 0.561190 0.232090 -0.439891
C20   C     C_2   0.337240 0.242547 0.130763 0.500146
H8    H     H_    0.323077 0.240081 0.230744 0.102187
O24   O     O_2   0.239955 0.162181 0.074467 -0.410552
C21   C     C_2   0.812696 0.471939 0.861741 0.535602
H9    H     H_    0.823971 0.365544 0.904257 0.155155
O25   O     O_2   0.910358 0.498516 0.771199 -0.497411
N8    N     N_R   0.738970 0.737769 0.859124 0.211310
O26   O     O_R   0.843878 0.833039 0.909133 -0.252851
O27   O     O_R   0.719532 0.760484 0.745104 -0.344753
C22   C     C_2   0.675446 0.769379 0.120322 0.555271
H10   H     H_    0.633659 0.863138 0.075025 0.195964
O28   O     O_2   0.724286 0.801283 0.221344 -0.523289

loop_
_geom_bond_atom_site_label_1
_geom_bond_atom_site_label_2
_geom_bond_distance
_ccdc_geom_bond_type
C12   C22   1.541536 S    
O4    Zn2   2.050188 S    
C8    C12   1.611229 S    
C13   C14   1.350982 D    
C6    C19   1.521391 S    
N2    N6    1.387000 S    
C8    N8    1.500875 S    
C21   H9    1.070819 S    
C19   O23   1.223706 D    
C2    C9    1.502416 S    
C7    N3    1.481363 S    
Zn1   O7    2.050187 S    
N6    O18   1.301407 A    
Zn2   O8    2.064208 S    
N1    N2    1.323728 D    
C16   H4    1.079904 S    
C10   C12   1.617087 S    
H1    C7    1.091306 S    
C20   H8    1.084081 S    
C15   O9    1.217305 D    
O1    Zn1   1.999736 S    
N7    O21   1.304675 A    
C12   C16   1.503756 S    
N4    O14   1.297889 A    
C13   C17   1.470680 S    
C17   O15   1.218773 D    
C3    C14   1.427828 S    
C1    C13   1.411851 S    
C15   H3    1.075826 S    
O3    Zn1   2.064209 S    
O6    C3    1.310189 A    
C4    C10   1.495877 S    
Zn2   O6    1.999734 S    
N3    O12   1.298416 A    
O8    C4    1.327638 A    
C10   C11   1.642831 S    
C5    C15   1.529411 S    
O2    C1    1.321252 A    
N7    O22   1.297473 A    
O4    C2    1.327342 A    
O7    C4    1.324718 A    
C20   O24   1.222035 D    
O3    C2    1.328175 A    
N8    O27   1.297808 A    
C19   H7    1.071091 S    
C8    C21   1.543061 S    
C5    C6    1.622277 S    
C11   N4    1.486513 S    
C11   C20   1.540962 S    
N4    O13   1.304671 A    
N5    O16   1.299479 A    
C7    C9    1.594279 S    
N6    O19   1.298218 A    
N8    O26   1.299985 A    
C17   H5    1.080232 S    
C5    C18   1.544179 S    
C18   O20   1.214506 D    
Zn1   O5    2.006783 S    
C22   O28   1.225085 D    
O5    C3    1.329120 A    
C6    N7    1.493897 S    
Zn2   N1    2.098779 S    
C21   O25   1.218546 D    
C18   H6    1.085701 S    
C14   H2    1.086917 S    
C7    C11   1.581457 S    
C6    C10   1.652519 S    
N1    N5    1.379558 S    
C22   H10   1.066682 S    
O2    Zn2   2.006783 S    
Zn1   N2    2.098780 S    
C8    C9    1.621516 S    
N5    O17   1.298059 A    
C5    C9    1.615873 S    
O1    C1    1.311158 A    
N3    O11   1.302328 A    
C16   O10   1.213528 D    
