data_mof_unit_36132.cif
_audit_creation_date              2012-12-11T16:30:36-0500
_audit_creation_method            fapswitch 2.2
_symmetry_space_group_name_H-M    P1
_symmetry_Int_Tables_number       1
_space_group_crystal_system       triclinic
_cell_length_a                    6.936409
_cell_length_b                    14.426485
_cell_length_c                    16.086006
_cell_angle_alpha                 90.026534
_cell_angle_beta                  90.062616
_cell_angle_gamma                 89.308995
_cell_volume                      1609.57626607

loop_
_atom_site_label
_atom_site_type_symbol
_atom_type_description
_atom_site_fract_x
_atom_site_fract_y
_atom_site_fract_z
_atom_type_partial_charge
O1    O     O_R   0.611670 0.415650 0.164070 -0.538105
O2    O     O_R   0.388330 0.915650 0.835930 -0.542439
O3    O     O_R   0.940950 0.405490 0.337780 -0.533667
O4    O     O_R   0.059050 0.905490 0.662220 -0.532367
O5    O     O_R   0.111350 0.584350 0.338470 -0.521741
O6    O     O_R   0.888650 0.084350 0.661530 -0.531822
C1    C     C_R   0.772895 0.384074 0.367770 0.674752
C2    C     C_R   0.228418 0.882834 0.633213 0.671542
O7    O     O_R   0.941380 0.404630 0.164680 -0.544075
O8    O     O_R   0.058620 0.904630 0.835320 -0.541173
O9    O     O_R   0.111780 0.583470 0.164130 -0.524946
O10   O     O_R   0.888220 0.083470 0.835870 -0.532307
C3    C     C_R   0.773728 0.381443 0.136990 0.691016
C4    C     C_R   0.229043 0.881612 0.862944 0.691670
O11   O     O_R   0.611240 0.416530 0.338400 -0.543163
O12   O     O_R   0.388760 0.916530 0.661600 -0.540469
O13   O     O_3   0.778020 0.558680 0.251290 -0.345884
O14   O     O_3   0.221980 0.058680 0.748710 -0.345704
V1    V     V_3+5 0.052840 0.489110 0.251260 1.463194
V2    V     V_3+5 0.947160 0.989110 0.748740 1.460926
O15   O     O_R   0.441500 0.594510 0.164760 -0.533618
O16   O     O_R   0.558500 0.094510 0.835240 -0.524934
C5    C     C_R   0.270052 0.620383 0.139027 0.739507
C6    C     C_R   0.725689 0.121534 0.860194 0.734607
O17   O     O_R   0.441080 0.595370 0.337860 -0.542422
O18   O     O_R   0.558920 0.095370 0.662140 -0.531970
C7    C     C_R   0.272178 0.616883 0.367862 0.715591
C8    C     C_R   0.727351 0.118320 0.633047 0.708688
V3    V     V_3+5 0.552850 0.510890 0.251270 1.459312
V4    V     V_3+5 0.447150 0.010890 0.748730 1.465343
O19   O     O_3   0.277800 0.441320 0.251250 -0.372045
O20   O     O_3   0.722200 0.941320 0.748750 -0.370491
C9    C     C_3   0.049245 0.706188 0.465744 -0.308160
C10   C     C_3   0.951571 0.217035 0.545556 -0.305727
H1    H     H_    0.956426 0.720878 0.411225 0.200012
H2    H     H_    0.021208 0.238916 0.604563 0.187912
H3    H     H_    0.990149 0.642629 0.494946 0.148547
H4    H     H_    0.033778 0.155211 0.522985 0.142812
C11   C     C_3   0.035452 0.787286 0.528427 0.031026
C12   C     C_3   0.964674 0.295196 0.479698 0.022597
H5    H     H_    0.940103 0.766036 0.580476 0.112704
H6    H     H_    0.069323 0.272929 0.431012 0.114138
H7    H     H_    0.270698 0.813726 0.362687 0.183729
H8    H     H_    0.688588 0.314099 0.638444 0.175510
H9    H     H_    0.315096 0.919359 0.469551 0.161935
H10   H     H_    0.659589 0.419152 0.530027 0.164728
C13   C     C_3   0.354687 0.780975 0.413683 -0.305187
C14   C     C_3   0.623687 0.279973 0.583255 -0.301712
C15   C     C_3   0.371992 0.652495 0.517612 -0.326697
C16   C     C_3   0.654211 0.151158 0.480167 -0.322147
C17   C     C_3   0.261977 0.687354 0.439078 0.071138
C18   C     C_3   0.738435 0.189800 0.562464 0.053863
H11   H     H_    0.529047 0.647064 0.503972 0.156040
H12   H     H_    0.497545 0.137713 0.487854 0.150827
H13   H     H_    0.324391 0.582272 0.535243 0.173487
H14   H     H_    0.724357 0.084418 0.464380 0.179597
C19   C     C_3   0.239664 0.811952 0.562440 0.068774
C20   C     C_3   0.763154 0.314230 0.439187 0.070824
C21   C     C_3   0.361941 0.848697 0.488916 -0.283247
C22   C     C_3   0.623107 0.348320 0.508478 -0.284914
C23   C     C_3   0.338705 0.720177 0.592083 -0.378312
C24   C     C_3   0.684700 0.220182 0.407134 -0.377350
H15   H     H_    0.246124 0.686129 0.639111 0.138806
H16   H     H_    0.788548 0.189379 0.362016 0.135710
H17   H     H_    0.479380 0.734833 0.622376 0.155784
H18   H     H_    0.545703 0.230999 0.373709 0.152550
H19   H     H_    0.503562 0.769048 0.389950 0.174162
H20   H     H_    0.471940 0.262846 0.598296 0.186925
H21   H     H_    0.512725 0.854810 0.510333 0.183979
H22   H     H_    0.475101 0.353016 0.482343 0.177380
H23   H     H_    0.198459 0.561445 0.758565 0.143018
H24   H     H_    0.838496 0.060855 0.238351 0.140357
C25   C     C_R   0.299142 0.941763 0.031403 -0.151487
C26   C     C_R   0.764845 0.443664 0.967184 -0.147992
C27   C     C_R   0.298418 0.975094 0.112604 -0.129130
C28   C     C_R   0.730373 0.477869 0.887755 -0.126215
C29   C     C_R   0.241678 0.917536 0.177084 -0.126910
C30   C     C_R   0.656393 0.419867 0.827089 -0.123770
C31   C     C_R   0.199915 0.824611 0.161441 0.093301
C32   C     C_R   0.627414 0.325985 0.843890 0.095035
C33   C     C_R   0.241405 0.785113 0.082703 0.051220
C34   C     C_R   0.699380 0.286071 0.918874 0.050810
C35   C     C_R   0.264382 0.847078 0.014835 0.043249
C36   C     C_R   0.745367 0.348175 0.984688 0.045634
C37   C     C_R   0.251438 0.687633 0.068636 -0.168747
C38   C     C_R   0.726456 0.188556 0.931214 -0.167708
C39   C     C_R   0.244419 0.654161 0.985653 0.057551
C40   C     C_R   0.762709 0.154892 0.012896 0.059970
C41   C     C_R   0.233176 0.717637 0.917828 0.075143
C42   C     C_R   0.777692 0.217888 0.080855 0.074350
C43   C     C_R   0.244069 0.814261 0.932530 -0.171776
C44   C     C_R   0.768236 0.314649 0.066619 -0.171197
C45   C     C_R   0.242062 0.557944 0.968649 -0.151268
C46   C     C_R   0.777201 0.058574 0.029081 -0.152673
C47   C     C_R   0.224849 0.525373 0.887469 -0.093677
C48   C     C_R   0.803776 0.025490 0.109694 -0.091493
C49   C     C_R   0.211747 0.587316 0.821472 -0.135545
C50   C     C_R   0.817587 0.087039 0.175881 -0.131238
C51   C     C_R   0.216290 0.682500 0.836167 -0.155933
C52   C     C_R   0.804923 0.182266 0.161919 -0.158000
H25   H     H_    0.326857 0.990804 0.982107 0.124090
H26   H     H_    0.809246 0.492507 0.014378 0.117635
H27   H     H_    0.325041 0.047704 0.124496 0.139594
H28   H     H_    0.746754 0.551064 0.875119 0.139265
H29   H     H_    0.212089 0.947554 0.237518 0.144098
H30   H     H_    0.604590 0.450064 0.769498 0.143521
H31   H     H_    0.250600 0.506855 0.017787 0.111238
H32   H     H_    0.764689 0.007643 0.980041 0.111800
H33   H     H_    0.220426 0.451587 0.875855 0.162441
H34   H     H_    0.812793 0.951594 0.120825 0.159376
H35   H     H_    0.207126 0.728287 0.783075 0.084564
H36   H     H_    0.817585 0.227702 0.215085 0.086839
I1    I     I_    0.972600 0.773947 0.235297 -0.453506
I2    I     I_    0.384783 0.274145 0.779425 -0.455079
I3    I     I_    0.896990 0.904567 0.469079 -0.573519
I4    I     I_    0.083108 0.417667 0.536625 -0.582090

loop_
_geom_bond_atom_site_label_1
_geom_bond_atom_site_label_2
_ccdc_geom_bond_type
C28   H28   S    
C20   C24   S    
O13   V3    S    
O4    C2    A    
V1    O19   S    
C11   H5    S    
H24   C50   S    
H23   C49   S    
C46   H32   S    
C9    C11   S    
C26   C28   A    
C41   C51   A    
C10   C12   S    
C28   C30   A    
O3    C1    A    
C30   C32   A    
C19   C21   S    
C20   C22   S    
C11   C19   S    
C38   C40   A    
C6    C38   S    
C42   C52   A    
C23   H15   S    
O7    C3    A    
O9    V1    S    
C24   H16   S    
C33   C35   A    
O5    C7    A    
O7    V1    S    
O6    C8    A    
O8    V2    S    
C15   C17   S    
C48   C50   A    
C16   C18   S    
O3    V1    S    
O14   V4    S    
C41   C43   A    
H7    C13   S    
C1    C20   S    
C10   H2    S    
C26   H26   S    
C14   C22   S    
C1    O11   A    
C2    O12   A    
C27   H27   S    
C25   C27   A    
C13   H19   S    
O18   C8    A    
C49   C51   A    
C7    C17   S    
O11   V3    S    
C29   C31   A    
O17   V3    S    
C40   C46   A    
C15   C23   S    
C24   H18   S    
C37   C39   A    
C12   C20   S    
C32   C34   A    
C47   H33   S    
C26   C36   A    
C31   C33   A    
O13   V1    S    
C13   C17   S    
C34   C38   A    
O15   V3    S    
C16   H14   S    
C9    C17   S    
C2    C19   S    
C42   C44   A    
C22   H22   S    
C51   H35   S    
O10   V2    S    
O1    V3    S    
C16   H12   S    
C14   H20   S    
C46   C48   A    
C27   C29   A    
C21   H21   S    
C40   C42   A    
C52   H36   S    
C34   C36   A    
C31   I1    S    
C3    C44   S    
O8    C4    A    
C16   C24   S    
O16   C6    A    
O1    C3    A    
O6    V2    S    
V2    O20   S    
H9    C21   S    
C25   H25   S    
O16   V4    S    
H10   C22   S    
C10   H4    S    
C10   C18   S    
C32   I2    S    
C12   H6    S    
C47   C49   A    
C19   C23   S    
O5    V1    S    
O17   C7    A    
C35   C43   A    
O10   C6    A    
C11   I3    S    
C29   H29   S    
O2    V4    S    
C30   H30   S    
O15   C5    A    
V3    O19   S    
C15   H13   S    
C45   H31   S    
V4    O20   S    
C8    C18   S    
C12   I4    S    
C48   H34   S    
C15   H11   S    
C39   C45   A    
O9    C5    A    
C9    H1    S    
O14   V2    S    
O2    C4    A    
C50   C52   A    
C9    H3    S    
C4    C43   S    
C13   C21   S    
O4    V2    S    
C23   H17   S    
C14   C18   S    
C45   C47   A    
C5    C37   S    
C39   C41   A    
C36   C44   A    
O12   V4    S    
C25   C35   A    
C33   C37   A    
H8    C14   S    
O18   V4    S    
