data_mof_unit_46597.cif
_audit_creation_date              2012-12-10T19:11:28-0500
_audit_creation_method            fapswitch 2.2
_symmetry_space_group_name_H-M    P1
_symmetry_Int_Tables_number       1
_space_group_crystal_system       triclinic
_cell_length_a                    10.675475
_cell_length_b                    9.839652
_cell_length_c                    10.48717
_cell_angle_alpha                 90.250372
_cell_angle_beta                  85.21781
_cell_angle_gamma                 90.728919
_cell_volume                      1097.67360081

loop_
_atom_site_label
_atom_site_type_symbol
_atom_type_description
_atom_site_fract_x
_atom_site_fract_y
_atom_site_fract_z
_atom_type_partial_charge
C1    C     C_R   0.258201 0.499186 0.507419 0.812860
C2    C     C_3   0.491776 0.498571 0.123359 -0.027085
C3    C     C_3   0.068184 0.605644 0.610791 -0.477720
C4    C     C_3   0.068236 0.356276 0.555692 -0.377110
C5    C     C_3   0.926440 0.621502 0.598624 -0.139610
C6    C     C_3   0.923474 0.359638 0.567163 -0.171531
C7    C     C_3   0.083730 0.530169 0.378428 -0.448234
C8    C     C_3   0.122079 0.497755 0.513268 0.168217
C9    C     C_3   0.878592 0.499951 0.516422 0.051356
C10   C     C_3   0.941034 0.517924 0.377806 -0.426010
C11   C     C_3   0.371681 0.078664 0.526228 -0.357254
C12   C     C_3   0.370761 0.917902 0.517577 -0.379386
C13   C     C_3   0.548963 0.082571 0.367374 0.327057
C14   C     C_3   0.557039 0.917911 0.369767 0.349948
C15   C     C_3   0.580422 0.081470 0.592378 -0.295579
C16   C     C_3   0.570409 0.921455 0.600734 -0.242292
C17   C     C_R   0.494519 0.499601 0.258188 0.962036
C18   C     C_R   0.741710 0.500481 0.507630 0.971629
C19   C     C_R   0.496521 0.500188 0.742653 0.903850
C20   C     C_3   0.399939 0.580151 0.050883 -0.222085
C21   C     C_3   0.472141 0.371461 0.042736 -0.145443
C22   C     C_3   0.380711 0.453191 0.967052 -0.231326
C23   C     C_3   0.493402 0.500490 0.878277 0.020897
C24   C     C_3   0.512501 0.627540 0.959196 -0.085699
C25   C     C_3   0.584569 0.418658 0.951283 -0.098556
C26   C     C_3   0.603992 0.545623 0.034269 -0.065093
H1    H     H_    0.290046 0.415768 0.934612 0.153754
H2    H     H_    0.907330 0.610198 0.332205 0.242980
H3    H     H_    0.919055 0.429435 0.317517 0.221571
H4    H     H_    0.306566 0.119578 0.458866 0.167943
H5    H     H_    0.313962 0.884654 0.438552 0.161887
H6    H     H_    0.333780 0.111015 0.623556 0.185834
H7    H     H_    0.322196 0.875095 0.606745 0.186431
H8    H     H_    0.475757 0.105173 0.300957 0.027357
H9    H     H_    0.496578 0.881487 0.294837 0.043056
H10   H     H_    0.680012 0.111903 0.567561 0.187153
H11   H     H_    0.664776 0.876444 0.600600 0.208115
H12   H     H_    0.553715 0.125715 0.688333 0.168841
H13   H     H_    0.522774 0.893067 0.695526 0.154565
H14   H     H_    0.324827 0.645519 0.096617 0.140986
H15   H     H_    0.455539 0.267111 0.080871 0.171067
H16   H     H_    0.529283 0.732050 0.921479 0.153734
H17   H     H_    0.659602 0.351820 0.908368 0.179687
H18   H     H_    0.696162 0.582099 0.063294 0.187025
H19   H     H_    0.114770 0.706601 0.593905 0.169089
H20   H     H_    0.099785 0.278266 0.483001 0.169423
H21   H     H_    0.087004 0.573572 0.709124 0.184077
H22   H     H_    0.106797 0.325290 0.646363 0.199186
H23   H     H_    0.915681 0.716286 0.544270 0.184440
H24   H     H_    0.892581 0.277259 0.503532 0.173836
H25   H     H_    0.114954 0.635158 0.350519 0.189433
H26   H     H_    0.129366 0.459077 0.306266 0.171696
N1    N     N_3   0.499750 0.138610 0.497240 -0.107023
N2    N     N_3   0.499750 0.861390 0.497240 -0.110662
O1    O     O_R   0.314910 0.616040 0.499970 -0.648460
O2    O     O_R   0.314910 0.383960 0.499970 -0.652026
O3    O     O_R   0.500080 0.616020 0.313900 -0.584750
O4    O     O_R   0.500080 0.383980 0.313900 -0.569373
O5    O     O_R   0.685320 0.616040 0.499930 -0.537512
O6    O     O_R   0.685320 0.383960 0.499930 -0.590374
O7    O     O_R   0.500150 0.616060 0.686000 -0.627899
O8    O     O_R   0.500150 0.383940 0.686000 -0.654120
Zn1   Zn    Zn3+2 0.500150 0.654960 0.499940 0.986096
Zn2   Zn    Zn3+2 0.500150 0.345040 0.499940 0.966145
S1    S     S_3+6 0.689974 0.166419 0.281975 0.065011
O9    O     O_2   0.808790 0.116229 0.331386 -0.265945
O10   O     O_2   0.683409 0.125368 0.144354 -0.303056
O11   O     O_3   0.713616 0.334507 0.271302 -0.548351
H27   H     H_    0.761800 0.350668 0.187714 0.357567
S2    S     S_3+6 0.713367 0.845110 0.313299 0.056400
O12   O     O_2   0.805023 0.867269 0.412544 -0.360044
O13   O     O_2   0.709315 0.697624 0.281903 -0.340701
O14   O     O_3   0.778047 0.907208 0.173998 -0.460674
H28   H     H_    0.866280 0.876008 0.167168 0.370893
C27   C     C_2   0.858729 0.648426 0.728527 0.397278
H29   H     H_    0.893545 0.728637 0.788082 0.077471
O15   O     O_2   0.764989 0.584812 0.767611 -0.620552
C28   C     C_2   0.865565 0.323763 0.699821 0.458385
H30   H     H_    0.769764 0.285218 0.710924 0.056622
O16   O     O_2   0.923115 0.338377 0.794968 -0.571347

loop_
_geom_bond_atom_site_label_1
_geom_bond_atom_site_label_2
_ccdc_geom_bond_type
C7    C10   S    
C1    C8    S    
C24   H16   S    
O14   H28   S    
C4    C8    S    
C25   H17   S    
C6    C9    S    
C26   H18   S    
C7    C8    S    
C4    H20   S    
C15   N1    S    
C1    O2    A    
C24   C26   S    
C7    H26   S    
C20   H14   S    
N1    Zn2   S    
C28   O16   D    
C6    C28   S    
N2    Zn1   S    
C19   O8    A    
C15   C16   S    
O7    Zn1   S    
O8    Zn2   S    
C20   C24   S    
C11   H4    S    
O11   H27   S    
S1    O10   D    
O1    Zn1   S    
C23   C24   S    
O2    Zn2   S    
S2    O12   D    
C9    C10   S    
C11   N1    S    
C16   H11   S    
C21   C22   S    
C2    C17   S    
C14   S2    S    
C5    H23   S    
S2    O14   S    
O3    Zn1   S    
C13   N1    S    
O4    Zn2   S    
C2    C20   S    
C4    C6    S    
C3    C8    S    
C14   H9    S    
C28   H30   S    
C13   S1    S    
C25   C26   S    
C3    H19   S    
C5    C27   S    
C19   C23   S    
C27   H29   S    
C15   H12   S    
C5    C9    S    
C9    C18   S    
S1    O11   S    
C2    C21   S    
C2    C26   S    
C6    H24   S    
C27   O15   D    
C21   H15   S    
C18   O6    A    
C14   N2    S    
C20   C22   S    
C11   H6    S    
C22   H1    S    
C12   H5    S    
C15   H10   S    
C4    H22   S    
C10   H2    S    
C21   C25   S    
C3    C5    S    
C11   C12   S    
C17   O4    A    
O5    Zn1   S    
O6    Zn2   S    
C1    O1    A    
C7    H25   S    
C13   H8    S    
C10   H3    S    
C19   O7    A    
C3    H21   S    
C23   C25   S    
C16   N2    S    
C16   H13   S    
C18   O5    A    
S1    O9    D    
C22   C23   S    
S2    O13   D    
C12   H7    S    
C13   C14   S    
C12   N2    S    
C17   O3    A    
