data_mof_unit_11468.cif
_audit_creation_date              2012-12-10T18:00:17-0500
_audit_creation_method            fapswitch 2.2
_symmetry_space_group_name_H-M    P1
_symmetry_Int_Tables_number       1
_space_group_crystal_system       triclinic
_cell_length_a                    10.783882
_cell_length_b                    9.548484
_cell_length_c                    10.654144
_cell_angle_alpha                 89.694269
_cell_angle_beta                  90.794873
_cell_angle_gamma                 90.673798
_cell_volume                      1096.85817282

loop_
_atom_site_label
_atom_site_type_symbol
_atom_type_description
_atom_site_fract_x
_atom_site_fract_y
_atom_site_fract_z
_atom_type_partial_charge
C1    C     C_R   0.871395 0.501809 0.499381 -0.375358
C2    C     C_R   0.128609 0.498207 0.500650 -0.375423
C3    C     C_R   0.262444 0.499295 0.499992 0.963931
C4    C     C_R   0.737557 0.500708 0.500030 0.963817
C5    C     C_R   0.497933 0.500341 0.259496 0.914626
C6    C     C_R   0.502069 0.499660 0.740504 0.914612
C7    C     C_3   0.466407 0.626317 0.037703 0.467384
C8    C     C_3   0.533598 0.373684 0.962297 0.467399
C9    C     C_3   0.581757 0.595287 0.960932 0.460369
C10   C     C_3   0.418248 0.404714 0.039069 0.460409
C11   C     C_3   0.383929 0.530587 0.954006 -0.456098
C12   C     C_3   0.616075 0.469415 0.045994 -0.456154
C13   C     C_3   0.501353 0.499036 0.876920 -0.236618
C14   C     C_3   0.498651 0.500964 0.123080 -0.236603
C15   C     C_R   0.467197 0.074186 0.394661 -0.076960
C16   C     C_R   0.532796 0.925814 0.605341 -0.076988
C17   C     C_R   0.533607 0.074017 0.605064 -0.028408
C18   C     C_R   0.466391 0.925983 0.394937 -0.028413
C19   C     C_R   0.062325 0.434557 0.401294 0.350096
C20   C     C_R   0.937683 0.565490 0.598726 0.350124
C21   C     C_R   0.932830 0.436768 0.400301 0.351429
C22   C     C_R   0.067180 0.563276 0.599719 0.351438
Cu1   Cu    Cu3+1 0.500000 0.640660 0.500000 0.960367
Cu2   Cu    Cu3+1 0.500000 0.359340 0.500000 0.960305
H1    H     H_    0.441587 0.128730 0.309393 0.145427
H2    H     H_    0.558403 0.871272 0.690613 0.145432
H3    H     H_    0.561740 0.128626 0.689301 0.184398
H4    H     H_    0.438258 0.871374 0.310701 0.184395
H5    H     H_    0.291123 0.554727 0.913783 0.211135
H6    H     H_    0.708882 0.445274 0.086214 0.211121
N1    N     N_R   0.500000 0.852070 0.500000 -0.168033
N2    N     N_R   0.500000 0.147930 0.500000 -0.168045
O1    O     O_R   0.319640 0.618740 0.499990 -0.589078
O2    O     O_R   0.680360 0.381260 0.500010 -0.589218
O3    O     O_R   0.680360 0.618740 0.500010 -0.588351
O4    O     O_R   0.319640 0.381260 0.499990 -0.588264
O5    O     O_R   0.499970 0.618770 0.316850 -0.576064
O6    O     O_R   0.500030 0.381230 0.683150 -0.576096
O7    O     O_R   0.500030 0.618770 0.683150 -0.593356
O8    O     O_R   0.499970 0.381230 0.316850 -0.593452
O9    O     O_3   0.435267 0.758080 0.086672 -0.582222
C23   C     C_3   0.389731 0.844403 0.989326 -0.348362
H7    H     H_    0.297060 0.807042 0.956147 0.172678
H8    H     H_    0.455090 0.851940 0.909652 0.186926
H9    H     H_    0.378307 0.951498 0.026805 0.187226
O10   O     O_3   0.564736 0.241918 0.913336 -0.582200
C24   C     C_3   0.610272 0.155601 0.010685 -0.348389
H10   H     H_    0.544915 0.148069 0.090352 0.186938
H11   H     H_    0.702936 0.192960 0.043866 0.172601
H12   H     H_    0.621701 0.048506 0.973216 0.187212
O11   O     O_3   0.663325 0.696843 0.910626 -0.569857
C25   C     C_3   0.737088 0.754304 0.008075 -0.291081
H13   H     H_    0.804670 0.676331 0.044170 0.195735
H14   H     H_    0.680148 0.794739 0.085980 0.177086
H15   H     H_    0.790773 0.844271 0.969943 0.156944
O12   O     O_3   0.336687 0.303149 0.089370 -0.569926
C26   C     C_3   0.262894 0.245725 0.991927 -0.291284
H16   H     H_    0.319798 0.205383 0.913964 0.177132
H17   H     H_    0.195264 0.323689 0.955923 0.195768
H18   H     H_    0.209266 0.155707 0.030032 0.156919
O13   O     O_3   0.124184 0.380396 0.299886 -0.526815
C27   C     C_3   0.139420 0.234421 0.316134 -0.157021
H19   H     H_    0.098358 0.188726 0.403100 0.086738
H20   H     H_    0.239596 0.211426 0.317757 0.196717
H21   H     H_    0.098028 0.179456 0.234088 0.152999
O14   O     O_3   0.875843 0.619733 0.700111 -0.526779
C28   C     C_3   0.860456 0.765670 0.683677 -0.157277
H22   H     H_    0.760275 0.788479 0.681775 0.196762
H23   H     H_    0.901680 0.811378 0.596798 0.086721
H24   H     H_    0.901574 0.820793 0.765746 0.153015
O15   O     O_3   0.867238 0.390973 0.295214 -0.564030
C29   C     C_3   0.833940 0.247897 0.308220 -0.273233
H25   H     H_    0.732136 0.236655 0.294422 0.189901
H26   H     H_    0.858965 0.199276 0.400589 0.135741
H27   H     H_    0.878008 0.187428 0.232688 0.153586
O16   O     O_3   0.132796 0.609155 0.704780 -0.563960
C30   C     C_3   0.165953 0.752283 0.691729 -0.273309
H28   H     H_    0.141296 0.800714 0.599263 0.135873
H29   H     H_    0.267596 0.763728 0.705923 0.189630
H30   H     H_    0.121551 0.812789 0.766927 0.153665

loop_
_geom_bond_atom_site_label_1
_geom_bond_atom_site_label_2
_ccdc_geom_bond_type
C15   C18   A    
C1    C21   A    
C8    C13   S    
C5    O5    A    
O9    C23   S    
C9    O11   S    
C22   O16   S    
C15   N2    A    
C24   H11   S    
C30   H28   S    
C16   N1    A    
C7    C11   S    
Cu2   O4    S    
C21   O15   S    
C20   O14   S    
C19   C21   A    
C15   H1    S    
C3    O1    A    
O12   C26   S    
C9    C13   S    
C27   H20   S    
C7    C14   S    
C16   C17   A    
Cu1   O1    S    
C2    C22   A    
Cu2   O6    S    
Cu1   Cu2   S    
C6    O6    A    
C10   O12   S    
C25   H15   S    
O14   C28   S    
C4    O3    A    
C23   H8    S    
C29   H27   S    
C25   H14   S    
C24   H12   S    
C30   H29   S    
C16   H2    S    
C4    O2    A    
C28   H22   S    
C17   H3    S    
C18   H4    S    
O16   C30   S    
C29   H26   S    
C10   C14   S    
C26   H18   S    
Cu1   O5    S    
Cu2   O2    S    
O11   C25   S    
C28   H23   S    
C23   H9    S    
Cu1   N1    S    
Cu2   N2    S    
C27   H19   S    
C24   H10   S    
C8    C12   S    
C5    C14   S    
C20   C22   A    
Cu1   O3    S    
C23   H7    S    
C25   H13   S    
C30   H30   S    
C7    C9    S    
O10   C24   S    
C1    C20   A    
C27   H21   S    
C12   H6    S    
C2    C19   A    
C12   C14   S    
C29   H25   S    
C1    C4    S    
C28   H24   S    
C2    C3    S    
O15   C29   S    
C6    C13   S    
C11   C13   S    
C26   H16   S    
C3    O4    A    
C19   O13   S    
Cu1   O7    S    
Cu2   O8    S    
C7    O9    S    
O13   C27   S    
C9    C12   S    
C8    O10   S    
C26   H17   S    
C10   C11   S    
C11   H5    S    
C8    C10   S    
C5    O8    A    
C17   N2    A    
C6    O7    A    
C18   N1    A    
