data_mof_unit_62601.cif
_audit_creation_date              2012-12-10T18:13:14-0500
_audit_creation_method            fapswitch 2.2
_symmetry_space_group_name_H-M    P1
_symmetry_Int_Tables_number       1
_space_group_crystal_system       triclinic
_cell_length_a                    36.253115
_cell_length_b                    29.171697
_cell_length_c                    21.564287
_cell_angle_alpha                 90.308989
_cell_angle_beta                  126.430226
_cell_angle_gamma                 89.844339
_cell_volume                      18348.7002084

loop_
_atom_site_label
_atom_site_type_symbol
_atom_type_description
_atom_site_fract_x
_atom_site_fract_y
_atom_site_fract_z
_atom_type_partial_charge
C1    C     C_R   0.913240 0.999987 0.913255 0.906755
C2    C     C_1   0.229473 0.000035 0.229550 0.010666
C3    C     C_3   0.495597 0.551193 0.283440 -0.033151
C4    C     C_1   0.862566 0.999964 0.862555 -0.225180
C5    C     C_1   0.137434 0.000034 0.137445 -0.225222
C6    C     C_1   0.362566 0.499965 0.862555 -0.225216
C7    C     C_1   0.637434 0.500035 0.137445 -0.225227
C8    C     C_2   0.049142 0.072262 0.739208 0.346948
C9    C     C_2   0.035877 0.079564 0.349151 0.471711
C10   C     C_2   0.950870 0.072599 0.261782 0.347063
C11   C     C_2   0.964123 0.079130 0.651968 0.470878
C12   C     C_2   0.464108 0.420446 0.650841 0.470866
C13   C     C_1   0.270527 0.499964 0.770450 0.010665
C14   C     C_2   0.535805 0.579596 0.349084 0.469288
C15   C     C_2   0.450804 0.572557 0.261704 0.346531
C16   C     C_2   0.549117 0.427394 0.738204 0.348071
C17   C     C_1   0.729473 0.500036 0.229550 0.010656
C18   C     C_1   0.728316 0.999971 0.728214 0.009642
C19   C     C_1   0.271684 0.000028 0.271786 0.009624
C20   C     C_1   0.228316 0.499971 0.728214 0.009624
C21   C     C_1   0.771684 0.500028 0.271786 0.009614
C22   C     C_1   0.678485 0.999982 0.678367 0.007254
C23   C     C_1   0.321515 0.000017 0.321632 0.007241
C24   C     C_1   0.178485 0.499982 0.678367 0.007242
C25   C     C_R   0.086760 0.000013 0.086745 0.906761
C26   C     C_1   0.821515 0.500018 0.321632 0.007234
C27   C     C_1   0.636273 0.999991 0.636166 -0.196612
C28   C     C_1   0.363727 0.000009 0.363834 -0.196621
C29   C     C_1   0.136273 0.499991 0.636166 -0.196619
C30   C     C_1   0.863727 0.500009 0.363834 -0.196625
C31   C     C_R   0.999987 0.913249 0.499974 0.893847
C32   C     C_R   0.000013 0.086740 0.500035 0.945338
C33   C     C_R   0.499988 0.413255 0.500071 0.918951
C34   C     C_R   0.500012 0.586745 0.499929 0.918701
C35   C     C_R   0.999948 0.996874 0.622292 0.841321
C36   C     C_R   0.413240 0.499987 0.913255 0.906732
C37   C     C_R   0.000049 0.997188 0.377623 0.841306
C38   C     C_R   0.499951 0.502816 0.622377 0.839288
C39   C     C_R   0.500049 0.497188 0.377622 0.839750
C40   C     C_R   0.500000 0.085605 0.500151 0.876910
C41   C     C_R   0.499999 0.914395 0.499849 0.875781
C42   C     C_R   0.000000 0.585603 0.500147 0.875439
C43   C     C_R   1.000000 0.414394 0.499853 0.877254
C44   C     C_R   0.585592 1.000000 0.585551 0.876442
C45   C     C_R   0.414407 0.000000 0.414449 0.876438
C46   C     C_R   0.085592 0.500000 0.585551 0.876431
C47   C     C_R   0.586760 0.500013 0.086745 0.906747
C48   C     C_R   0.914407 0.500000 0.414449 0.876434
C49   C     C_1   0.999965 0.862575 0.500071 -0.229504
C50   C     C_1   0.000035 0.137404 0.499935 -0.148378
C51   C     C_1   0.499966 0.362587 0.500277 -0.188025
C52   C     C_1   0.500034 0.637413 0.499723 -0.189517
C53   C     C_R   0.000625 0.000044 0.878114 0.871054
C54   C     C_R   0.999370 0.000242 0.121870 0.871289
C55   C     C_R   0.500630 0.499759 0.878130 0.871226
C56   C     C_R   0.499364 0.500241 0.121864 0.871290
C57   C     C_1   0.999961 0.820366 0.500178 0.000258
C58   C     C_1   0.820356 0.999960 0.820316 0.006747
C59   C     C_1   0.000039 0.179609 0.499824 0.048446
C60   C     C_1   0.499964 0.320380 0.500437 0.025928
C61   C     C_1   0.500036 0.679620 0.499562 0.023866
C62   C     C_1   0.999965 0.770537 0.500308 0.005524
C63   C     C_1   0.000035 0.229440 0.499691 0.029466
C64   C     C_1   0.499969 0.270550 0.500554 0.018832
C65   C     C_1   0.500031 0.729450 0.499446 0.016350
C66   C     C_1   0.499976 0.228338 0.500589 0.015222
C67   C     C_1   0.500023 0.771662 0.499411 0.012540
C68   C     C_1   0.999972 0.728327 0.500399 0.005607
C69   C     C_1   0.179644 0.000038 0.179684 0.006716
C70   C     C_1   0.000028 0.271653 0.499599 0.022063
C71   C     C_1   0.499986 0.178504 0.500553 0.010485
C72   C     C_1   0.500014 0.821496 0.499446 0.007841
C73   C     C_1   0.999983 0.678496 0.500452 0.003970
C74   C     C_1   0.000017 0.321489 0.499546 0.014294
C75   C     C_1   0.499993 0.136290 0.500440 -0.194773
C76   C     C_1   0.500006 0.863710 0.499560 -0.197067
C77   C     C_1   0.999992 0.636284 0.500405 -0.199249
C78   C     C_1   0.000008 0.363705 0.499594 -0.192606
C79   C     C_3   0.041297 0.971453 0.827100 -0.416042
C80   C     C_1   0.320356 0.499960 0.820316 0.006710
C81   C     C_3   0.045048 0.979951 0.258099 -0.387160
C82   C     C_3   0.958666 0.971884 0.172447 -0.415803
C83   C     C_3   0.954945 0.979470 0.741577 -0.387230
C84   C     C_3   0.454953 0.520054 0.741902 -0.386764
C85   C     C_3   0.545058 0.479981 0.258107 -0.386335
C86   C     C_3   0.458681 0.471855 0.172464 -0.414482
C87   C     C_3   0.541336 0.528115 0.827556 -0.415083
C88   C     C_3   0.040245 0.969644 0.755093 -0.418800
C89   C     C_3   0.045204 0.978497 0.329262 -0.378535
C90   C     C_3   0.959751 0.970011 0.244427 -0.418778
C91   C     C_1   0.679644 0.500039 0.179684 0.006704
C92   C     C_3   0.954791 0.978038 0.670375 -0.377913
C93   C     C_3   0.454799 0.521513 0.670741 -0.378812
C94   C     C_3   0.545221 0.478534 0.329276 -0.378422
C95   C     C_3   0.459775 0.469976 0.244452 -0.419292
C96   C     C_3   0.540252 0.529987 0.755577 -0.419644
C97   C     C_3   0.005288 0.050163 0.790474 -0.386058
C98   C     C_3   0.994744 0.050596 0.210162 -0.386886
C99   C     C_3   0.505252 0.449406 0.789835 -0.387509
C100  C     C_3   0.494707 0.550591 0.210122 -0.388177
C101  C     C_3   0.000530 0.000303 0.810508 0.110362
C102  C     C_1   0.770527 0.999964 0.770450 0.010690
C103  C     C_3   0.999464 0.000747 0.189455 0.110588
C104  C     C_3   0.500536 0.499255 0.810544 0.110550
C105  C     C_3   0.499459 0.500746 0.189450 0.109992
C106  C     C_3   0.999977 0.999428 0.689911 0.032537
C107  C     C_3   0.000023 0.999820 0.310038 0.032225
C108  C     C_3   0.499977 0.500183 0.689962 0.032815
C109  C     C_3   0.500022 0.499820 0.310036 0.031931
C110  C     C_3   0.004369 0.050794 0.717188 -0.035591
C111  C     C_3   0.995641 0.051197 0.283488 -0.035725
C112  C     C_3   0.504351 0.448806 0.716506 -0.035179
H1    H     H_    0.074253 0.986770 0.875957 0.157263
H2    H     H_    0.049570 0.944575 0.243961 0.177283
H3    H     H_    0.960305 0.936341 0.155133 0.191411
H4    H     H_    0.950428 0.944092 0.755218 0.177102
H5    H     H_    0.450432 0.555430 0.756045 0.177387
H6    H     H_    0.549601 0.444605 0.243994 0.178231
H7    H     H_    0.460340 0.436314 0.155165 0.192399
H8    H     H_    0.539698 0.563659 0.844870 0.191611
H9    H     H_    0.035822 0.933422 0.735185 0.174102
H10   H     H_    0.048511 0.942293 0.348074 0.165680
H11   H     H_    0.964183 0.933781 0.263758 0.174041
H12   H     H_    0.074480 0.000901 0.270901 0.180035
H13   H     H_    0.951491 0.941834 0.651021 0.165636
H14   H     H_    0.451500 0.557719 0.651940 0.165183
H15   H     H_    0.548562 0.442335 0.348129 0.166011
H16   H     H_    0.464241 0.433748 0.263811 0.173796
H17   H     H_    0.535827 0.566218 0.736251 0.173085
H18   H     H_    0.073891 0.981091 0.770185 0.176803
H19   H     H_    0.075900 0.997074 0.377553 0.199537
H20   H     H_    0.926111 0.981402 0.229549 0.176797
H21   H     H_    0.924091 0.996574 0.622360 0.199939
H22   H     H_    0.424099 0.502944 0.622444 0.199634
H23   H     H_    0.925720 0.987213 0.123876 0.157093
H24   H     H_    0.575901 0.497142 0.377544 0.199647
H25   H     H_    0.426126 0.481334 0.229572 0.177169
H26   H     H_    0.573891 0.518591 0.770456 0.176948
H27   H     H_    0.037821 0.065122 0.841189 0.142405
H28   H     H_    0.022194 0.072187 0.217190 0.227663
H29   H     H_    0.962230 0.065534 0.159659 0.142529
H30   H     H_    0.977873 0.071783 0.783767 0.227874
H31   H     H_    0.477804 0.427815 0.782811 0.227638
H32   H     H_    0.522146 0.572198 0.217144 0.227308
H33   H     H_    0.462185 0.565510 0.159605 0.141551
H34   H     H_    0.925522 0.000394 0.729097 0.180294
H35   H     H_    0.537768 0.434468 0.840336 0.142160
H36   H     H_    0.081687 0.059320 0.788520 0.083764
H37   H     H_    0.038076 0.086104 0.400861 0.089055
H38   H     H_    0.918329 0.059628 0.212258 0.083947
H39   H     H_    0.962031 0.085884 0.600503 0.090295
H40   H     H_    0.461907 0.413901 0.599131 0.092735
H41   H     H_    0.538004 0.586120 0.400798 0.092763
H42   H     H_    0.418276 0.559552 0.212195 0.082474
H43   H     H_    0.581662 0.440368 0.787715 0.082888
H44   H     H_    0.425520 0.499104 0.729095 0.180002
H45   H     H_    0.574476 0.500948 0.270887 0.179804
H46   H     H_    0.425725 0.487165 0.123890 0.157055
H47   H     H_    0.574280 0.512785 0.876128 0.157039
H48   H     H_    0.039578 0.935909 0.843801 0.191231
O1    O     O_R   0.936850 0.964330 0.936870 -0.602073
O2    O     O_R   0.000010 0.035670 0.092610 -0.622832
O3    O     O_R   0.000010 0.964330 0.092610 -0.624377
O4    O     O_R   0.999990 0.035670 0.907390 -0.623248
O5    O     O_R   0.499990 0.464330 0.907390 -0.623102
O6    O     O_R   0.500010 0.535670 0.092610 -0.623719
O7    O     O_R   0.500010 0.464330 0.092610 -0.623394
O8    O     O_R   0.499990 0.535670 0.907390 -0.624093
O9    O     O_R   0.964320 0.936860 0.464320 -0.602893
O10   O     O_R   0.035680 0.063140 0.535680 -0.588529
O11   O     O_R   0.035680 0.936860 0.535680 -0.603079
O12   O     O_R   0.063150 0.035670 0.063130 -0.593470
O13   O     O_R   0.964320 0.063140 0.464320 -0.588222
O14   O     O_R   0.464320 0.436860 0.464320 -0.613979
O15   O     O_R   0.535680 0.563140 0.535680 -0.614436
O16   O     O_R   0.535680 0.436860 0.535680 -0.576954
O17   O     O_R   0.464320 0.563140 0.464320 -0.577326
O18   O     O_R   0.964330 0.000000 0.556950 -0.636016
O19   O     O_R   0.035670 0.000000 0.443050 -0.635992
O20   O     O_R   0.464330 0.500000 0.556950 -0.635800
O21   O     O_R   0.535670 0.500000 0.443050 -0.635721
O22   O     O_R   0.035630 0.000000 0.628230 -0.608165
O23   O     O_R   0.063150 0.964330 0.063130 -0.602073
O24   O     O_R   0.964370 0.000000 0.371770 -0.608482
O25   O     O_R   0.535630 0.500000 0.628230 -0.608199
O26   O     O_R   0.464370 0.500000 0.371770 -0.608041
O27   O     O_R   0.499940 0.063120 0.447680 -0.591795
O28   O     O_R   0.500060 0.936880 0.552320 -0.592523
O29   O     O_R   0.500060 0.063120 0.552320 -0.589179
O30   O     O_R   0.499940 0.936880 0.447680 -0.589879
O31   O     O_R   0.999940 0.563120 0.447680 -0.591955
O32   O     O_R   0.000060 0.436880 0.552320 -0.589937
O33   O     O_R   0.000060 0.563120 0.552320 -0.591759
O34   O     O_R   0.936850 0.035670 0.936870 -0.593433
O35   O     O_R   0.999940 0.436880 0.447680 -0.589710
O36   O     O_R   0.563110 0.000000 0.510830 -0.590755
O37   O     O_R   0.436890 0.000000 0.489170 -0.590767
O38   O     O_R   0.063110 0.500000 0.510830 -0.590762
O39   O     O_R   0.936890 0.500000 0.489170 -0.590768
O40   O     O_R   0.563120 0.000000 0.615390 -0.591224
O41   O     O_R   0.436880 0.000000 0.384610 -0.591218
O42   O     O_R   0.063120 0.500000 0.615390 -0.591217
O43   O     O_R   0.936880 0.500000 0.384610 -0.591214
O44   O     O_2   0.049626 0.104256 0.703315 -0.579320
O45   O     O_R   0.436850 0.464330 0.936870 -0.594958
O46   O     O_2   0.066088 0.094891 0.346114 -0.584546
O47   O     O_2   0.950381 0.104576 0.298162 -0.579239
O48   O     O_2   0.933773 0.094171 0.655065 -0.585777
O49   O     O_2   0.433893 0.405131 0.653877 -0.585649
O50   O     O_2   0.565992 0.594972 0.346025 -0.587826
O51   O     O_2   0.450284 0.604542 0.298039 -0.576642
O52   O     O_2   0.549598 0.395406 0.701835 -0.575446
O53   O     O_R   0.563150 0.535670 0.063130 -0.596267
O54   O     O_R   0.563150 0.464330 0.063130 -0.599290
O55   O     O_R   0.436850 0.535670 0.936870 -0.600614
O56   O     O_R   0.999990 0.964330 0.907390 -0.623819
Zn1   Zn    Zn3+2 0.000000 0.952370 0.000000 0.948457
Zn2   Zn    Zn3+2 0.500030 0.000000 0.569830 0.977391
Zn3   Zn    Zn3+2 0.999970 0.500000 0.430170 0.977433
Zn4   Zn    Zn3+2 0.000030 0.500000 0.569830 0.977404
Zn5   Zn    Zn3+2 0.000000 0.047630 0.000000 0.976802
Zn6   Zn    Zn3+2 0.500000 0.452370 0.000000 0.964509
Zn7   Zn    Zn3+2 0.500000 0.547630 0.000000 0.960605
Zn8   Zn    Zn3+2 0.952370 0.000000 0.452390 0.977187
Zn9   Zn    Zn3+2 0.047630 0.000000 0.547610 0.977271
Zn10  Zn    Zn3+2 0.452370 0.500000 0.452390 0.976639
Zn11  Zn    Zn3+2 0.547630 0.500000 0.547610 0.976539
Zn12  Zn    Zn3+2 0.499970 0.000000 0.430170 0.977428

loop_
_geom_bond_atom_site_label_1
_geom_bond_atom_site_label_2
_ccdc_geom_bond_type
C9    C111  S    
O41   Zn12  S    
C21   C26   S    
O36   Zn12  S    
C97   C110  S    
O1    Zn1   S    
O33   Zn4   S    
O40   Zn2   S    
C90   H11   S    
C12   H40   S    
C92   H21   S    
C17   C91   S    
C88   H18   S    
C72   C76   T    
C92   H13   S    
O35   Zn3   S    
O15   Zn11  S    
C57   C62   S    
C40   O27   A    
C94   H15   S    
O21   Zn11  S    
C43   C78   S    
C83   C92   S    
C48   O43   A    
C9    H37   S    
C100  C105  S    
C41   O30   A    
O30   Zn12  S    
C50   C59   T    
C30   C48   S    
C96   H17   S    
C12   O49   D    
C37   C107  S    
C52   C61   T    
C36   O55   A    
C96   H26   S    
C46   O38   A    
O9    Zn8   S    
C89   H10   S    
C99   C112  S    
C45   O37   A    
C98   C103  S    
O25   Zn11  S    
C47   O54   A    
O45   Zn6   S    
C49   C57   T    
C43   O35   A    
C67   C72   S    
C18   C102  T    
O42   Zn4   S    
C82   H23   S    
C33   O16   A    
C24   C29   T    
C15   H42   S    
C15   O51   D    
C34   O15   A    
O54   Zn6   S    
O17   Zn10  S    
C93   H14   S    
C39   O26   A    
O4    Zn5   S    
C40   O29   A    
O11   Zn9   S    
C53   C101  S    
C84   H5    S    
C65   C67   T    
C81   H2    S    
C70   C74   S    
C94   H24   S    
C82   C103  S    
C63   C70   T    
C86   H7    S    
O12   Zn5   S    
C54   O3    A    
C2    C69   S    
C36   O45   A    
C90   H20   S    
C35   O18   A    
C99   C104  S    
C96   C108  S    
C13   C80   S    
C1    O1    A    
C81   C89   S    
O23   Zn1   S    
C11   C110  S    
O18   Zn8   S    
C8    H36   S    
C85   H45   S    
C55   O8    A    
C31   C49   S    
C85   C105  S    
C42   O31   A    
C79   C88   S    
O5    Zn6   S    
C37   O19   A    
C28   C45   S    
C95   H25   S    
C44   O36   A    
C14   O50   D    
C81   H12   S    
C20   C24   S    
C54   C103  S    
C8    O44   D    
C38   O20   A    
O56   Zn1   S    
C93   H22   S    
C100  H32   S    
O31   Zn3   S    
C79   H48   S    
C87   H47   S    
C48   O39   A    
C95   H16   S    
C68   C73   S    
C37   O24   A    
C5    C69   T    
C55   C104  S    
C17   C21   T    
C81   C103  S    
C108  C112  S    
C41   O28   A    
C98   H28   S    
C35   O22   A    
C7    C47   S    
O19   Zn9   S    
C42   O33   A    
C19   C23   S    
C10   O47   D    
O7    Zn6   S    
C89   H19   S    
C8    C110  S    
C83   H34   S    
C88   C106  S    
C85   C94   S    
C6    C80   T    
C66   C71   S    
O26   Zn10  S    
O2    Zn5   S    
C16   O52   D    
C100  H33   S    
C7    C91   T    
C87   C96   S    
C89   C107  S    
C16   H43   S    
C10   C111  S    
C53   O4    A    
C23   C28   T    
C54   O2    A    
C33   O14   A    
C86   H46   S    
C32   C50   S    
C39   O21   A    
C3    C14   S    
C25   O23   A    
C62   C68   T    
O34   Zn5   S    
C5    C25   S    
O3    Zn1   S    
C25   O12   A    
C11   H39   S    
C43   O32   A    
C44   O40   A    
C53   O56   A    
C22   C27   T    
C79   H1    S    
C14   H41   S    
C95   C109  S    
C84   C104  S    
C59   C63   S    
C86   C105  S    
C11   O48   D    
O32   Zn4   S    
O8    Zn7   S    
C56   O6    A    
O37   Zn2   S    
C12   C112  S    
C3    C15   S    
O29   Zn2   S    
C16   C112  S    
C3    C100  S    
C106  C110  S    
C92   C106  S    
O24   Zn8   S    
O16   Zn11  S    
C32   O10   A    
C73   C77   T    
C98   C111  S    
C83   C101  S    
C13   C20   T    
C2    C19   T    
C18   C22   S    
C107  C111  S    
C83   H4    S    
O39   Zn4   S    
C88   H9    S    
O55   Zn7   S    
O6    Zn7   S    
C90   C107  S    
O22   Zn9   S    
C26   C30   T    
O28   Zn2   S    
C33   C51   S    
C38   O25   A    
C31   O9    A    
C32   O13   A    
C29   C46   S    
C94   C109  S    
C34   C52   S    
C82   C90   S    
C40   C75   S    
O43   Zn3   S    
C82   H3    S    
C60   C64   S    
C1    C4    S    
C9    O46   D    
O14   Zn10  S    
C99   H35   S    
C87   H8    S    
C93   C108  S    
C35   C106  S    
C10   H38   S    
C41   C76   S    
C71   C75   T    
O27   Zn12  S    
C84   H44   S    
C31   O11   A    
C98   H29   S    
C3    C109  S    
C58   C102  S    
C47   O53   A    
C56   O7    A    
O20   Zn10  S    
C6    C36   S    
C1    O34   A    
C84   C93   S    
C38   C108  S    
C85   H6    S    
C97   H30   S    
C86   C95   S    
C99   H31   S    
C87   C104  S    
C61   C65   S    
C56   C105  S    
C39   C109  S    
C42   C77   S    
C45   O41   A    
C74   C78   T    
O10   Zn9   S    
C4    C58   T    
C55   O5    A    
C79   C101  S    
C34   O17   A    
C51   C60   T    
C27   C44   S    
O13   Zn8   S    
C97   H27   S    
C97   C101  S    
O53   Zn7   S    
C64   C66   T    
C46   O42   A    
O38   Zn3   S    
