data_mof_unit_18556.cif
_audit_creation_date              2012-10-26T18:29:00-0400
_audit_creation_method            fapswitch 2.2
_symmetry_space_group_name_H-M    P1
_symmetry_Int_Tables_number       1
_space_group_crystal_system       triclinic
_cell_length_a                    11.660702
_cell_length_b                    12.962904
_cell_length_c                    15.569797
_cell_angle_alpha                 91.983
_cell_angle_beta                  74.365121
_cell_angle_gamma                 99.922023
_cell_volume                      2232.3233621

loop_
_atom_site_label
_atom_site_type_symbol
_atom_type_description
_atom_site_fract_x
_atom_site_fract_y
_atom_site_fract_z
_atom_type_partial_charge
Br1   Br    Br    0.536240 0.194339 0.657985 -0.593827
Br2   Br    Br    0.457252 0.800317 0.341334 -0.544071
C1    C     C_R   0.521318 0.700763 0.500327 0.585772
C2    C     C_R   0.387918 0.022277 0.436228 0.028122
C3    C     C_R   0.601075 0.870262 0.554974 -0.143980
C4    C     C_R   0.402783 0.131271 0.439441 -0.147180
C5    C     C_R   0.478042 0.866008 0.451378 0.123194
C6    C     C_R   0.521875 0.133256 0.545175 0.126767
C7    C     C_R   0.465923 0.971409 0.470134 0.027659
C8    C     C_R   0.535478 0.028756 0.524858 0.031515
C9    C     C_R   0.943088 0.600467 0.579632 -0.179629
C10   C     C_R   0.056474 0.398553 0.421187 -0.175247
C11   C     C_R   0.824104 0.590192 0.572404 0.042125
C12   C     C_R   0.479127 0.299312 0.498568 0.584439
C13   C     C_R   0.175363 0.408714 0.428622 0.047352
C14   C     C_R   0.857949 0.455588 0.466236 0.055995
C15   C     C_R   0.142060 0.544444 0.533690 0.057849
C16   C     C_R   0.427006 0.493025 0.669084 0.555585
C17   C     C_R   0.572751 0.503184 0.330902 0.562827
C18   C     C_R   0.978364 0.462925 0.471483 0.009972
C19   C     C_R   0.021456 0.536679 0.528791 0.008692
C20   C     C_R   0.383149 0.471774 0.765930 0.010349
C21   C     C_R   0.614981 0.491620 0.233441 0.002292
C22   C     C_R   0.223076 0.404321 0.895927 -0.124980
C23   C     C_R   0.353604 0.366578 0.083132 0.013488
C24   C     C_R   0.774552 0.474857 0.099713 -0.132140
C25   C     C_R   0.260280 0.437964 0.807032 -0.122629
C26   C     C_R   0.737503 0.492383 0.191087 -0.130472
C27   C     C_R   0.467421 0.473053 0.815610 -0.124364
C28   C     C_R   0.530508 0.471718 0.183088 -0.119970
C29   C     C_R   0.433373 0.428227 0.901633 0.029552
C30   C     C_R   0.564135 0.441078 0.093615 0.022298
C31   C     C_R   0.308690 0.399724 0.943605 0.042011
C32   C     C_R   0.688919 0.450663 0.050493 0.031783
C33   C     C_R   0.519310 0.418041 0.949343 0.023703
C34   C     C_R   0.643904 0.414071 0.907726 -0.003161
C35   C     C_R   0.477997 0.409791 0.044008 0.034716
C36   C     C_3   0.307727 0.305227 0.171279 -0.277139
C37   C     C_3   0.379423 0.217791 0.174371 -0.423215
C38   C     C_3   0.689835 0.375708 0.813019 -0.272506
C39   C     C_3   0.751786 0.280081 0.809865 -0.415900
C40   C     C_3   0.721219 0.038302 0.588552 -0.253861
C41   C     C_3   0.841154 0.003844 0.540375 -0.461469
C42   C     C_3   0.282281 0.964269 0.404088 -0.248383
C43   C     C_3   0.163457 0.003762 0.446667 -0.461571
C44   C     C_R   0.270915 0.364331 0.031913 -0.117034
C45   C     C_R   0.727027 0.434396 0.959061 -0.111553
C46   C     C_R   0.468713 0.186264 0.493899 0.007481
C47   C     C_R   0.532600 0.814043 0.502713 0.003976
C48   C     C_R   0.615034 0.979058 0.557714 0.034312
Cu1   Cu    Cu3+1 0.386820 0.492450 0.493500 0.966985
Cu2   Cu    Cu3+1 0.613180 0.507550 0.506500 0.959454
H1    H     H_    0.175841 0.334784 0.061117 0.098747
H2    H     H_    0.193225 0.436162 0.770294 0.125080
H3    H     H_    0.127454 0.380055 0.926944 0.099030
H4    H     H_    0.870118 0.479089 0.067666 0.104125
H5    H     H_    0.356145 0.173124 0.404227 0.118651
H6    H     H_    0.649617 0.829511 0.589465 0.122394
H7    H     H_    0.176232 0.600712 0.577668 0.116138
H8    H     H_    0.823864 0.399549 0.422058 0.114444
H9    H     H_    0.335361 0.169193 0.235537 0.127784
H10   H     H_    0.381868 0.166816 0.115286 0.168322
H11   H     H_    0.473158 0.250138 0.176159 0.161983
H12   H     H_    0.822519 0.437349 0.927410 0.105898
H13   H     H_    0.304283 0.355454 0.230077 0.125882
H14   H     H_    0.212194 0.266763 0.180641 0.133705
H15   H     H_    0.837946 0.300704 0.828922 0.133544
H16   H     H_    0.690979 0.217221 0.855170 0.174622
H17   H     H_    0.773090 0.249456 0.740851 0.168457
H18   H     H_    0.615168 0.349598 0.782024 0.210378
H19   H     H_    0.754131 0.439983 0.771439 0.140794
H20   H     H_    0.843645 0.923168 0.560543 0.146377
H21   H     H_    0.855591 0.007543 0.466958 0.164723
H22   H     H_    0.916590 0.057111 0.558010 0.139124
H23   H     H_    0.234602 0.358067 0.390528 0.110825
H24   H     H_    0.735505 0.123066 0.573343 0.192017
H25   H     H_    0.704002 0.026992 0.661629 0.170340
H26   H     H_    0.146222 0.005981 0.520402 0.165158
H27   H     H_    0.164775 0.082824 0.420894 0.140242
H28   H     H_    0.087692 0.949909 0.430001 0.144800
H29   H     H_    0.303569 0.971752 0.330362 0.175634
H30   H     H_    0.263501 0.880371 0.423262 0.197707
H31   H     H_    0.764305 0.639715 0.611732 0.116521
H32   H     H_    0.973448 0.657852 0.624505 0.087125
H33   H     H_    0.025925 0.340625 0.376772 0.081665
H34   H     H_    0.439828 0.484909 0.213196 0.141328
H35   H     H_    0.560352 0.508257 0.786142 0.117321
H36   H     H_    0.804788 0.507566 0.228260 0.130511
N1    N     N_R   0.216750 0.481110 0.483710 -0.222416
N2    N     N_R   0.783250 0.518890 0.516290 -0.224209
O1    O     O_R   0.419950 0.645670 0.495380 -0.468051
O2    O     O_R   0.580050 0.354330 0.504620 -0.472590
O3    O     O_R   0.611110 0.658410 0.506370 -0.512336
O4    O     O_R   0.388890 0.341590 0.493630 -0.514601
O5    O     O_R   0.350820 0.490050 0.621260 -0.508041
O6    O     O_R   0.649180 0.509950 0.378740 -0.506518
O7    O     O_R   0.541970 0.502800 0.632250 -0.497726
O8    O     O_R   0.458030 0.497200 0.367750 -0.490890

loop_
_geom_bond_atom_site_label_1
_geom_bond_atom_site_label_2
_ccdc_geom_bond_type
C41   H21   S    
C13   H23   S    
C14   N2    A    
C41   H20   S    
C31   C44   A    
C20   C27   A    
C11   N2    A    
Br1   C6    S    
Cu2   N2    S    
C33   C34   A    
C22   C25   A    
C1    C47   S    
C25   H2    S    
C39   H15   S    
C22   H3    S    
C4    C46   A    
C3    H6    S    
C38   H19   S    
C42   H30   S    
C36   C37   S    
Cu2   O7    S    
C34   C45   A    
C1    O1    A    
C14   H8    S    
Br2   C5    S    
Cu1   O1    S    
C24   C32   A    
C36   H14   S    
C26   H36   S    
C10   C13   A    
C43   H26   S    
C16   O7    A    
C28   H34   S    
C7    C8    A    
C23   C35   A    
Cu1   O8    S    
C16   O5    A    
C4    H5    S    
C3    C47   A    
C17   O8    A    
C39   H16   S    
C37   H9    S    
Cu1   Cu2   S    
C21   C28   A    
C34   C38   S    
C15   N1    A    
C5    C47   A    
C2    C4    A    
C42   H29   S    
C45   H12   S    
C12   C46   S    
C2    C42   S    
C21   C26   A    
C9    C19   A    
C15   C19   A    
C30   C32   A    
C17   C21   S    
C6    C46   A    
C23   C36   S    
C13   N1    A    
C36   H13   S    
C14   C18   A    
C10   C18   A    
C29   C31   A    
Cu2   O3    S    
C43   H27   S    
C30   C35   A    
C12   O2    A    
C38   H18   S    
C40   C48   S    
C10   H33   S    
C38   C39   S    
C15   H7    S    
C20   C25   A    
C29   C33   A    
C3    C48   A    
Cu2   O2    S    
C40   C41   S    
C8    C48   A    
C42   C43   S    
C39   H17   S    
C5    C7    A    
C37   H10   S    
C1    O3    A    
C33   C35   A    
C16   C20   S    
C40   H24   S    
C24   H4    S    
C9    H32   S    
C37   H11   S    
C11   H31   S    
C24   C26   A    
C22   C31   A    
C27   C29   A    
Cu1   N1    S    
C28   C30   A    
C9    C11   A    
C41   H22   S    
C44   H1    S    
Cu2   O6    S    
C43   H28   S    
C27   H35   S    
Cu1   O4    S    
C18   C19   A    
C40   H25   S    
C6    C8    A    
C32   C45   A    
C2    C7    A    
C23   C44   A    
C12   O4    A    
C17   O6    A    
Cu1   O5    S    
