data_mof_unit_14599.cif
_audit_creation_date              2013-03-05T15:50:34-0500
_audit_creation_method            fapswitch 2.2
_symmetry_space_group_name_H-M    P1
_symmetry_Int_Tables_number       1
_space_group_crystal_system       triclinic
_cell_length_a                    9.654136
_cell_length_b                    10.837131
_cell_length_c                    13.504611
_cell_angle_alpha                 93.405224
_cell_angle_beta                  74.494225
_cell_angle_gamma                 87.887053
_cell_volume                      1357.02154749

loop_
_atom_site_label
_atom_site_type_symbol
_atom_site_description
_atom_site_fract_x
_atom_site_fract_y
_atom_site_fract_z
_atom_type_partial_charge
O1    O     O_R   0.381190 0.680360 0.500010 -0.565081
O2    O     O_R   0.618760 0.680340 0.500000 -0.466766
C1    C     C_R   0.498781 0.737755 0.494591 0.857713
O3    O     O_R   0.323240 0.499990 0.650990 -0.567181
O4    O     O_R   0.560820 0.499960 0.650980 -0.568995
C2    C     C_R   0.427350 0.482227 0.696520 0.832264
Cu1   Cu    Cu3+1 0.359340 0.500010 0.500010 1.092667
Cu2   Cu    Cu3+1 0.640660 0.499990 0.499990 1.057979
O5    O     O_R   0.381240 0.319660 0.500000 -0.532685
O6    O     O_R   0.618810 0.319640 0.499990 -0.635599
O7    O     O_R   0.439180 0.500040 0.349020 -0.465842
O8    O     O_R   0.676760 0.500010 0.349010 -0.603252
C3    C     C_R   0.500285 0.263465 0.506411 0.847668
C4    C     C_R   0.575207 0.508141 0.300957 0.876016
C5    C     C_R   0.808384 0.493839 0.027343 -0.117651
H1    H     H_    0.921900 0.495771 0.989791 0.212796
C6    C     C_R   0.617388 0.514552 0.186997 -0.226595
C7    C     C_R   0.260492 0.401872 0.850823 -0.423439
C8    C     C_R   0.226914 0.370189 0.952468 0.639081
C9    C     C_R   0.324120 0.389344 0.011222 0.557805
C10   C     C_R   0.462018 0.431569 0.965608 -0.107741
C11   C     C_R   0.505304 0.433603 0.857408 0.007272
C12   C     C_R   0.561206 0.464393 0.023094 0.075797
C13   C     C_R   0.709390 0.467693 0.970885 0.031411
C14   C     C_R   0.755131 0.446739 0.862884 0.008008
C15   C     C_R   0.654094 0.424318 0.808515 -0.143144
C16   C     C_R   0.514614 0.506760 0.128692 0.062156
C17   C     C_R   0.764459 0.518527 0.133309 -0.054330
C18   C     C_R   0.397546 0.440067 0.802756 -0.173288
H2    H     H_    0.181996 0.389889 0.808020 0.217695
H3    H     H_    0.696046 0.395778 0.727893 0.182699
C19   C     C_R   0.224096 0.910791 0.525214 -0.021026
C20   C     C_R   0.102719 0.974071 0.596783 -0.048891
C21   C     C_R   0.122519 0.081876 0.652435 -0.177208
H4    H     H_    0.031973 0.131465 0.707370 0.196125
C22   C     C_R   0.254693 0.135519 0.627458 -0.118953
H5    H     H_    0.263412 0.225690 0.663493 0.155633
C23   C     C_R   0.374130 0.072408 0.557276 0.050235
C24   C     C_R   0.363654 0.948472 0.525341 -0.034803
C25   C     C_R   0.493962 0.873209 0.487558 -0.228330
C26   C     C_R   0.624903 0.930744 0.455061 0.696634
H6    H     H_    0.728227 0.101516 0.434721 0.205391
C27   C     C_R   0.627892 0.058562 0.465728 -0.191481
C28   C     C_R   0.502412 0.130179 0.515095 -0.199558
C29   C     C_R   0.906684 0.329856 0.368425 -0.170192
H7    H     H_    0.800217 0.331649 0.362668 0.240764
C30   C     C_R   0.998036 0.240992 0.301870 -0.180023
C31   C     C_R   0.141657 0.231178 0.303750 -0.126367
C32   C     C_R   0.193750 0.320558 0.362637 0.665255
C33   C     C_R   0.101207 0.413200 0.433705 -0.018155
C34   C     C_R   0.951534 0.414521 0.435292 -0.008058
N1    N     N_R   0.852480 0.498790 0.499000 -0.265578
C35   C     C_R   0.899871 0.580608 0.562192 0.687843
C36   C     C_R   0.047470 0.581196 0.561549 0.645806
N2    N     N_R   0.148360 0.498710 0.498970 -0.250915
C37   C     C_2   0.875570 0.557726 0.183437 0.889895
O9    O     O_2   0.857589 0.655015 0.237172 -0.495363
O10   O     O_R   0.001251 0.483525 0.168440 -0.701802
H8    H     H_    0.063160 0.515303 0.212808 0.375363
C38   C     C_2   0.209362 0.839275 0.431103 0.946528
O11   O     O_2   0.100446 0.785967 0.430283 -0.516600
O12   O     O_R   0.321402 0.837964 0.340611 -0.754345
H9    H     H_    0.294026 0.800521 0.278741 0.371000
C39   C     C_2   0.952977 0.938645 0.611833 0.955965
O13   O     O_2   0.896480 0.941952 0.541243 -0.532469
O14   O     O_R   0.872344 0.912217 0.709939 -0.681440
H10   H     H_    0.768872 0.895439 0.712342 0.366592
F1    F     F_    0.804087 0.662984 0.627115 -0.611946
C40   C     C_2   0.942172 0.167604 0.224862 1.010088
O15   O     O_2   0.814037 0.148342 0.243289 -0.598658
O16   O     O_R   0.034352 0.125747 0.129081 -0.647067
H11   H     H_    0.982918 0.079183 0.083349 0.362767
C41   C     C_2   0.239320 0.125184 0.246558 1.025030
O17   O     O_2   0.192924 0.022046 0.242928 -0.584605
O18   O     O_R   0.384136 0.142065 0.198451 -0.632577
H12   H     H_    0.438414 0.062514 0.163334 0.348852
F2    F     F_    0.336783 0.313385 0.341678 -0.603441
C42   C     C_2   0.904350 0.463994 0.802475 0.814836
O19   O     O_2   0.965478 0.388336 0.732122 -0.665936
O20   O     O_R   0.971369 0.571235 0.822724 -0.707166
H13   H     H_    0.074521 0.572353 0.779924 0.380575
F3    F     F_    0.089555 0.668008 0.622021 -0.637606
C43   C     C_2   0.375992 0.582987 0.162132 0.862503
O21   O     O_2   0.287167 0.569307 0.243275 -0.557643
O22   O     O_R   0.344583 0.667549 0.095686 -0.759613
H14   H     H_    0.244887 0.709677 0.122799 0.354996
F4    F     F_    0.288560 0.354793 0.109215 -0.619463
F5    F     F_    0.099477 0.320439 0.993963 -0.613551
F6    F     F_    0.748759 0.863731 0.406961 -0.555282

loop_
_geom_bond_atom_site_label_1
_geom_bond_atom_site_label_2
_geom_bond_distance
_ccdc_geom_bond_type
C26   F6    1.357845 S    
C25   C26   1.404777 A    
C11   C18   1.429389 A    
C26   C27   1.386278 A    
C41   O17   1.222489 D    
C8    C9    1.395077 A    
Cu1   N2    2.041191 S    
O18   H12   1.013887 S    
C17   C37   1.475495 S    
Cu1   Cu2   2.715821 S    
C35   C36   1.422901 A    
Cu1   O7    1.977789 S    
C22   H5    1.081795 S    
C21   H4    1.083778 S    
C23   C24   1.401680 A    
O7    C4    1.308848 A    
C42   O20   1.398700 S    
C29   C34   1.408792 A    
C5    H1    1.079082 S    
C9    F4    1.354538 S    
C37   O9    1.223357 D    
C38   O12   1.397728 S    
C7    C8    1.390498 A    
C19   C24   1.422581 A    
C40   O16   1.398542 S    
C35   F1    1.354032 S    
O5    C3    1.306546 A    
C30   C40   1.496047 S    
C43   O21   1.218352 D    
C32   F2    1.331703 S    
C12   C13   1.418604 A    
C7    H2    1.076021 S    
C12   C16   1.418019 A    
Cu2   N1    2.040961 S    
O14   H10   1.014275 S    
C15   H3    1.077082 S    
C10   C11   1.410044 A    
C41   O18   1.399106 S    
C4    C6    1.489576 S    
O3    Cu1   1.974541 S    
C33   C34   1.438910 A    
C29   C30   1.387010 A    
C34   N1    1.375151 A    
C6    C16   1.423922 A    
C13   C14   1.408081 A    
O3    C2    1.324968 A    
C8    F5    1.354444 S    
C24   C25   1.428242 A    
C42   O19   1.222781 D    
C14   C15   1.388813 A    
O22   H14   1.013993 S    
C14   C42   1.478310 S    
C38   O11   1.220553 D    
O1    C1    1.301564 A    
C39   O14   1.397646 S    
C27   C28   1.397040 A    
C23   C28   1.404477 A    
O12   H9    1.009109 S    
C30   C31   1.393804 A    
Cu2   O8    1.974541 S    
C20   C21   1.398307 A    
C7    C18   1.398741 A    
C5    C13   1.399612 A    
C43   O22   1.399860 S    
O8    C4    1.315548 A    
C1    C25   1.476450 S    
C10   C12   1.426872 A    
H6    C27   1.081600 S    
C19   C38   1.491296 S    
C36   F3    1.353295 S    
N1    C35   1.368417 A    
Cu1   O5    1.958102 S    
C36   N2    1.366714 A    
C31   C32   1.407772 A    
O1    Cu1   1.973545 S    
C6    C17   1.414669 A    
C31   C41   1.493433 S    
O2    Cu2   1.958103 S    
O20   H13   1.009909 S    
O6    C3    1.300783 A    
O4    Cu2   1.977788 S    
C33   N2    1.411164 A    
C19   C20   1.426177 A    
C16   C43   1.492774 S    
O2    C1    1.315905 A    
O10   H8    1.008449 S    
O16   H11   1.013915 S    
C39   O13   1.219898 D    
C5    C17   1.385973 A    
O4    C2    1.297720 A    
C20   C39   1.473657 S    
C22   C23   1.405756 A    
C37   O10   1.391823 S    
C21   C22   1.388459 A    
C40   O15   1.223264 D    
C29   H7    1.050867 S    
C2    C18   1.488864 S    
C9    C10   1.414613 A    
Cu2   O6    1.973544 S    
C32   C33   1.445064 A    
C11   C15   1.408472 A    
C3    C28   1.455951 S    
