data_mof_unit_51584.cif
_audit_creation_date              2012-12-10T21:26:08-0500
_audit_creation_method            fapswitch 2.2
_symmetry_space_group_name_H-M    P1
_symmetry_Int_Tables_number       1
_space_group_crystal_system       triclinic
_cell_length_a                    8.60947
_cell_length_b                    16.230551
_cell_length_c                    16.825802
_cell_angle_alpha                 87.418847
_cell_angle_beta                  93.106656
_cell_angle_gamma                 100.210112
_cell_volume                      2309.0426743

loop_
_atom_site_label
_atom_site_type_symbol
_atom_type_description
_atom_site_fract_x
_atom_site_fract_y
_atom_site_fract_z
_atom_type_partial_charge
C1    C     C_R   0.497517 0.488244 0.652683 1.031958
C2    C     C_R   0.439419 0.147616 0.424527 0.250994
C3    C     C_R   0.577868 0.766374 0.574942 0.393888
C4    C     C_R   0.421674 0.233623 0.425109 0.398468
C5    C     C_R   0.799701 0.520937 0.499750 0.958464
C6    C     C_R   0.200298 0.479069 0.500240 0.958689
C7    C     C_2   0.959492 0.529020 0.483404 0.080996
C8    C     C_2   0.040522 0.471006 0.516606 0.082627
C9    C     C_R   0.489345 0.478202 0.738345 -0.251695
C10   C     C_R   0.516747 0.522830 0.262104 -0.258501
C11   C     C_R   0.411777 0.531171 0.778632 -0.189399
C12   C     C_R   0.503066 0.511842 0.347375 1.034660
C13   C     C_R   0.602819 0.472815 0.223187 -0.220683
C14   C     C_R   0.413212 0.526597 0.860906 -0.192497
C15   C     C_R   0.609855 0.479713 0.141162 -0.207808
C16   C     C_R   0.492374 0.468450 0.903489 0.099266
C17   C     C_R   0.531202 0.537451 0.097687 0.100527
C18   C     C_R   0.557559 0.410685 0.863024 0.574595
C19   C     C_R   0.457976 0.592658 0.137230 0.573414
C20   C     C_R   0.556714 0.415412 0.780454 0.545814
C21   C     C_R   0.449929 0.585418 0.219410 0.544310
C22   C     C_R   0.466245 0.756907 0.442544 0.001226
C23   C     C_R   0.534480 0.243109 0.557294 0.001372
C24   C     C_R   0.473524 0.844110 0.437009 -0.246871
C25   C     C_R   0.527539 0.155918 0.562748 -0.246273
C26   C     C_R   0.521561 0.892843 0.503486 0.158612
C27   C     C_R   0.479153 0.107195 0.496307 0.161009
C28   C     C_R   0.560559 0.852415 0.575388 0.265647
F1    F     F_    0.629237 0.352718 0.904017 -0.574697
F2    F     F_    0.386088 0.650026 0.095416 -0.575887
F3    F     F_    0.626879 0.360949 0.742310 -0.582317
F4    F     F_    0.372015 0.637275 0.256516 -0.581161
H1    H     H_    0.662757 0.427788 0.256145 0.244965
H2    H     H_    0.093464 0.340975 0.696504 0.406331
H3    H     H_    0.595353 0.891481 0.791385 0.400463
H4    H     H_    0.405291 0.108929 0.208543 0.401672
H5    H     H_    0.883934 0.785721 0.736086 0.400497
H6    H     H_    0.337149 0.322381 0.227173 0.391104
H7    H     H_    0.351670 0.576637 0.746490 0.231754
H8    H     H_    0.672913 0.438767 0.111475 0.233425
H9    H     H_    0.355522 0.569397 0.891324 0.230106
H10   H     H_    0.577101 0.279538 0.608606 0.254745
H11   H     H_    0.423962 0.720483 0.391172 0.253540
H12   H     H_    0.559343 0.126572 0.618855 0.249405
H13   H     H_    0.442149 0.873422 0.380823 0.249874
H14   H     H_    0.906804 0.658103 0.302825 0.406141
N1    N     N_2   0.511209 0.467903 0.986947 -0.092026
N2    N     N_2   0.516242 0.538399 0.014173 -0.087310
N3    N     N_R   0.519180 0.718290 0.509780 -0.178953
N4    N     N_R   0.480820 0.281710 0.490220 -0.177204
N5    N     N_2   0.557793 0.982360 0.494923 -0.034342
N6    N     N_2   0.442974 0.017680 0.504889 -0.036101
O1    O     O_R   0.493140 0.422050 0.612640 -0.580378
O2    O     O_2   0.121901 0.560182 0.348876 -0.265764
O3    O     O_3   0.862954 0.621036 0.347579 -0.562549
O4    O     O_2   0.877720 0.439732 0.651039 -0.265897
O5    O     O_2   0.886472 0.320936 0.566733 -0.255143
O6    O     O_3   0.137233 0.379398 0.652641 -0.564360
O7    O     O_2   0.740486 0.968922 0.664644 -0.223700
O8    O     O_2   0.455054 0.964324 0.662542 -0.277157
O9    O     O_3   0.567573 0.851784 0.747719 -0.450294
O10   O     O_2   0.540792 0.034208 0.337268 -0.273662
O11   O     O_2   0.256122 0.032603 0.334989 -0.227980
O12   O     O_R   0.506860 0.577950 0.387360 -0.580564
O13   O     O_3   0.432940 0.148439 0.252369 -0.440670
O14   O     O_2   0.596888 0.694274 0.721287 -0.270768
O15   O     O_2   0.784818 0.663050 0.628557 -0.263745
O16   O     O_3   0.837109 0.808097 0.686402 -0.460677
O17   O     O_2   0.176399 0.199931 0.317834 -0.202161
O18   O     O_2   0.214881 0.337291 0.371633 -0.265922
O19   O     O_3   0.412705 0.309263 0.270406 -0.516144
O20   O     O_R   0.505450 0.562230 0.618920 -0.587233
O21   O     O_R   0.494550 0.437770 0.381080 -0.583337
O22   O     O_R   0.723530 0.446300 0.497600 -0.609819
O23   O     O_R   0.276470 0.553700 0.502400 -0.611426
O24   O     O_R   0.735850 0.586490 0.503880 -0.539651
O25   O     O_R   0.264150 0.413510 0.496120 -0.540243
O26   O     O_2   0.114200 0.678995 0.433327 -0.255523
S1    S     S_3+6 0.021528 0.598984 0.401665 0.063552
S2    S     S_3+6 0.978576 0.401089 0.598385 0.063204
S3    S     S_3+6 0.582506 0.911883 0.663576 0.116243
S4    S     S_3+6 0.415715 0.088109 0.336317 0.123088
S5    S     S_3+6 0.698336 0.728955 0.653608 0.118029
S6    S     S_3+6 0.300297 0.270947 0.346631 0.124605
Zn1   Zn    Zn3+2 0.491780 0.406400 0.495810 1.115330
Zn2   Zn    Zn3+2 0.508220 0.593600 0.504190 1.113884

loop_
_geom_bond_atom_site_label_1
_geom_bond_atom_site_label_2
_ccdc_geom_bond_type
O15   S5    D    
C17   N2    S    
C3    N3    A    
C7    C8    D    
C23   H10   S    
C24   H13   S    
C3    C28   A    
C19   C21   A    
C24   C26   A    
O2    S1    D    
C12   O12   A    
C11   C14   A    
H5    O16   S    
C25   H12   S    
C5    O22   A    
C1    O1    A    
O23   Zn2   S    
N4    Zn1   S    
O14   S5    D    
N1    N2    D    
H14   O3    S    
C2    C27   A    
O18   S6    D    
C18   C20   A    
O6    S2    S    
O10   S4    D    
O25   Zn1   S    
C12   O21   A    
O5    S2    D    
C16   N1    S    
O12   Zn2   S    
C10   C21   A    
C21   F4    S    
C1    O20   A    
O11   S4    D    
N5    N6    D    
C6    O23   A    
C1    C9    S    
C5    C7    S    
O26   S1    D    
C6    O25   A    
C6    C8    S    
C4    N4    A    
C2    C4    A    
C13   H1    S    
O3    S1    S    
O8    S3    D    
C9    C20   A    
C22   H11   S    
C4    S6    S    
C8    S2    S    
H3    O9    S    
C18   F1    S    
C11   H7    S    
C9    C11   A    
O21   Zn1   S    
C10   C12   S    
C14   H9    S    
C13   C15   A    
C3    S5    S    
C14   C16   A    
C2    S4    S    
O24   Zn2   S    
C27   N6    S    
C7    S1    S    
O19   S6    S    
C22   N3    A    
C15   C17   A    
H6    O19   S    
C28   S3    S    
H4    O13   S    
O16   S5    S    
N3    Zn2   S    
O7    S3    D    
C23   N4    A    
C10   C13   A    
O20   Zn2   S    
C25   C27   A    
C26   C28   A    
O4    S2    D    
C5    O24   A    
O17   S6    D    
O9    S3    S    
C26   N5    S    
O13   S4    S    
C17   C19   A    
C22   C24   A    
C23   C25   A    
O22   Zn1   S    
C15   H8    S    
C16   C18   A    
H2    O6    S    
O1    Zn1   S    
C19   F2    S    
C20   F3    S    
