data_mof_unit_65985.cif
_audit_creation_date              2012-12-10T18:40:12-0500
_audit_creation_method            fapswitch 2.2
_symmetry_space_group_name_H-M    P1
_symmetry_Int_Tables_number       1
_space_group_crystal_system       triclinic
_cell_length_a                    30.045519
_cell_length_b                    30.252111
_cell_length_c                    24.497789
_cell_angle_alpha                 90.006849
_cell_angle_beta                  127.582045
_cell_angle_gamma                 89.995433
_cell_volume                      17646.1934356

loop_
_atom_site_label
_atom_site_type_symbol
_atom_type_description
_atom_site_fract_x
_atom_site_fract_y
_atom_site_fract_z
_atom_type_partial_charge
C1    C     C_R   0.811387 0.810640 0.500971 0.874655
C2    C     C_R   0.535967 0.742881 0.069935 0.301536
C3    C     C_3   0.854267 0.109425 0.531721 -0.179709
C4    C     C_3   0.656970 0.589539 0.533983 -0.193064
C5    C     C_3   0.343046 0.589527 0.466066 -0.192859
C6    C     C_3   0.156979 0.089549 0.534022 -0.193191
C7    C     C_3   0.843063 0.089509 0.466144 -0.192548
C8    C     C_3   0.665742 0.636236 0.563784 0.054959
C9    C     C_3   0.334243 0.636211 0.436227 0.054907
C10   C     C_3   0.165724 0.136254 0.563787 0.054906
C11   C     C_3   0.834209 0.136176 0.436235 0.054923
C12   C     C_3   0.654791 0.655643 0.499253 -0.021762
C13   C     C_R   0.968318 0.243075 0.929958 0.302511
C14   C     C_3   0.345214 0.655645 0.500758 -0.021642
C15   C     C_3   0.154793 0.155643 0.499259 -0.021919
C16   C     C_3   0.845220 0.155646 0.500771 -0.021683
C17   C     C_R   0.439282 0.560859 0.500151 0.869416
C18   C     C_R   0.560721 0.560860 0.499853 0.869408
C19   C     C_R   0.939282 0.060859 0.500152 0.869367
C20   C     C_R   0.060721 0.060860 0.499853 0.869424
C21   C     C_R   0.939454 0.939028 0.500125 0.890610
C22   C     C_R   0.060544 0.939029 0.499870 0.890705
C23   C     C_R   0.439451 0.439029 0.500124 0.890617
C24   C     C_R   0.037905 0.243262 0.069467 0.301705
C25   C     C_R   0.560550 0.439031 0.499875 0.890666
C26   C     C_R   0.816822 0.749622 0.634602 0.874744
C27   C     C_R   0.183178 0.749620 0.365401 0.874670
C28   C     C_R   0.316822 0.249622 0.634602 0.874764
C29   C     C_R   0.683178 0.249620 0.365401 0.874438
C30   C     C_R   0.622601 0.788368 0.250166 0.181896
C31   C     C_R   0.377798 0.788192 0.749911 0.181435
C32   C     C_R   0.121468 0.288406 0.249945 0.181415
C33   C     C_R   0.872516 0.288624 0.749680 0.190868
C34   C     C_R   0.587132 0.785017 0.178320 -0.199354
C35   C     C_3   0.862945 0.887543 0.541344 0.032814
C36   C     C_R   0.413757 0.784728 0.821728 -0.198834
C37   C     C_R   0.086630 0.285126 0.178070 -0.199636
C38   C     C_R   0.910530 0.285220 0.821382 -0.208714
C39   C     C_R   0.573465 0.743772 0.145561 0.024650
C40   C     C_R   0.427332 0.743464 0.854589 0.022120
C41   C     C_R   0.075042 0.244084 0.145211 0.024143
C42   C     C_R   0.929530 0.243920 0.854121 0.023071
C43   C     C_R   0.596624 0.704812 0.185418 0.213420
C44   C     C_R   0.404465 0.704495 0.814421 0.213671
C45   C     C_R   0.099710 0.205281 0.185142 0.212989
C46   C     C_3   0.137269 0.887633 0.458895 0.032728
C47   C     C_R   0.910948 0.204905 0.813897 0.215108
C48   C     C_R   0.632440 0.708216 0.257239 -0.233556
C49   C     C_R   0.368225 0.708068 0.742603 -0.233432
C50   C     C_R   0.134720 0.208616 0.256968 -0.233058
C51   C     C_R   0.873413 0.208400 0.742122 -0.236052
C52   C     C_3   0.637126 0.833571 0.282847 -0.868062
C53   C     C_3   0.362952 0.833452 0.717366 -0.868436
C54   C     C_3   0.133842 0.333500 0.282562 -0.866116
C55   C     C_3   0.851009 0.334020 0.718901 -0.894954
C56   C     C_1   0.780931 0.779596 0.718126 0.214608
C57   C     C_3   0.362827 0.387597 0.541216 0.032833
C58   C     C_1   0.219105 0.779483 0.281885 0.214361
C59   C     C_1   0.280936 0.279604 0.718128 0.214597
C60   C     C_1   0.719112 0.279469 0.281888 0.214218
C61   C     C_1   0.999556 0.708328 0.846038 0.186124
C62   C     C_1   0.000380 0.708435 0.153962 0.186118
C63   C     C_1   0.499554 0.208323 0.846037 0.186043
C64   C     C_1   0.500376 0.208445 0.153961 0.186059
C65   C     C_1   0.712020 0.649442 0.634451 0.143384
C66   C     C_1   0.287941 0.649388 0.365558 0.143529
C67   C     C_1   0.211982 0.149478 0.634454 0.143372
C68   C     C_3   0.637109 0.387550 0.458719 0.033109
C69   C     C_1   0.787865 0.149316 0.365565 0.143430
C70   C     C_3   0.585501 0.659774 0.153005 -0.877041
C71   C     C_3   0.419316 0.658978 0.846114 -0.874214
C72   C     C_3   0.091123 0.160507 0.152934 -0.875997
C73   C     C_3   0.931845 0.159650 0.845514 -0.874842
C74   C     C_1   0.848164 0.901392 0.585862 0.183648
C75   C     C_1   0.152285 0.901586 0.414656 0.184004
C76   C     C_1   0.347923 0.401506 0.585588 0.183674
C77   C     C_1   0.651927 0.401405 0.414244 0.184203
C78   C     C_1   0.938748 0.796362 0.552530 0.196109
C79   C     C_3   0.846201 0.912528 0.476509 -0.216186
C80   C     C_1   0.061064 0.796476 0.446806 0.196063
C81   C     C_1   0.438851 0.296429 0.552886 0.195942
C82   C     C_1   0.561250 0.296380 0.447405 0.196337
C83   C     C_3   0.905141 0.847550 0.414734 -0.889050
C84   C     C_3   0.094372 0.847377 0.584688 -0.890072
C85   C     C_3   0.405409 0.347448 0.415052 -0.889268
C86   C     C_3   0.594793 0.347545 0.585191 -0.889964
C87   C     C_3   0.153887 0.912475 0.523784 -0.216366
C88   C     C_3   0.346143 0.412499 0.476347 -0.216514
C89   C     C_R   0.188609 0.810640 0.499016 0.874547
C90   C     C_3   0.653831 0.412524 0.523559 -0.216306
C91   C     C_3   0.906310 0.905145 0.500574 -0.019306
C92   C     C_3   0.093683 0.905147 0.499409 -0.019259
C93   C     C_3   0.406304 0.405147 0.500574 -0.019199
C94   C     C_3   0.593704 0.405150 0.499439 -0.019189
C95   C     C_3   0.923538 0.881023 0.566192 -0.285594
C96   C     C_3   0.076584 0.881170 0.433742 -0.285554
C97   C     C_3   0.423468 0.381109 0.566222 -0.285599
C98   C     C_3   0.576503 0.381039 0.433821 -0.286071
C99   C     C_3   0.905802 0.837339 0.525434 0.006262
C100  C     C_R   0.311393 0.310641 0.500986 0.874739
C101  C     C_3   0.094099 0.837397 0.474239 0.006251
C102  C     C_3   0.405853 0.337373 0.525607 0.006321
C103  C     C_3   0.594207 0.337349 0.474547 0.006694
C104  C     C_3   0.889559 0.861666 0.460768 0.201352
C105  C     C_3   0.110214 0.861582 0.538953 0.201734
C106  C     C_3   0.389671 0.361617 0.460910 0.201580
C107  C     C_3   0.610429 0.361665 0.539217 0.201966
C108  C     C_3   0.828904 0.868221 0.436276 -0.180409
C109  C     C_3   0.170963 0.868081 0.563752 -0.180582
C110  C     C_3   0.328965 0.368140 0.436258 -0.180613
C111  C     C_R   0.688621 0.310639 0.499041 0.870464
C112  C     C_3   0.671102 0.368210 0.563761 -0.183230
C113  C     C_3   0.845843 0.843980 0.501668 -0.100978
C114  C     C_3   0.154153 0.843983 0.498310 -0.100846
C115  C     C_3   0.345845 0.343983 0.501684 -0.101050
C116  C     C_3   0.654180 0.343981 0.498360 -0.099020
C117  C     C_R   0.683104 0.750310 0.365416 0.874814
C118  C     C_R   0.316894 0.750318 0.634579 0.874501
C119  C     C_R   0.183114 0.250337 0.365357 0.874265
C120  C     C_R   0.816600 0.250511 0.634468 0.865563
C121  C     C_R   0.836968 0.763434 0.749300 -0.003713
C122  C     C_R   0.645180 0.749377 0.289924 -0.087319
C123  C     C_R   0.163044 0.763381 0.250706 -0.003640
C124  C     C_R   0.336971 0.263438 0.749301 -0.003741
C125  C     C_R   0.663048 0.263374 0.250707 -0.003643
C126  C     C_R   0.874312 0.761185 0.820837 -0.200878
C127  C     C_R   0.125694 0.761136 0.179170 -0.200948
C128  C     C_R   0.374315 0.261190 0.820837 -0.200914
C129  C     C_R   0.625699 0.261129 0.179171 -0.200940
C130  C     C_R   0.928646 0.744042 0.854637 0.020755
C131  C     C_R   0.071336 0.744044 0.145367 0.020797
C132  C     C_R   0.428648 0.244043 0.854638 0.020747
C133  C     C_R   0.354990 0.749286 0.710060 -0.086811
C134  C     C_R   0.571338 0.244043 0.145367 0.020798
C135  C     C_R   0.945512 0.728583 0.815350 0.017246
C136  C     C_R   0.054452 0.728635 0.184653 0.017327
C137  C     C_R   0.445512 0.228581 0.815350 0.017254
C138  C     C_R   0.554451 0.228640 0.184653 0.017336
C139  C     C_R   0.908375 0.731298 0.743856 -0.234860
C140  C     C_R   0.091597 0.731346 0.256148 -0.234896
C141  C     C_R   0.408374 0.231296 0.743856 -0.234904
C142  C     C_R   0.591596 0.231351 0.256148 -0.234853
C143  C     C_R   0.854204 0.748666 0.710155 -0.094262
C144  C     C_R   0.145444 0.249534 0.289745 -0.089308
C145  C     C_R   0.145791 0.748663 0.289849 -0.094229
C146  C     C_R   0.354205 0.248667 0.710155 -0.094302
C147  C     C_R   0.645792 0.248662 0.289849 -0.094166
C148  C     C_R   0.033983 0.742900 0.069673 0.293532
C149  C     C_R   0.965996 0.742898 0.930331 0.293525
C150  C     C_R   0.533986 0.242899 0.069673 0.293525
C151  C     C_R   0.465998 0.242899 0.930332 0.293500
C152  C     C_3   0.592036 0.660639 0.464931 -0.178437
C153  C     C_3   0.407959 0.660653 0.535045 -0.178419
C154  C     C_3   0.092031 0.160629 0.464901 -0.178426
C155  C     C_R   0.854426 0.249659 0.709758 -0.072674
C156  C     C_3   0.907950 0.160672 0.534986 -0.178222
C157  C     C_3   0.603008 0.640902 0.530507 -0.192225
C158  C     C_3   0.396968 0.640888 0.469467 -0.192203
C159  C     C_3   0.102982 0.140911 0.530474 -0.192153
C160  C     C_3   0.896918 0.140872 0.469404 -0.192244
C161  C     C_3   0.594224 0.594726 0.499560 0.004984
C162  C     C_3   0.405783 0.594726 0.500452 0.005188
C163  C     C_3   0.094225 0.094726 0.499563 0.004939
C164  C     C_3   0.905785 0.094726 0.500457 0.005360
C165  C     C_R   0.688797 0.689262 0.499418 0.868721
C166  C     C_R   0.465911 0.742669 0.930473 0.302015
C167  C     C_R   0.311205 0.689263 0.500587 0.868554
C168  C     C_R   0.188798 0.189262 0.499422 0.869158
C169  C     C_R   0.811210 0.189264 0.500598 0.868092
C170  C     C_3   0.582544 0.613902 0.434009 -0.154764
C171  C     C_3   0.417484 0.613929 0.566006 -0.155165
C172  C     C_3   0.082565 0.113884 0.434014 -0.154637
C173  C     C_3   0.917527 0.113965 0.566017 -0.155661
C174  C     C_3   0.645828 0.609391 0.468413 -0.179010
C175  C     C_3   0.354208 0.609407 0.531638 -0.179347
C176  C     C_3   0.145857 0.109382 0.468454 -0.178839
H1    H     H_    0.789912 0.862078 0.383448 0.140441
H2    H     H_    0.078041 0.719655 0.285749 0.170796
H3    H     H_    0.421917 0.219563 0.714256 0.170819
H4    H     H_    0.578037 0.219664 0.285748 0.170759
H5    H     H_    0.584936 0.652721 0.556144 0.139899
H6    H     H_    0.415017 0.652693 0.443800 0.139928
H7    H     H_    0.084888 0.152737 0.556082 0.139929
H8    H     H_    0.914922 0.152662 0.443677 0.139971
H9    H     H_    0.566391 0.690381 0.436620 0.153874
H10   H     H_    0.433594 0.690407 0.563325 0.153936
H11   H     H_    0.066381 0.190364 0.436563 0.153824
H12   H     H_    0.209853 0.861818 0.616613 0.139985
H13   H     H_    0.933575 0.190440 0.563213 0.154336
H14   H     H_    0.547527 0.603928 0.380544 0.154820
H15   H     H_    0.452519 0.603976 0.619471 0.154490
H16   H     H_    0.047564 0.103895 0.380550 0.154842
H17   H     H_    0.952593 0.104041 0.619484 0.154343
H18   H     H_    0.663900 0.597404 0.442862 0.153732
H19   H     H_    0.336160 0.597436 0.557220 0.153527
H20   H     H_    0.163951 0.097387 0.442934 0.153814
H21   H     H_    0.836264 0.097470 0.557365 0.153531
H22   H     H_    0.682575 0.559797 0.562419 0.138384
H23   H     H_    0.290000 0.361916 0.383432 0.140838
H24   H     H_    0.317452 0.559773 0.437661 0.138366
H25   H     H_    0.182588 0.059814 0.562485 0.138394
H26   H     H_    0.817480 0.059740 0.437794 0.138302
H27   H     H_    0.569519 0.814800 0.147454 0.158843
H28   H     H_    0.430882 0.814593 0.852456 0.160904
H29   H     H_    0.067899 0.314823 0.147262 0.159447
H30   H     H_    0.924176 0.315146 0.852044 0.166431
H31   H     H_    0.650253 0.678468 0.288177 0.159440
H32   H     H_    0.350763 0.678360 0.711486 0.159006
H33   H     H_    0.153584 0.178950 0.287844 0.161063
H34   H     H_    0.710098 0.362048 0.616587 0.143390
H35   H     H_    0.859456 0.178725 0.710855 0.154781
H36   H     H_    0.822879 0.944270 0.457010 0.140706
H37   H     H_    0.177287 0.944173 0.543536 0.140726
H38   H     H_    0.322777 0.444216 0.456713 0.140737
H39   H     H_    0.677160 0.444262 0.543090 0.140824
H40   H     H_    0.962581 0.886826 0.619143 0.168279
H41   H     H_    0.037645 0.887091 0.380754 0.168463
H42   H     H_    0.462456 0.386979 0.619191 0.168252
H43   H     H_    0.537475 0.386853 0.380864 0.168458
H44   H     H_    0.683449 0.837615 0.319232 0.228121
H45   H     H_    0.860736 0.773036 0.850335 0.160682
H46   H     H_    0.620059 0.860305 0.243797 0.231561
H47   H     H_    0.619089 0.837866 0.310776 0.259402
H48   H     H_    0.316604 0.837425 0.681382 0.227327
H49   H     H_    0.380183 0.860132 0.756526 0.231334
H50   H     H_    0.380599 0.837924 0.689017 0.260375
H51   H     H_    0.179952 0.338733 0.319359 0.229880
H52   H     H_    0.115907 0.360310 0.243536 0.230990
H53   H     H_    0.115200 0.336469 0.309963 0.259141
H54   H     H_    0.814143 0.333172 0.663774 0.241828
H55   H     H_    0.837425 0.351571 0.746320 0.232321
H56   H     H_    0.139285 0.772948 0.149673 0.160584
H57   H     H_    0.885096 0.353309 0.724700 0.252500
H58   H     H_    0.595043 0.659995 0.115772 0.247005
H59   H     H_    0.611990 0.633887 0.192091 0.233202
H60   H     H_    0.540957 0.650423 0.126233 0.254155
H61   H     H_    0.465658 0.655097 0.882503 0.245620
H62   H     H_    0.400943 0.653720 0.873478 0.257289
H63   H     H_    0.402672 0.632622 0.806539 0.230862
H64   H     H_    0.100972 0.162073 0.116036 0.247268
H65   H     H_    0.118823 0.135047 0.192172 0.232879
H66   H     H_    0.047078 0.149547 0.125896 0.254321
H67   H     H_    0.360741 0.273043 0.850336 0.160680
H68   H     H_    0.978471 0.159388 0.881412 0.245045
H69   H     H_    0.914914 0.150392 0.873457 0.257313
H70   H     H_    0.918198 0.133902 0.805815 0.230841
H71   H     H_    0.888491 0.813917 0.394233 0.249325
H72   H     H_    0.886789 0.871012 0.371115 0.254688
H73   H     H_    0.951483 0.847269 0.444772 0.231517
H74   H     H_    0.110909 0.813704 0.605057 0.249362
H75   H     H_    0.112659 0.870754 0.628403 0.254420
H76   H     H_    0.048011 0.847157 0.554463 0.231618
H77   H     H_    0.388817 0.313795 0.394614 0.249360
H78   H     H_    0.639292 0.272937 0.149675 0.160565
H79   H     H_    0.387104 0.370865 0.371387 0.254666
H80   H     H_    0.451764 0.347195 0.445209 0.231491
H81   H     H_    0.611432 0.313911 0.605684 0.249422
H82   H     H_    0.613119 0.371004 0.628816 0.254275
H83   H     H_    0.548445 0.347268 0.555105 0.231676
H84   H     H_    0.921919 0.719567 0.714257 0.170802
N1    N     N_R   0.494337 0.712492 0.034887 -0.166964
N2    N     N_R   0.977422 0.743241 0.033352 -0.156399
N3    N     N_R   0.522560 0.243186 0.966652 -0.156508
N4    N     N_R   0.477424 0.243246 0.033353 -0.156407
N5    N     N_R   0.055927 0.743079 0.035011 -0.166656
N6    N     N_R   0.944052 0.743129 0.964993 -0.166615
N7    N     N_R   0.555929 0.243074 0.035012 -0.166697
N8    N     N_R   0.444055 0.243134 0.964993 -0.166635
N9    N     N_1   0.736056 0.792496 0.693279 -0.188115
N10   N     N_1   0.263998 0.792336 0.306735 -0.188427
N11   N     N_1   0.236062 0.292508 0.693282 -0.188013
N12   N     N_R   0.459916 0.712430 0.966420 -0.167049
N13   N     N_1   0.764009 0.292315 0.306739 -0.188313
N14   N     N_1   0.042782 0.692055 0.870414 -0.176240
N15   N     N_1   0.957131 0.692206 0.129584 -0.176577
N16   N     N_1   0.542779 0.192048 0.870413 -0.176323
N17   N     N_1   0.457125 0.192220 0.129583 -0.176672
N18   N     N_1   0.748544 0.659915 0.690118 -0.195165
N19   N     N_1   0.251400 0.659838 0.309890 -0.195017
N20   N     N_1   0.248489 0.159966 0.690120 -0.195185
N21   N     N_1   0.751291 0.159738 0.309896 -0.195062
N22   N     N_1   0.836498 0.912272 0.620973 -0.197574
N23   N     N_R   0.999081 0.210894 0.034150 -0.167252
N24   N     N_1   0.164137 0.912547 0.379766 -0.197807
N25   N     N_1   0.336160 0.412433 0.620583 -0.197774
N26   N     N_1   0.663622 0.412288 0.379168 -0.197612
N27   N     N_1   0.964737 0.764084 0.573872 -0.194462
N28   N     N_1   0.035007 0.764241 0.425197 -0.194445
N29   N     N_1   0.464879 0.264175 0.574373 -0.194454
N30   N     N_1   0.535254 0.264107 0.426026 -0.194433
N31   N     N_R   0.964910 0.210828 0.965689 -0.166824
N32   N     N_R   0.507025 0.773533 0.965647 -0.176153
N33   N     N_R   0.541387 0.773672 0.034114 -0.173571
N34   N     N_R   0.006522 0.275908 0.965313 -0.175458
N35   N     N_R   0.040683 0.276005 0.033806 -0.174380
N36   N     N_R   0.022558 0.743190 0.966651 -0.156481
O1    O     O_R   0.822760 0.770240 0.499990 -0.617234
O2    O     O_R   0.075230 0.953450 0.557500 -0.622126
O3    O     O_R   0.424770 0.453450 0.442500 -0.621918
O4    O     O_R   0.575230 0.453450 0.557500 -0.622203
O5    O     O_R   0.982280 0.953430 0.557510 -0.628347
O6    O     O_R   0.017720 0.953430 0.442490 -0.628222
O7    O     O_R   0.482280 0.453430 0.557510 -0.628372
O8    O     O_R   0.517720 0.453430 0.442490 -0.628175
O9    O     O_R   0.770230 0.822760 0.499990 -0.616096
O10   O     O_R   0.229770 0.822760 0.500010 -0.616094
O11   O     O_R   0.270230 0.322760 0.499990 -0.616260
O12   O     O_R   0.177240 0.770240 0.500010 -0.617281
O13   O     O_R   0.729770 0.322760 0.500010 -0.618803
O14   O     O_R   0.725330 0.723740 0.398130 -0.622730
O15   O     O_R   0.274670 0.723740 0.601870 -0.622548
O16   O     O_R   0.225330 0.223740 0.398130 -0.623230
O17   O     O_R   0.774670 0.223740 0.601870 -0.620691
O18   O     O_R   0.672800 0.776260 0.398130 -0.617281
O19   O     O_R   0.327200 0.776260 0.601870 -0.617059
O20   O     O_R   0.172800 0.276260 0.398130 -0.617200
O21   O     O_R   0.827200 0.276260 0.601870 -0.612498
O22   O     O_R   0.729750 0.677220 0.500010 -0.625821
O23   O     O_R   0.322760 0.270240 0.499990 -0.617163
O24   O     O_R   0.270250 0.677220 0.499990 -0.625834
O25   O     O_R   0.229750 0.177220 0.500010 -0.625774
O26   O     O_R   0.770250 0.177220 0.499990 -0.625707
O27   O     O_R   0.677220 0.729740 0.500010 -0.620690
O28   O     O_R   0.322780 0.729740 0.499990 -0.620630
O29   O     O_R   0.177220 0.229740 0.500010 -0.620637
O30   O     O_R   0.822780 0.229740 0.499990 -0.620071
O31   O     O_R   0.827180 0.723730 0.601860 -0.620218
O32   O     O_R   0.172820 0.723730 0.398140 -0.620211
O33   O     O_R   0.327180 0.223730 0.601860 -0.620222
O34   O     O_R   0.677240 0.270240 0.500010 -0.616901
O35   O     O_R   0.672820 0.223730 0.398140 -0.620300
O36   O     O_R   0.774660 0.776250 0.601860 -0.609336
O37   O     O_R   0.225340 0.776250 0.398140 -0.609360
O38   O     O_R   0.274660 0.276250 0.601860 -0.609307
O39   O     O_R   0.725340 0.276250 0.398140 -0.609306
O40   O     O_R   0.424770 0.546480 0.442520 -0.623105
O41   O     O_R   0.575230 0.546480 0.557480 -0.623272
O42   O     O_R   0.924770 0.046480 0.442520 -0.623130
O43   O     O_R   0.075230 0.046480 0.557480 -0.623249
O44   O     O_R   0.482280 0.546460 0.557530 -0.627816
O45   O     O_R   0.517720 0.546460 0.442470 -0.627652
O46   O     O_R   0.982280 0.046460 0.557530 -0.627813
O47   O     O_R   0.017720 0.046460 0.442470 -0.627663
O48   O     O_R   0.924770 0.953450 0.442500 -0.621923
Zn1   Zn    Zn3+2 0.785070 0.714920 0.500000 0.976930
Zn2   Zn    Zn3+2 0.038370 0.999960 0.576800 0.956946
Zn3   Zn    Zn3+2 0.461630 0.499960 0.423200 0.957829
Zn4   Zn    Zn3+2 0.538370 0.499960 0.576800 0.956760
Zn5   Zn    Zn3+2 0.214930 0.714920 0.500000 0.977005
Zn6   Zn    Zn3+2 0.285070 0.214920 0.500000 0.976531
Zn7   Zn    Zn3+2 0.714930 0.214920 0.500000 0.977981
Zn8   Zn    Zn3+2 0.714920 0.785060 0.500000 0.984432
Zn9   Zn    Zn3+2 0.285080 0.785060 0.500000 0.984566
Zn10  Zn    Zn3+2 0.214920 0.285060 0.500000 0.984213
Zn11  Zn    Zn3+2 0.785080 0.285060 0.500000 0.989092
Zn12  Zn    Zn3+2 0.961630 0.999960 0.423200 0.957796

loop_
_geom_bond_atom_site_label_1
_geom_bond_atom_site_label_2
_ccdc_geom_bond_type
C33   C55   S    
C118  O19   A    
C52   H46   S    
C107  C112  S    
C2    N33   A    
C136  C140  A    
C64   C138  S    
N3    N7    A    
C61   C135  S    
C13   N34   A    
C111  O34   A    
O24   Zn5   S    
C31   C36   A    
C95   C99   S    
C73   H69   S    
C59   C124  S    
N1    N12   A    
C49   C133  A    
C53   H49   S    
C51   H35   S    
C131  C148  S    
C162  C171  S    
C30   C122  A    
C50   H33   S    
C140  H2    S    
C54   H53   S    
C81   C102  S    
O11   Zn10  S    
C118  O15   A    
C83   H73   S    
C24   C41   S    
C100  C115  S    
C1    C113  S    
C8    C157  S    
C175  H19   S    
C13   C42   S    
C5    H24   S    
C79   H36   S    
C156  C173  S    
C85   H79   S    
O14   Zn1   S    
C83   C104  S    
C132  C137  A    
C20   C163  S    
N5    N36   A    
C27   O32   A    
C148  N5    A    
C135  C139  A    
C86   H81   S    
C99   C113  S    
C14   C175  S    
C72   H66   S    
C152  C170  S    
O31   Zn1   S    
C27   C145  S    
C19   O46   A    
C57   C97   S    
C139  H84   S    
C84   C105  S    
C164  C173  S    
C163  C172  S    
C68   C116  S    
O25   Zn6   S    
C174  H18   S    
C119  O16   A    
C123  C127  A    
C18   O41   A    
C57   C76   S    
C12   C174  S    
C170  C174  S    
C68   C77   S    
O43   Zn2   S    
O6    Zn12  S    
C152  C157  S    
O42   Zn12  S    
O34   Zn7   S    
C140  C145  A    
C26   O36   A    
C28   O38   A    
C58   N10   T    
O20   Zn10  S    
C33   C38   A    
C103  C116  S    
C89   O10   A    
C5    C162  S    
C1    O9    A    
C9    C158  S    
C25   O4    A    
C108  H1    S    
C35   C113  S    
C168  O25   A    
O9    Zn8   S    
C127  C131  A    
C54   H51   S    
C32   C144  A    
C125  C129  A    
C151  N8    A    
C46   C96   S    
C6    C163  S    
O17   Zn7   S    
C83   H71   S    
C65   N18   T    
C126  C130  A    
C119  O20   A    
C103  C107  S    
C148  N2    A    
C96   H41   S    
C12   C152  S    
C29   O39   A    
O15   Zn5   S    
O45   Zn3   S    
C172  H16   S    
C51   C155  A    
C149  N36   A    
C165  O27   A    
O39   Zn11  S    
C22   O6    A    
C18   C161  S    
C176  H20   S    
C92   C96   S    
C153  C158  S    
O18   Zn8   S    
O28   Zn9   S    
C139  C143  A    
C16   C169  S    
C142  H4    S    
C15   C154  S    
O8    Zn3   S    
O38   Zn10  S    
C61   N14   T    
C24   N23   A    
C34   H27   S    
C79   C91   S    
C70   H59   S    
C156  H13   S    
C4    H22   S    
C165  O22   A    
C8    C65   S    
C84   H75   S    
C95   H40   S    
C63   C137  S    
C55   H54   S    
O21   Zn11  S    
C46   C75   S    
C50   C144  A    
C68   C98   S    
C94   C107  S    
C80   N28   T    
C30   C34   A    
C154  C172  S    
C34   C39   A    
C71   H62   S    
C123  C145  A    
C156  C160  S    
C6    H25   S    
C131  C136  A    
C89   O12   A    
C12   C165  S    
C32   C37   A    
C124  C146  A    
C75   N24   T    
O3    Zn3   S    
C23   C93   S    
C117  C122  S    
C5    C9    S    
C93   C106  S    
C63   N16   T    
C68   C90   S    
C49   H32   S    
C8    C12   S    
C66   N19   T    
C120  O21   A    
C109  C114  S    
C4    C161  S    
O27   Zn8   S    
O19   Zn9   S    
O32   Zn5   S    
C119  C144  S    
C26   C143  S    
C93   C97   S    
C112  C116  S    
C46   C87   S    
C132  C151  S    
C105  C109  S    
O10   Zn9   S    
C41   C45   A    
C97   H42   S    
C37   H29   S    
C142  C147  A    
C33   C155  A    
C151  N3    A    
C78   C99   S    
C19   O42   A    
C28   C146  S    
C154  C159  S    
C26   O31   A    
C73   H68   S    
C28   O33   A    
C110  C115  S    
C35   C79   S    
C127  H56   S    
C37   C41   A    
C15   C168  S    
C100  O23   A    
C6    C10   S    
C91   C95   S    
C40   C44   A    
C22   C92   S    
C98   H43   S    
C81   N29   T    
C3    C16   S    
C85   C106  S    
C150  N4    A    
O26   Zn7   S    
O1    Zn1   S    
C35   C74   S    
C169  O26   A    
C167  O24   A    
O7    Zn4   S    
C130  C135  A    
C126  H45   S    
O35   Zn7   S    
C57   C115  S    
O13   Zn11  S    
C25   O8    A    
C58   C123  S    
C15   C176  S    
C160  C164  S    
C1    O1    A    
C60   C125  S    
C3    C7    S    
N34   N35   A    
O23   Zn6   S    
C153  H10   S    
C94   C98   S    
C98   C103  S    
C86   H82   S    
C30   C52   S    
C102  C115  S    
C88   C93   S    
O41   Zn4   S    
C16   C156  S    
C100  O11   A    
C111  C116  S    
C29   O35   A    
C167  O28   A    
C91   C104  S    
C97   C102  S    
O4    Zn4   S    
C4    C8    S    
C124  C128  A    
C88   C110  S    
O29   Zn10  S    
C99   C104  S    
C25   C94   S    
C4    C174  S    
C96   C101  S    
C101  C114  S    
C5    C175  S    
C22   O2    A    
C157  H5    S    
C149  N6    A    
C56   N9    T    
C32   C54   S    
C90   H39   S    
C11   C160  S    
C90   C94   S    
C84   H74   S    
C55   H55   S    
C47   C73   S    
O46   Zn2   S    
C20   O43   A    
C47   C51   A    
C73   H70   S    
N23   N31   A    
C71   H63   S    
O16   Zn6   S    
C9    C14   S    
C134  C138  A    
C53   H50   S    
C11   C16   S    
C171  H15   S    
C70   H60   S    
O5    Zn2   S    
C54   H52   S    
C141  C146  A    
C138  C142  A    
C157  C161  S    
C104  C108  S    
C23   O3    A    
O47   Zn12  S    
C21   C91   S    
C137  C141  A    
C89   C114  S    
C85   H80   S    
C141  H3    S    
C166  N12   A    
C29   C147  S    
C11   C69   S    
C87   C109  S    
C35   C95   S    
C7    C164  S    
C120  O17   A    
O36   Zn8   S    
C45   C50   A    
C48   H31   S    
C62   N15   T    
C120  C155  S    
C129  C134  A    
C92   C105  S    
C111  O13   A    
C74   N22   T    
C52   H47   S    
C128  H67   S    
C14   C167  S    
C10   C159  S    
C17   O40   A    
C112  H34   S    
C44   C49   A    
C108  C113  S    
C84   H76   S    
C121  C143  A    
C86   C107  S    
C90   C112  S    
C77   N26   T    
C31   C133  A    
C10   C67   S    
C53   H48   S    
C7    C11   S    
C88   H38   S    
C71   H61   S    
N32   N33   A    
C38   C42   A    
C7    H26   S    
C10   C15   S    
C48   C122  A    
C2    N1    A    
C134  C150  S    
O22   Zn1   S    
C44   C71   S    
C70   H58   S    
C62   C136  S    
C9    C66   S    
C82   N30   T    
C2    C39   S    
C3    C173  S    
C69   N21   T    
C169  O30   A    
C83   H72   S    
C82   C103  S    
C72   H64   S    
O37   Zn9   S    
C43   C48   A    
C40   C166  S    
C19   C164  S    
C17   O44   A    
C166  N32   A    
C45   C72   S    
O33   Zn6   S    
C55   H57   S    
C128  C132  A    
C117  O18   A    
C109  H12   S    
C101  C105  S    
C52   H44   S    
C60   N13   T    
C46   C114  S    
C18   O45   A    
C36   C40   A    
C39   C43   A    
C27   O37   A    
C171  C175  S    
O2    Zn2   S    
C125  C147  A    
C64   N17   T    
N4    N8    A    
C153  C171  S    
C130  C149  S    
C87   H37   S    
C59   N11   T    
O12   Zn5   S    
C31   C53   S    
C158  H6    S    
O48   Zn12  S    
C118  C133  S    
C161  C170  S    
C13   N31   A    
C43   C70   S    
C14   C153  S    
C159  C163  S    
C76   N25   T    
C168  O29   A    
C79   C108  S    
C20   O47   A    
C78   N27   T    
C24   N35   A    
C87   C92   S    
O30   Zn11  S    
C106  C110  S    
C117  O14   A    
C38   H30   S    
C110  H23   S    
C72   H65   S    
C152  H9    S    
N2    N6    A    
O44   Zn4   S    
C170  H14   S    
C85   H77   S    
C57   C88   S    
C80   C101  S    
C56   C121  S    
O40   Zn3   S    
C21   O48   A    
C121  C126  A    
C173  H17   S    
C6    C176  S    
C3    H21   S    
C102  C106  S    
C21   O5    A    
C42   C47   A    
C86   H83   S    
C23   O7    A    
C17   C162  S    
C158  C162  S    
C154  H11   S    
C172  C176  S    
C129  H78   S    
C36   H28   S    
C159  H7    S    
C67   N20   T    
C150  N7    A    
C160  H8    S    
