data_mof_unit_15133.cif
_audit_creation_date              2012-12-10T18:58:12-0500
_audit_creation_method            fapswitch 2.2
_symmetry_space_group_name_H-M    P1
_symmetry_Int_Tables_number       1
_space_group_crystal_system       triclinic
_cell_length_a                    10.964163
_cell_length_b                    10.848825
_cell_length_c                    9.527956
_cell_angle_alpha                 90.449961
_cell_angle_beta                  100.58444
_cell_angle_gamma                 89.444817
_cell_volume                      1113.97709379

loop_
_atom_site_label
_atom_site_type_symbol
_atom_type_description
_atom_site_fract_x
_atom_site_fract_y
_atom_site_fract_z
_atom_type_partial_charge
C1    C     C_R   0.504999 0.262142 0.499702 0.786863
C2    C     C_R   0.517914 0.128435 0.500163 -0.105056
C3    C     C_R   0.561359 0.058688 0.390805 0.141287
C4    C     C_R   0.561123 0.929951 0.398350 -0.242695
C5    C     C_R   0.514511 0.869865 0.506157 -0.083469
C6    C     C_R   0.486065 0.938832 0.619869 0.024630
C7    C     C_3   0.373208 0.937495 0.687612 0.343469
C8    C     C_3   0.375410 0.077464 0.683387 -0.464910
C9    C     C_R   0.588982 0.562151 0.092846 0.251145
C10   C     C_R   0.419763 0.428963 0.056873 -0.074158
C11   C     C_R   0.420025 0.428719 0.907921 -0.077294
C12   C     C_R   0.262738 0.494943 0.444842 0.898945
C13   C     C_R   0.589966 0.561018 0.945637 0.270490
C14   C     C_3   0.617316 0.695096 0.945049 -0.504057
C15   C     C_3   0.613024 0.697126 0.103054 -0.524014
C16   C     C_R   0.501763 0.737474 0.501197 0.842472
C17   C     C_R   0.737417 0.495813 0.555385 0.838774
C18   C     C_2   0.128127 0.479837 0.421076 -0.446050
C19   C     C_2   0.071508 0.428859 0.520868 0.495088
C20   C     C_2   0.872938 0.487813 0.579959 -0.391154
C21   C     C_2   0.935010 0.423723 0.492419 0.077019
C22   C     C_R   0.488319 0.065587 0.616811 0.005183
Cu1   Cu    Cu3+1 0.499990 0.499980 0.640670 0.952080
Cu2   Cu    Cu3+1 0.500010 0.500020 0.359330 0.936060
H1    H     H_    0.396480 0.120599 0.791165 0.149095
H2    H     H_    0.353027 0.373585 0.098139 0.141353
H3    H     H_    0.354422 0.372448 0.837523 0.182173
H4    H     H_    0.711255 0.712883 0.921804 0.192478
H5    H     H_    0.541244 0.749566 0.880860 0.207687
H6    H     H_    0.703764 0.718937 0.171561 0.189761
H7    H     H_    0.531880 0.750221 0.126335 0.216045
H8    H     H_    0.924153 0.538656 0.670345 0.143692
H9    H     H_    0.074813 0.509304 0.319342 0.126818
H10   H     H_    0.593279 0.876693 0.315988 0.155847
H11   H     H_    0.393080 0.901019 0.798805 0.051072
H12   H     H_    0.295457 0.119501 0.610009 0.215307
N1    N     N_R   0.500780 0.500930 0.148120 -0.181761
N2    N     N_R   0.500790 0.500890 0.852210 -0.194126
O1    O     O_R   0.500000 0.319640 0.618810 -0.575043
O2    O     O_R   0.500010 0.319680 0.381230 -0.591675
O3    O     O_R   0.320680 0.500000 0.575130 -0.527844
O4    O     O_R   0.320690 0.500040 0.337550 -0.587684
O5    O     O_R   0.499990 0.680320 0.618770 -0.597846
O6    O     O_R   0.500000 0.680360 0.381190 -0.586410
O7    O     O_R   0.679310 0.499960 0.662450 -0.584958
O8    O     O_R   0.679320 0.500000 0.424870 -0.565281
C23   C     C_3   0.873993 0.331384 0.381764 -0.377913
C24   C     C_3   0.849373 0.384153 0.230790 -0.803802
H13   H     H_    0.819906 0.482209 0.231309 0.261120
H14   H     H_    0.934349 0.377312 0.183312 0.229054
H15   H     H_    0.775552 0.330583 0.161867 0.230263
H16   H     H_    0.934313 0.248297 0.383193 0.179449
H17   H     H_    0.787285 0.298019 0.411260 0.191916
O9    O     O_3   0.140464 0.393030 0.652454 -0.570639
C25   C     C_3   0.092938 0.284527 0.702304 -0.367885
H18   H     H_    0.077310 0.211422 0.618439 0.160268
H19   H     H_    0.006452 0.304211 0.743794 0.178878
H20   H     H_    0.162012 0.247928 0.792477 0.174060
C26   C     C_3   0.601510 0.111861 0.259758 -0.386204
C27   C     C_3   0.496954 0.105041 0.129862 -0.815390
H21   H     H_    0.412792 0.153300 0.152269 0.254658
H22   H     H_    0.526801 0.149817 0.037511 0.228592
H23   H     H_    0.473780 0.007489 0.101238 0.240162
H24   H     H_    0.633858 0.207217 0.274515 0.222834
H25   H     H_    0.682877 0.059023 0.236093 0.185773
O10   O     O_3   0.269456 0.889314 0.593066 -0.560372
C28   C     C_3   0.207437 0.804028 0.665198 -0.310690
H26   H     H_    0.170007 0.849852 0.753403 0.150569
H27   H     H_    0.269625 0.725757 0.706921 0.190928
H28   H     H_    0.128079 0.765695 0.588665 0.185023

loop_
_geom_bond_atom_site_label_1
_geom_bond_atom_site_label_2
_ccdc_geom_bond_type
C2    C22   A    
C11   N2    A    
C8    C22   S    
Cu1   Cu2   S    
C15   H7    S    
C23   H16   S    
Cu1   O7    S    
Cu1   N2    S    
Cu2   O4    S    
C16   O6    A    
C23   C24   S    
Cu1   O3    S    
C11   H3    S    
C23   H17   S    
C28   H28   S    
Cu2   O8    S    
C10   H2    S    
C25   H18   S    
C24   H14   S    
C2    C3    A    
C13   N2    A    
C7    C8    S    
C13   C14   S    
C26   H25   S    
C7    O10   S    
C8    H1    S    
C28   H27   S    
C16   O5    A    
C26   H24   S    
C12   O3    A    
C10   N1    A    
Cu1   O1    S    
C4    C5    A    
C19   O9    S    
C9    N1    A    
C24   H13   S    
C19   C21   S    
C17   O7    A    
Cu2   N1    S    
C6    C7    S    
C4    H10   S    
C25   H19   S    
C20   H8    S    
C5    C6    A    
Cu2   O6    S    
C18   H9    S    
C27   H23   S    
C10   C11   A    
C1    O1    A    
C14   H5    S    
C14   H4    S    
C28   H26   S    
C6    C22   A    
C26   C27   S    
C17   C20   S    
Cu1   O5    S    
C17   O8    A    
C15   H6    S    
C27   H22   S    
C1    C2    S    
C8    H12   S    
C25   H20   S    
C12   C18   S    
O10   C28   S    
C9    C13   A    
O9    C25   S    
C18   C19   D    
C5    C16   S    
C12   O4    A    
C1    O2    A    
Cu2   O2    S    
C20   C21   D    
C14   C15   S    
C7    H11   S    
C24   H15   S    
C3    C4    A    
C9    C15   S    
C27   H21   S    
C21   C23   S    
C3    C26   S    
