data_mof_unit_42795.cif
_audit_creation_date              2012-12-10T18:07:32-0500
_audit_creation_method            fapswitch 2.2
_symmetry_space_group_name_H-M    P1
_symmetry_Int_Tables_number       1
_space_group_crystal_system       triclinic
_cell_length_a                    11.52806
_cell_length_b                    12.688275
_cell_length_c                    13.051422
_cell_angle_alpha                 82.548083
_cell_angle_beta                  92.688968
_cell_angle_gamma                 102.128196
_cell_volume                      1850.29243826

loop_
_atom_site_label
_atom_site_type_symbol
_atom_type_description
_atom_site_fract_x
_atom_site_fract_y
_atom_site_fract_z
_atom_type_partial_charge
C1    C     C_R   0.493267 0.439478 0.691913 0.975323
C2    C     C_R   0.553339 0.596953 0.202625 -0.271496
C3    C     C_R   0.434022 0.298009 0.841244 0.547388
C4    C     C_R   0.430173 0.263690 0.947498 0.035581
C5    C     C_R   0.484777 0.336014 0.017069 0.254601
C6    C     C_R   0.538880 0.444623 0.977999 -0.024639
C7    C     C_R   0.565535 0.468595 0.872631 -0.214809
C8    C     C_R   0.570442 0.529309 0.040913 -0.117346
C9    C     C_R   0.658186 0.622869 0.009284 -0.122870
C10   C     C_R   0.693539 0.641072 0.905144 0.142939
C11   C     C_R   0.653172 0.561374 0.840387 0.620672
C12   C     C_R   0.717698 0.500974 0.500313 0.899261
C13   C     C_R   0.508532 0.527036 0.130522 0.607624
C14   C     C_R   0.650998 0.683458 0.178939 0.047848
C15   C     C_R   0.500694 0.400665 0.802912 -0.237426
C16   C     C_R   0.323370 0.090194 0.350167 0.468709
C17   C     C_R   0.670378 0.805702 0.595088 -0.019708
C18   C     C_R   0.733171 0.913656 0.581241 0.060107
C19   C     C_R   0.670818 0.995650 0.541744 0.218519
C20   C     C_R   0.549114 0.965968 0.511220 -0.023950
C21   C     C_R   0.502713 0.854444 0.502955 0.018547
C22   C     C_R   0.479694 0.043441 0.470739 -0.193138
C23   C     C_R   0.516389 0.560660 0.308828 0.983935
C24   C     C_R   0.383955 0.013236 0.401034 -0.255907
C25   C     C_R   0.351239 0.907042 0.380968 -0.184741
C26   C     C_R   0.408040 0.828971 0.430647 0.601505
C27   C     C_R   0.499306 0.149767 0.497127 0.674439
C28   C     C_R   0.355452 0.196003 0.371839 0.563555
C29   C     C_R   0.282286 0.499013 0.499656 0.928106
C30   C     C_1   0.838785 0.502654 0.500304 -0.129795
C31   C     C_1   0.940848 0.501452 0.499823 0.007434
C32   C     C_1   0.059097 0.498790 0.499215 0.017467
C33   C     C_1   0.161172 0.497507 0.499088 -0.119072
C34   C     C_R   0.704784 0.696019 0.082026 0.191867
H1    H     H_    0.281547 0.883507 0.324583 0.226853
H2    H     H_    0.717154 0.742195 0.622361 0.230752
N1    N     N_R   0.440320 0.222190 0.444690 -0.246987
N2    N     N_R   0.559060 0.776980 0.554780 -0.138579
O1    O     O_R   0.471500 0.366730 0.627160 -0.520618
O2    O     O_R   0.509620 0.544830 0.662520 -0.594711
O3    O     O_R   0.646490 0.410960 0.482310 -0.596654
O4    O     O_R   0.684610 0.589050 0.517670 -0.603055
O5    O     O_R   0.490380 0.455170 0.337480 -0.549641
O6    O     O_R   0.528500 0.633270 0.372840 -0.538452
O7    O     O_R   0.315390 0.410950 0.482330 -0.564279
O8    O     O_R   0.353510 0.589040 0.517690 -0.556971
Zn1   Zn    Zn3+2 0.474550 0.381080 0.476390 1.100874
Zn2   Zn    Zn3+2 0.525450 0.618920 0.523610 1.024146
N3    N     N_2   0.698529 0.753427 0.254577 -0.280589
H3    H     H_    0.789727 0.770234 0.261935 0.234170
C35   C     C_3   0.647755 0.848998 0.250970 -0.690643
H4    H     H_    0.678985 0.891342 0.319571 0.228561
H5    H     H_    0.549394 0.826151 0.251683 0.275696
H6    H     H_    0.675025 0.905721 0.180090 0.206692
F1    F     F_    0.234530 0.063314 0.280136 -0.649119
F2    F     F_    0.567773 0.179833 0.579994 -0.612765
N4    N     N_2   0.734578 0.104641 0.517492 -0.247531
H7    H     H_    0.800063 0.131491 0.570195 0.248276
C36   C     C_3   0.768921 0.135000 0.410654 -0.773877
H8    H     H_    0.808819 0.223152 0.397992 0.256798
H9    H     H_    0.690496 0.118850 0.357976 0.229609
H10   H     H_    0.834948 0.088730 0.391229 0.239466
N5    N     N_2   0.860468 0.935605 0.585408 -0.305039
H11   H     H_    0.905024 0.009246 0.550138 0.244877
C37   C     C_3   0.920205 0.896374 0.677887 -0.745833
H12   H     H_    0.017307 0.914142 0.665085 0.247851
H13   H     H_    0.892091 0.807211 0.696344 0.265220
H14   H     H_    0.904389 0.938798 0.743378 0.237794
F3    F     F_    0.379275 0.735268 0.390448 -0.655690
N6    N     N_2   0.747048 0.746060 0.857212 -0.286527
H15   H     H_    0.833765 0.774952 0.878527 0.258609
C38   C     C_3   0.670747 0.824524 0.847808 -0.735056
H16   H     H_    0.714991 0.901495 0.803152 0.240837
H17   H     H_    0.649957 0.842969 0.924848 0.240968
H18   H     H_    0.586560 0.792732 0.806716 0.246624
N7    N     N_2   0.811504 0.775032 0.061783 -0.315912
H19   H     H_    0.816197 0.847642 0.090600 0.238742
C39   C     C_3   0.918905 0.732902 0.080820 -0.782237
H20   H     H_    0.996872 0.798016 0.057275 0.249672
H21   H     H_    0.917288 0.664595 0.035059 0.253157
H22   H     H_    0.928726 0.704165 0.164249 0.242435
F4    F     F_    0.400855 0.459311 0.147020 -0.613169
F5    F     F_    0.371434 0.230785 0.775892 -0.644877
N8    N     N_2   0.494449 0.297254 0.124392 -0.220448
H23   H     H_    0.431187 0.230483 0.151298 0.281360
C40   C     C_3   0.612630 0.287740 0.161072 -0.782031
H24   H     H_    0.611869 0.264902 0.246116 0.230932
H25   H     H_    0.676568 0.366176 0.144180 0.243919
H26   H     H_    0.642188 0.223992 0.124160 0.235243
N9    N     N_2   0.370777 0.156311 0.984418 -0.315990
H27   H     H_    0.381164 0.098758 0.938464 0.271705
C41   C     C_3   0.247871 0.147264 0.009512 -0.639713
H28   H     H_    0.210724 0.063050 0.044482 0.251779
H29   H     H_    0.195297 0.166155 0.938450 0.245140
H30   H     H_    0.239961 0.203637 0.066031 0.281618
F6    F     F_    0.706644 0.572590 0.748005 -0.684086
F7    F     F_    0.299088 0.272557 0.323109 -0.569827

loop_
_geom_bond_atom_site_label_1
_geom_bond_atom_site_label_2
_ccdc_geom_bond_type
C28   F7    S    
C16   C28   A    
C21   C26   A    
N5    C37   S    
C8    C13   A    
C11   F6    S    
C19   C20   A    
N9    H27   S    
C19   N4    S    
C7    C11   A    
N7    C39   S    
C30   C31   T    
C39   H21   S    
C18   N5    S    
N4    C36   S    
C14   N3    S    
C29   C33   S    
C23   O5    A    
C18   C19   A    
C2    C13   A    
C12   O4    A    
C1    O2    A    
N8    H23   S    
C21   N2    A    
C8    C9    A    
N3    C35   S    
N6    H15   S    
C1    C15   S    
C17   H2    S    
N1    Zn1   S    
C9    C10   A    
N2    Zn2   S    
C7    C15   A    
C36   H8    S    
C16   C24   A    
C38   H18   S    
C4    N9    S    
O7    Zn1   S    
O8    Zn2   S    
C36   H9    S    
C35   H4    S    
C24   C25   A    
C38   H17   S    
C5    N8    S    
C27   F2    S    
C4    C5    A    
C6    C8    A    
C37   H13   S    
C25   C26   A    
C13   F4    S    
C41   H30   S    
C23   O6    A    
C29   O7    A    
C35   H5    S    
C12   O3    A    
N9    C41   S    
C31   C32   S    
C37   H14   S    
C41   H29   S    
C17   C18   A    
O3    Zn1   S    
O4    Zn2   S    
N7    H19   S    
C25   H1    S    
C10   N6    S    
C20   C22   A    
C37   H12   S    
C22   C27   A    
C3    F5    S    
C9    C34   A    
C22   C24   A    
C3    C4    A    
C3    C15   A    
C40   H24   S    
O1    Zn1   S    
O2    Zn2   S    
C36   H10   S    
C12   C30   S    
C39   H20   S    
N8    C40   S    
C38   H16   S    
C40   H26   S    
C14   C34   A    
C6    C7    A    
C29   O8    A    
C35   H6    S    
C32   C33   T    
C16   F1    S    
C39   H22   S    
N4    H7    S    
C5    C6    A    
C28   N1    A    
C27   N1    A    
C41   H28   S    
C40   H25   S    
C17   N2    A    
C2    C14   A    
C10   C11   A    
C1    O1    A    
N5    H11   S    
C20   C21   A    
N3    H3    S    
C2    C23   S    
C26   F3    S    
N6    C38   S    
O5    Zn1   S    
O6    Zn2   S    
C34   N7    S    
