data_mof_unit_34804.cif
_audit_creation_date              2012-12-10T17:24:11-0500
_audit_creation_method            fapswitch 2.2
_symmetry_space_group_name_H-M    P1
_symmetry_Int_Tables_number       1
_space_group_crystal_system       triclinic
_cell_length_a                    19.338115
_cell_length_b                    10.890794
_cell_length_c                    9.633073
_cell_angle_alpha                 90.13664
_cell_angle_beta                  89.676685
_cell_angle_gamma                 94.390322
_cell_volume                      2022.80752618

loop_
_atom_site_label
_atom_site_type_symbol
_atom_type_description
_atom_site_fract_x
_atom_site_fract_y
_atom_site_fract_z
_atom_type_partial_charge
C1    C     C_R   0.503581 0.262595 0.500238 0.786939
C2    C     C_R   0.291104 0.490036 0.500629 -0.135338
C3    C     C_R   0.929160 0.483737 0.491869 0.433654
C4    C     C_R   0.069460 0.492246 0.495911 0.422493
C5    C     C_R   0.821694 0.553654 0.589557 -0.278602
C6    C     C_R   0.749627 0.559334 0.593030 0.397106
C7    C     C_R   0.708010 0.488779 0.498137 -0.272033
C8    C     C_R   0.739481 0.411347 0.401196 0.333173
C9    C     C_R   0.811822 0.408751 0.396554 0.437873
C10   C     C_R   0.853198 0.481121 0.491483 -0.181049
C11   C     C_R   0.531850 0.116668 0.755844 -0.226573
C12   C     C_R   0.367484 0.495900 0.500412 0.762589
C13   C     C_R   0.517954 0.056729 0.881636 -0.121160
C14   C     C_R   0.480585 0.942219 0.884159 0.443100
C15   C     C_R   0.465260 0.881794 0.758144 -0.236280
C16   C     C_R   0.486906 0.936085 0.630392 0.050316
C17   C     C_R   0.508929 0.062105 0.629014 0.023605
C18   C     C_R   0.506366 0.127607 0.501531 -0.141741
C19   C     C_R   0.496265 0.061295 0.375981 0.415576
C20   C     C_R   0.491463 0.933101 0.378540 -0.294980
C21   C     C_R   0.487987 0.869553 0.504135 -0.155424
C22   C     C_R   0.585352 0.691815 0.134233 0.327063
C23   C     C_R   0.494547 0.736361 0.500935 0.850684
C24   C     C_R   0.612992 0.792081 0.052636 0.348132
C25   C     C_R   0.615703 0.779570 0.911510 -0.214078
C26   C     C_R   0.584080 0.676638 0.849497 -0.184753
C27   C     C_R   0.541115 0.588919 0.923299 0.118813
C28   C     C_R   0.541235 0.592121 0.072843 0.132729
C29   C     C_R   0.461117 0.414833 0.074054 -0.021674
C30   C     C_R   0.460944 0.415200 0.926568 -0.039101
C31   C     C_R   0.632249 0.497453 0.499571 0.868481
C32   C     C_R   0.250751 0.436129 0.611440 0.408202
C33   C     C_R   0.178899 0.441847 0.610637 -0.136590
C34   C     C_R   0.145642 0.493155 0.498023 -0.031684
C35   C     C_R   0.185496 0.542169 0.386497 -0.145793
C36   C     C_R   0.257463 0.541480 0.388352 -0.223615
Cu1   Cu    Cu3+1 0.500000 0.499990 0.640660 0.952602
Cu2   Cu    Cu3+1 0.500000 0.500010 0.359340 1.015897
H1    H     H_    0.562398 0.203830 0.759888 0.193341
H2    H     H_    0.435183 0.794061 0.761444 0.163349
H3    H     H_    0.429115 0.344858 0.129004 0.161212
H4    H     H_    0.643116 0.850215 0.848736 0.201630
H5    H     H_    0.148825 0.401012 0.696305 0.180248
H6    H     H_    0.161158 0.582578 0.298436 0.172710
H7    H     H_    0.286967 0.582766 0.302186 0.175126
H8    H     H_    0.853756 0.608899 0.661737 0.179180
N1    N     N_R   0.035320 0.509236 0.375442 -0.224478
N2    N     N_R   0.966364 0.505143 0.373415 -0.206871
N3    N     N_R   0.963178 0.468525 0.612542 -0.204894
N4    N     N_R   0.032034 0.472050 0.614374 -0.229342
N5    N     N_R   0.500660 0.501210 0.147910 -0.175585
N6    N     N_R   0.500680 0.501290 0.852040 -0.189972
O1    O     O_R   0.499990 0.319640 0.618810 -0.612854
O2    O     O_R   0.500000 0.319660 0.381240 -0.520440
O3    O     O_R   0.400140 0.499970 0.618820 -0.570090
O4    O     O_R   0.400150 0.500000 0.381250 -0.585801
O5    O     O_R   0.500000 0.680340 0.618760 -0.621911
O6    O     O_R   0.500010 0.680360 0.381190 -0.527915
O7    O     O_R   0.599850 0.500000 0.618750 -0.565369
O8    O     O_R   0.599860 0.500030 0.381180 -0.509566
O9    O     O_3   0.278692 0.374220 0.719817 -0.724165
H9    H     H_    0.319444 0.333770 0.684553 0.322999
H10   H     H_    0.535296 0.101144 0.977066 0.189765
O10   O     O_3   0.462438 0.889229 0.010287 -0.784385
H11   H     H_    0.437986 0.807091 0.994132 0.316366
H12   H     H_    0.489996 0.883105 0.281233 0.207029
O11   O     O_3   0.609206 0.687894 0.267000 -0.688916
H13   H     H_    0.656793 0.728701 0.273157 0.324549
O12   O     O_3   0.642925 0.899708 0.109525 -0.696143
H14   H     H_    0.623879 0.909265 0.204356 0.342941
H15   H     H_    0.594226 0.671886 0.741930 0.264487
H16   H     H_    0.428802 0.345404 0.871975 0.149312
O13   O     O_3   0.719157 0.636025 0.685557 -0.734002
H17   H     H_    0.755422 0.678863 0.744364 0.334247
O14   O     O_3   0.701406 0.332998 0.312374 -0.634965
H18   H     H_    0.655888 0.308762 0.355681 0.320895
O15   O     O_3   0.839171 0.329632 0.302009 -0.644962
H19   H     H_    0.886892 0.313713 0.329078 0.331110
O16   O     O_3   0.492449 0.122563 0.251321 -0.718887
H20   H     H_    0.473121 0.064207 0.180224 0.352460

loop_
_geom_bond_atom_site_label_1
_geom_bond_atom_site_label_2
_ccdc_geom_bond_type
C23   O6    A    
C16   C21   A    
O13   H17   S    
C35   C36   A    
C1    O2    A    
C2    C12   S    
C3    N3    A    
C7    C8    A    
O15   H19   S    
C1    C18   S    
Cu1   Cu2   S    
C20   H12   S    
C32   O9    S    
C18   C19   A    
C5    C6    A    
C28   N5    A    
C15   C16   A    
C3    N2    A    
C2    C32   A    
C34   C35   A    
C31   O7    A    
C1    O1    A    
Cu2   O6    S    
C19   C20   A    
C8    C9    A    
Cu2   O2    S    
C9    C10   A    
Cu1   O1    S    
Cu1   O7    S    
C22   C28   A    
C13   C14   A    
C26   H15   S    
O12   H14   S    
C24   O12   S    
C33   C34   A    
C22   O11   S    
C4    C34   S    
C7    C31   S    
O11   H13   S    
C33   H5    S    
C24   C25   A    
Cu1   N6    S    
C16   C17   A    
Cu2   N5    S    
C25   C26   A    
C8    O14   S    
C4    N4    A    
C31   O8    A    
C11   H1    S    
O14   H18   S    
C29   C30   A    
N1    N2    A    
C13   H10   S    
C14   O10   S    
C17   C18   A    
C26   C27   A    
C36   H7    S    
C9    O15   S    
C19   O16   S    
C35   H6    S    
C12   O4    A    
Cu2   O8    S    
C21   C23   S    
C22   C24   A    
C27   N6    A    
C6    O13   S    
C29   N5    A    
C2    C36   A    
C23   O5    A    
C30   N6    A    
C11   C17   A    
C29   H3    S    
C25   H4    S    
C30   H16   S    
C6    C7    A    
C5    H8    S    
C32   C33   A    
C5    C10   A    
C3    C10   S    
O10   H11   S    
C11   C13   A    
O9    H9    S    
C15   H2    S    
C12   O3    A    
O16   H20   S    
Cu1   O3    S    
Cu2   O4    S    
C20   C21   A    
N3    N4    A    
C27   C28   A    
C14   C15   A    
Cu1   O5    S    
C4    N1    A    
