data_mof_unit_62981.cif
_audit_creation_date              2012-12-10T19:07:58-0500
_audit_creation_method            fapswitch 2.2
_symmetry_space_group_name_H-M    P1
_symmetry_Int_Tables_number       1
_space_group_crystal_system       triclinic
_cell_length_a                    13.05127
_cell_length_b                    13.647573
_cell_length_c                    22.919846
_cell_angle_alpha                 89.828684
_cell_angle_beta                  93.86701
_cell_angle_gamma                 85.51795
_cell_volume                      4060.54994853

loop_
_atom_site_label
_atom_site_type_symbol
_atom_type_description
_atom_site_fract_x
_atom_site_fract_y
_atom_site_fract_z
_atom_type_partial_charge
C1    C     C_R   0.481046 0.685075 0.499978 0.903101
C2    C     C_R   0.519000 0.314915 0.500661 0.904647
C3    C     C_R   0.446471 0.448380 0.767547 0.208542
C4    C     C_R   0.407678 0.613690 0.241376 0.163493
C5    C     C_R   0.452394 0.435997 0.706984 0.072198
C6    C     C_R   0.420701 0.599298 0.302020 0.092798
C7    C     C_R   0.501109 0.505355 0.675132 -0.189903
C8    C     C_R   0.492211 0.523472 0.325464 -0.206747
C9    C     C_R   0.558151 0.575606 0.705136 0.011846
C10   C     C_R   0.553176 0.465328 0.288086 -0.010992
C11   C     C_R   0.554669 0.582384 0.765984 0.199802
C12   C     C_R   0.540160 0.481038 0.227577 0.247768
C13   C     C_R   0.476996 0.536694 0.793401 0.043241
C14   C     C_R   0.466770 0.554124 0.204537 0.101478
C15   C     C_1   0.534393 0.212010 0.501680 -0.144833
C16   C     C_1   0.465706 0.787974 0.500259 -0.138050
C17   C     C_2   0.544950 0.020728 0.503078 0.110775
C18   C     C_2   0.455115 0.979233 0.500864 0.115000
C19   C     C_1   0.456754 0.875208 0.500531 0.014128
C20   C     C_1   0.543310 0.124762 0.502489 0.011724
C21   C     C_2   0.032461 0.473521 0.482868 0.036107
C22   C     C_2   0.967535 0.526548 0.517113 0.040321
C23   C     C_R   0.500470 0.499787 0.611478 0.927957
C24   C     C_R   0.498785 0.503825 0.388522 0.906647
C25   C     C_1   0.854808 0.519406 0.512073 0.143793
C26   C     C_1   0.145190 0.480631 0.487919 0.163726
C27   C     C_R   0.378143 0.516267 0.113080 0.603768
C28   C     C_R   0.465971 0.659668 0.872414 0.606453
C29   C     C_R   0.500946 0.637226 0.116173 0.605574
C30   C     C_R   0.350632 0.539196 0.869082 0.602918
C31   C     C_R   0.479563 0.658730 0.056301 -0.108215
C32   C     C_R   0.339841 0.543371 0.929896 -0.113797
C33   C     C_R   0.412523 0.599113 0.023986 -0.066657
C34   C     C_R   0.405521 0.604021 0.962690 -0.069460
C35   C     C_R   0.353917 0.533351 0.052923 -0.106524
C36   C     C_R   0.463916 0.669864 0.933448 -0.110630
C37   C     C_R   0.523003 0.736394 0.027674 0.166643
C38   C     C_R   0.269915 0.488579 0.959015 0.165728
C39   C     C_R   0.518575 0.740029 0.965988 0.166663
C40   C     C_R   0.274554 0.487014 0.020776 0.166423
N1    N     N_R   0.449977 0.567946 0.142667 -0.341422
N2    N     N_R   0.434260 0.576010 0.846759 -0.328867
N3    N     N_1   0.234540 0.484780 0.490870 -0.075795
N4    N     N_1   0.765460 0.515220 0.509130 -0.085003
O1    O     O_R   0.402510 0.634760 0.496660 -0.593321
O2    O     O_R   0.597490 0.365240 0.503340 -0.612050
O3    O     O_R   0.572960 0.644530 0.502520 -0.602563
O4    O     O_R   0.427040 0.355470 0.497480 -0.590708
O5    O     O_R   0.414760 0.495140 0.580910 -0.591800
O6    O     O_R   0.585240 0.504860 0.419090 -0.614914
O7    O     O_R   0.585200 0.504910 0.586770 -0.589449
O8    O     O_R   0.414800 0.495090 0.413230 -0.585425
O9    O     O_2   0.334788 0.445847 0.141939 -0.496253
O10   O     O_2   0.491347 0.733423 0.838570 -0.501704
O11   O     O_2   0.574910 0.681090 0.147773 -0.494563
O12   O     O_2   0.277846 0.504386 0.832203 -0.493107
Zn1   Zn    Zn3+2 0.386190 0.493470 0.496090 1.029730
Zn2   Zn    Zn3+2 0.613810 0.506530 0.503910 1.001589
I1    I     I_    0.582051 0.857710 0.075999 -0.089415
I2    I     I_    0.162306 0.398996 0.913004 -0.081655
I3    I     I_    0.605882 0.845984 0.925280 -0.087649
I4    I     I_    0.151411 0.426294 0.063802 -0.091518
I5    I     I_    0.429486 0.322236 0.821226 -0.149565
I6    I     I_    0.297568 0.724006 0.202846 -0.184872
I7    I     I_    0.393849 0.310424 0.664364 -0.231696
I8    I     I_    0.334550 0.696471 0.357263 -0.254651
N5    N     N_3   0.618477 0.639165 0.673516 -0.393592
H1    H     H_    0.567894 0.680335 0.643819 0.178030
H2    H     H_    0.650082 0.691170 0.701175 0.227726
N6    N     N_3   0.626075 0.388096 0.310630 -0.400104
H3    H     H_    0.587792 0.339996 0.335515 0.189608
H4    H     H_    0.682346 0.419026 0.337729 0.223247
I9    I     I_    0.692768 0.614799 0.815899 -0.204875
I10   I     I_    0.630194 0.392807 0.170621 -0.172301
N7    N     N_3   0.358279 0.037369 0.498381 -0.437411
H5    H     H_    0.315506 0.018358 0.460453 0.205513
H6    H     H_    0.318443 0.017677 0.534164 0.204560
N8    N     N_3   0.641779 0.962575 0.505594 -0.446587
H7    H     H_    0.684690 0.981917 0.543399 0.199544
H8    H     H_    0.681480 0.981905 0.469681 0.200945
N9    N     N_3   0.009103 0.591863 0.559819 -0.440466
H9    H     H_    0.974458 0.662429 0.550775 0.197616
H10   H     H_    0.987339 0.570560 0.600762 0.211069
N10   N     N_3   0.990884 0.408221 0.440156 -0.450096
H11   H     H_    0.025530 0.337651 0.449188 0.198745
H12   H     H_    0.012632 0.429544 0.399214 0.208021

loop_
_geom_bond_atom_site_label_1
_geom_bond_atom_site_label_2
_ccdc_geom_bond_type
C24   O8    A    
C38   C40   A    
C21   C26   S    
C18   N7    S    
C12   I10   S    
N9    H9    S    
O5    Zn1   S    
O4    Zn1   S    
C2    O2    A    
O1    Zn1   S    
N10   H12   S    
C8    C10   A    
N8    H8    S    
C23   O5    A    
C17   C20   S    
C40   I4    S    
C18   C19   S    
C8    C24   S    
N4    Zn2   S    
C22   C25   S    
C31   C33   A    
N6    H3    S    
C32   C38   A    
C3    C13   A    
C1    C16   S    
C21   C22   D    
O2    Zn2   S    
C25   N4    T    
C13   N2    S    
N9    H10   S    
C26   N3    T    
C33   C34   A    
C24   O6    A    
C15   C20   T    
C39   I3    S    
N5    H1    S    
O6    Zn2   S    
C22   N9    S    
N10   H11   S    
C4    C6    A    
C11   I9    S    
C5    C7    A    
C28   O10   S    
N8    H7    S    
C1    O3    A    
C6    C8    A    
C29   O11   S    
C2    O4    A    
C30   O12   S    
C31   C37   A    
N5    H2    S    
C32   C34   A    
N7    H5    S    
C9    N5    S    
N7    H6    S    
C27   N1    A    
C23   O7    A    
C21   N10   S    
C17   C18   D    
O7    Zn2   S    
C2    C15   S    
C9    C11   A    
C37   I1    S    
C10   C12   A    
C14   N1    S    
C38   I2    S    
C10   N6    S    
C5    I7    S    
C12   C14   A    
C7    C9    A    
C29   N1    A    
C36   C39   A    
C3    C5    A    
C27   O9    S    
C3    I5    S    
C4    I6    S    
C27   C35   A    
C35   C40   A    
C37   C39   A    
O3    Zn2   S    
C30   C32   A    
C11   C13   A    
C1    O1    A    
C16   C19   T    
C7    C23   S    
C28   N2    A    
C17   N8    S    
C33   C35   A    
C34   C36   A    
C4    C14   A    
O8    Zn1   S    
N3    Zn1   S    
C6    I8    S    
C28   C36   A    
C29   C31   A    
C30   N2    A    
N6    H4    S    
