data_mof_unit_38038.cif
_audit_creation_date              2012-12-10T17:43:20-0500
_audit_creation_method            fapswitch 2.2
_symmetry_space_group_name_H-M    P1
_symmetry_Int_Tables_number       1
_space_group_crystal_system       triclinic
_cell_length_a                    15.113993
_cell_length_b                    13.85975
_cell_length_c                    10.732184
_cell_angle_alpha                 89.965805
_cell_angle_beta                  86.237635
_cell_angle_gamma                 90.749377
_cell_volume                      2243.09726943

loop_
_atom_site_label
_atom_site_type_symbol
_atom_type_description
_atom_site_fract_x
_atom_site_fract_y
_atom_site_fract_z
_atom_type_partial_charge
C1    C     C_R   0.329212 0.499521 0.498990 0.859543
C2    C     C_R   0.670788 0.500479 0.501008 0.859539
C3    C     C_R   0.953133 0.501233 0.500707 -0.043090
C4    C     C_R   0.046866 0.498770 0.499311 -0.043098
C5    C     C_R   0.911211 0.551202 0.405652 -0.056032
C6    C     C_R   0.088788 0.448808 0.594372 -0.056033
C7    C     C_R   0.943844 0.398719 0.685093 -0.190758
C8    C     C_R   0.056152 0.601294 0.314935 -0.190752
C9    C     C_R   0.035577 0.393868 0.682943 0.423857
C10   C     C_R   0.964419 0.606155 0.317097 0.423832
C11   C     C_R   0.452362 0.793462 0.592084 0.527258
C12   C     C_R   0.547638 0.206538 0.407916 0.527261
C13   C     C_R   0.546690 0.794998 0.407099 0.519146
C14   C     C_R   0.453309 0.205002 0.592900 0.519145
C15   C     C_R   0.538166 0.897330 0.396442 -0.186989
C16   C     C_R   0.461834 0.102670 0.603558 -0.186989
C17   C     C_R   0.461139 0.895988 0.602931 -0.173422
C18   C     C_R   0.538862 0.104012 0.397070 -0.173425
C19   C     C_R   0.499858 0.948387 0.499862 -0.069738
C20   C     C_R   0.500143 0.051613 0.500139 -0.069738
C21   C     C_R   0.564933 0.950277 0.286490 0.390471
C22   C     C_R   0.435066 0.049723 0.713511 0.390463
C23   C     C_R   0.434576 0.947752 0.713049 0.390593
C24   C     C_R   0.565424 0.052247 0.286952 0.390593
C25   C     C_R   0.502402 0.499991 0.259974 0.839808
C26   C     C_R   0.497599 0.500009 0.740026 0.839801
C27   C     C_3   0.487724 0.588897 0.042927 0.173963
C28   C     C_3   0.512280 0.411100 0.957073 0.173954
C29   C     C_3   0.563607 0.558056 0.949653 0.085585
C30   C     C_3   0.436397 0.441942 0.050347 0.085587
C31   C     C_3   0.420788 0.531353 0.970083 0.030071
C32   C     C_3   0.579216 0.468645 0.029917 0.030075
C33   C     C_3   0.496735 0.500410 0.875554 -0.130462
C34   C     C_3   0.503269 0.499588 0.124446 -0.130440
C35   C     C_R   0.818265 0.542715 0.402245 0.375933
C36   C     C_R   0.181736 0.457294 0.597770 0.375942
C37   C     C_R   0.767296 0.501574 0.503529 -0.163654
C38   C     C_R   0.232703 0.498427 0.496478 -0.163647
C39   C     C_R   0.808555 0.458476 0.603433 0.093543
C40   C     C_R   0.191442 0.541523 0.396577 0.093532
C41   C     C_R   0.901612 0.453226 0.597162 0.058723
C42   C     C_R   0.098384 0.546775 0.402854 0.058742
Cu1   Cu    Cu3+1 0.500000 0.597420 0.500000 1.082738
Cu2   Cu    Cu3+1 0.500000 0.402580 0.500000 1.082745
H1    H     H_    0.905513 0.356067 0.754464 0.215474
H2    H     H_    0.094482 0.643956 0.245576 0.215481
N1    N     N_R   0.500000 0.743810 0.500000 -0.272978
N2    N     N_R   0.500000 0.256190 0.500000 -0.272978
O1    O     O_R   0.370260 0.582280 0.500030 -0.544794
O2    O     O_R   0.629740 0.417720 0.499970 -0.544790
O3    O     O_R   0.629740 0.582280 0.499970 -0.533225
O4    O     O_R   0.370260 0.417720 0.500030 -0.533216
O5    O     O_R   0.499980 0.582260 0.316850 -0.551758
O6    O     O_R   0.500020 0.417740 0.683150 -0.551751
O7    O     O_R   0.500020 0.582260 0.683150 -0.544741
O8    O     O_R   0.499980 0.417740 0.316850 -0.544733
N3    N     N_3   0.334680 0.569630 0.943918 -0.512879
H3    H     H_    0.334665 0.580662 0.847930 0.308786
H4    H     H_    0.286449 0.516999 0.967554 0.262262
N4    N     N_3   0.665323 0.430367 0.056086 -0.512884
H5    H     H_    0.665346 0.419356 0.152071 0.308779
H6    H     H_    0.713556 0.482985 0.032428 0.262228
N5    N     N_3   0.474873 0.686884 0.088584 -0.436358
H7    H     H_    0.467707 0.730631 0.010825 0.315252
H8    H     H_    0.414426 0.687968 0.141690 0.242742
N6    N     N_3   0.525131 0.313114 0.911416 -0.436374
H9    H     H_    0.532301 0.269369 0.989174 0.315251
H10   H     H_    0.585576 0.312031 0.858306 0.242746
N7    N     N_3   0.631067 0.624566 0.895746 -0.498677
H11   H     H_    0.667727 0.649864 0.968518 0.296500
H12   H     H_    0.674103 0.585025 0.836072 0.195540
N8    N     N_3   0.368939 0.375430 0.104255 -0.498696
H13   H     H_    0.332300 0.350105 0.031476 0.296522
H14   H     H_    0.325884 0.414976 0.163893 0.195554
Cl1   Cl    Cl    0.765584 0.562514 0.262549 -0.523258
Cl2   Cl    Cl    0.234429 0.437498 0.737459 -0.523260
N9    N     N_3   0.758008 0.418324 0.710743 -0.552581
H15   H     H_    0.777049 0.455530 0.789576 0.219518
H16   H     H_    0.690151 0.429778 0.708851 0.204629
N10   N     N_3   0.241985 0.581672 0.289264 -0.552624
H17   H     H_    0.222956 0.544456 0.210437 0.219535
H18   H     H_    0.309839 0.570242 0.291163 0.204663
Cl3   Cl    Cl    0.076554 0.306298 0.783226 -0.421680
Cl4   Cl    Cl    0.923433 0.693781 0.216882 -0.421632
Cl5   Cl    Cl    0.368455 0.731132 0.682017 -0.501667
Cl6   Cl    Cl    0.631543 0.268869 0.317980 -0.501653
Cl7   Cl    Cl    0.628207 0.734766 0.314255 -0.403066
Cl8   Cl    Cl    0.371790 0.265235 0.685739 -0.403081
Cl9   Cl    Cl    0.583087 0.892403 0.139700 -0.382452
Cl10  Cl    Cl    0.416898 0.107598 0.860300 -0.382452
Cl11  Cl    Cl    0.415619 0.888286 0.858943 -0.417699
Cl12  Cl    Cl    0.584382 0.111713 0.141058 -0.417698

loop_
_geom_bond_atom_site_label_1
_geom_bond_atom_site_label_2
_ccdc_geom_bond_type
N6    H10   S    
N5    H8    S    
C29   C33   S    
C27   C29   S    
C11   N1    A    
C19   C20   A    
C25   O8    A    
C12   N2    A    
C26   O7    A    
C6    C9    A    
C39   C41   A    
C21   Cl9   S    
N9    H15   S    
C15   C19   A    
C35   Cl1   S    
C17   C23   A    
C18   C24   A    
C7    H1    S    
C35   C37   A    
C25   O5    A    
C29   C32   S    
C30   C31   S    
N10   H17   S    
N3    H4    S    
C24   Cl12  S    
N4    H6    S    
C10   Cl4   S    
N7    H12   S    
C2    O2    A    
Cu1   O5    S    
C11   C17   A    
C1    O1    A    
C40   N10   S    
C36   Cl2   S    
C18   C20   A    
C25   C34   S    
Cu2   O4    S    
C40   C42   A    
N6    H9    S    
C26   O6    A    
C29   N7    S    
N9    H16   S    
C27   C34   S    
C30   C34   S    
C27   C31   S    
C28   C32   S    
N10   H18   S    
C13   N1    A    
Cu1   O1    S    
C14   N2    A    
N4    H5    S    
C32   C34   S    
C28   N6    S    
Cu1   Cu2   S    
Cu2   O8    S    
C26   C33   S    
C16   C20   A    
C13   Cl7   S    
C31   C33   S    
C22   Cl10  S    
C27   N5    S    
C1    C38   S    
C9    Cl3   S    
N8    H14   S    
C28   C33   S    
C13   C15   A    
C14   C16   A    
C4    C6    A    
C32   N4    S    
C3    C4    A    
C39   N9    S    
Cu2   O2    S    
C7    C9    A    
C3    C41   A    
C16   C22   A    
C8    C42   A    
N8    H13   S    
C3    C5    A    
C30   N8    S    
Cu1   O7    S    
C12   Cl6   S    
C31   N3    S    
C28   C30   S    
C14   Cl8   S    
C5    C10   A    
C37   C39   A    
C38   C40   A    
C2    C37   S    
Cu1   O3    S    
N3    H3    S    
C4    C42   A    
C11   Cl5   S    
C5    C35   A    
C36   C38   A    
C17   C19   A    
C6    C36   A    
C23   Cl11  S    
C7    C41   A    
N7    H11   S    
C1    O4    A    
C8    H2    S    
C2    O3    A    
N5    H7    S    
Cu2   O6    S    
C15   C21   A    
C8    C10   A    
C21   C24   A    
C12   C18   A    
C22   C23   A    
Cu1   N1    S    
Cu2   N2    S    
