data_mof_unit_31943.cif
_audit_creation_date              2012-12-10T17:03:54-0500
_audit_creation_method            fapswitch 2.2
_symmetry_space_group_name_H-M    P1
_symmetry_Int_Tables_number       1
_space_group_crystal_system       triclinic
_cell_length_a                    18.730517
_cell_length_b                    18.618113
_cell_length_c                    18.80046
_cell_angle_alpha                 109.349461
_cell_angle_beta                  109.682543
_cell_angle_gamma                 109.09799
_cell_volume                      5064.47698004

loop_
_atom_site_label
_atom_site_type_symbol
_atom_type_description
_atom_site_fract_x
_atom_site_fract_y
_atom_site_fract_z
_atom_type_partial_charge
C1    C     C_R   0.997276 0.117659 0.619842 0.845553
C2    C     C_R   0.176940 0.178791 0.419332 0.095113
C3    C     C_R   0.313985 0.314115 0.499920 -0.182676
C4    C     C_R   0.325780 0.318950 0.580011 0.076995
C5    C     C_R   0.256914 0.259774 0.580417 0.088394
C6    C     C_R   0.185168 0.187534 0.499964 -0.151945
C7    C     C_R   0.404397 0.382024 0.660071 -0.113141
C8    C     C_R   0.410112 0.391967 0.738873 -0.065730
C9    C     C_R   0.338178 0.339846 0.739711 -0.126413
C10   C     C_R   0.262139 0.274440 0.661557 -0.131590
C11   C     C_R   0.831168 0.097685 0.606036 -0.250597
C12   C     C_R   0.119753 0.120616 0.500249 0.885412
C13   C     C_R   0.752634 0.095965 0.591508 -0.171079
C14   C     C_R   0.752125 0.168384 0.644699 0.496218
C15   C     C_R   0.830793 0.240680 0.716798 -0.249812
C16   C     C_R   0.911229 0.242521 0.733604 0.026510
C17   C     C_R   0.911522 0.172786 0.674130 0.106271
C18   C     C_R   0.992502 0.180040 0.685103 -0.070440
C19   C     C_R   0.071155 0.251280 0.756604 -0.205780
C20   C     C_R   0.070871 0.317006 0.817501 -0.191049
C21   C     C_R   0.992024 0.312861 0.806896 -0.062538
C22   C     C_R   0.893826 0.724050 0.494966 -0.222404
C23   C     C_R   0.004441 0.883552 0.380783 0.859945
C24   C     C_R   0.905672 0.657742 0.506242 -0.245219
C25   C     C_R   0.848237 0.602210 0.520215 0.451450
C26   C     C_R   0.777011 0.611376 0.519585 -0.239729
C27   C     C_R   0.762865 0.677594 0.506893 -0.027077
C28   C     C_R   0.824723 0.737250 0.499137 0.114836
C29   C     C_R   0.814963 0.807921 0.494864 -0.161726
C30   C     C_R   0.743621 0.816783 0.492899 -0.281889
C31   C     C_R   0.679491 0.756246 0.495148 0.443273
C32   C     C_R   0.689130 0.686438 0.502524 -0.243274
C33   C     C_R   0.138114 0.923463 0.324317 0.290644
C34   C     C_R   0.880307 0.876872 0.497091 0.873344
C35   C     C_R   0.165500 0.951334 0.272818 -0.181506
C36   C     C_R   0.126440 0.894102 0.184222 -0.220137
C37   C     C_R   0.066473 0.806491 0.148880 -0.146898
C38   C     C_R   0.038482 0.777854 0.200316 0.079775
C39   C     C_R   0.062199 0.841083 0.282506 -0.034794
C40   C     C_R   0.008082 0.818149 0.317402 -0.041640
C41   C     C_R   0.947130 0.731072 0.282718 -0.197800
C42   C     C_R   0.940981 0.666035 0.214433 -0.172404
C43   C     C_R   0.988198 0.688672 0.173905 -0.102391
C44   C     C_R   0.621281 0.501346 0.619768 0.857394
C45   C     C_R   0.109287 0.103760 0.337887 -0.133850
C46   C     C_R   0.380298 0.380083 0.500131 0.839967
C47   C     C_R   0.376659 0.496978 0.380287 0.899557
C48   C     C_R   0.620425 0.620359 0.500404 0.944880
C49   C     C_R   0.879607 0.506785 0.886587 0.899802
C50   C     C_R   0.996434 0.379856 0.876647 0.868642
C51   C     C_R   0.119819 0.502660 0.122833 0.869869
C52   C     C_R   0.994245 0.620542 0.114177 0.845656
C53   C     C_R   0.795009 0.648402 0.718495 -0.120813
C54   C     C_R   0.876771 0.723198 0.771577 -0.096337
C55   C     C_R   0.936906 0.732450 0.846511 -0.130075
C56   C     C_R   0.097373 0.101919 0.259948 -0.152539
C57   C     C_R   0.916143 0.666034 0.867379 -0.107800
C58   C     C_R   0.835307 0.586769 0.811571 0.076145
C59   C     C_R   0.773235 0.579722 0.737866 0.110824
C60   C     C_R   0.689752 0.505299 0.686854 -0.146812
C61   C     C_R   0.664361 0.444340 0.712678 -0.228078
C62   C     C_R   0.722752 0.452445 0.787305 0.476658
C63   C     C_R   0.812050 0.516666 0.829757 -0.287826
C64   C     C_R   0.221512 0.486165 0.391011 -0.175939
C65   C     C_R   0.153165 0.492744 0.401233 -0.103628
C66   C     C_R   0.097682 0.508603 0.345609 -0.117504
C67   C     C_R   0.152224 0.174121 0.261148 -0.133348
C68   C     C_R   0.108362 0.514768 0.277572 -0.165093
C69   C     C_R   0.175354 0.504993 0.264106 0.103864
C70   C     C_R   0.235390 0.495475 0.324318 0.085131
C71   C     C_R   0.306877 0.494326 0.314991 -0.128630
C72   C     C_R   0.315697 0.496653 0.244938 -0.158105
C73   C     C_R   0.254985 0.501983 0.184035 -0.203486
C74   C     C_R   0.185044 0.505474 0.192769 -0.105739
C75   C     C_R   0.222028 0.246196 0.340071 -0.145540
C76   C     C_R   0.238122 0.247139 0.419887 0.066234
H1    H     H_    0.341579 0.349311 0.801011 0.142958
H2    H     H_    0.827866 0.039472 0.563457 0.176545
H3    H     H_    0.692154 0.038321 0.537629 0.224253
H4    H     H_    0.828615 0.295706 0.757776 0.198372
H5    H     H_    0.132513 0.371003 0.873775 0.155148
H6    H     H_    0.738449 0.872146 0.489975 0.195398
H7    H     H_    0.939076 0.764035 0.482379 0.173800
H8    H     H_    0.960242 0.650407 0.504789 0.185477
H9    H     H_    0.734294 0.566825 0.530627 0.178586
H10   H     H_    0.065597 0.045008 0.332653 0.151444
H11   H     H_    0.906288 0.713512 0.310269 0.138485
H12   H     H_    0.221901 0.014849 0.302571 0.198222
H13   H     H_    0.147988 0.915672 0.144656 0.163825
H14   H     H_    0.040828 0.762526 0.081117 0.147183
H15   H     H_    0.899272 0.598324 0.193418 0.179756
H16   H     H_    0.596607 0.393519 0.677238 0.191369
H17   H     H_    0.748487 0.645875 0.663506 0.106579
H18   H     H_    0.892460 0.775204 0.755898 0.142801
H19   H     H_    0.044884 0.044542 0.198510 0.148604
H20   H     H_    0.999180 0.792208 0.889807 0.134622
H21   H     H_    0.962555 0.680381 0.929807 0.138017
H22   H     H_    0.370733 0.495858 0.238200 0.183764
H23   H     H_    0.262207 0.472596 0.435005 0.145918
H24   H     H_    0.143650 0.486187 0.452918 0.158682
H25   H     H_    0.045744 0.515475 0.354769 0.148002
H26   H     H_    0.064419 0.528312 0.236752 0.154747
H27   H     H_    0.261875 0.502054 0.129055 0.162807
H28   H     H_    0.141636 0.173752 0.200728 0.144003
H29   H     H_    0.262489 0.300836 0.337373 0.140756
H30   H     H_    0.462309 0.424077 0.663011 0.146932
H31   H     H_    0.470068 0.441242 0.799465 0.165329
H32   H     H_    0.207766 0.236586 0.665972 0.137424
H33   H     H_    0.133117 0.256598 0.764724 0.150451
O1    O     O_R   0.051710 0.091600 0.643330 -0.630959
O2    O     O_R   0.591640 0.448340 0.539940 -0.583748
O3    O     O_R   0.408370 0.460150 0.551730 -0.642290
O4    O     O_R   0.408410 0.356720 0.448320 -0.611913
O5    O     O_R   0.408360 0.551760 0.460120 -0.589498
O6    O     O_R   0.408400 0.448330 0.356700 -0.631166
O7    O     O_R   0.591600 0.643380 0.551740 -0.560316
O8    O     O_R   0.591640 0.539950 0.448320 -0.622711
O9    O     O_R   0.960070 0.551730 0.908390 -0.633778
O10   O     O_R   0.856640 0.448280 0.908400 -0.538183
O11   O     O_R   0.051720 0.460120 0.908370 -0.608643
O12   O     O_R   0.948270 0.091620 0.539910 -0.614655
O13   O     O_R   0.948290 0.356670 0.908380 -0.613328
O14   O     O_R   0.143340 0.551720 0.091580 -0.609637
O15   O     O_R   0.039910 0.448270 0.091590 -0.625798
O16   O     O_R   0.051690 0.643330 0.091600 -0.635722
O17   O     O_R   0.948270 0.539880 0.091610 -0.619874
O18   O     O_R   0.143340 0.091610 0.551710 -0.565105
O19   O     O_R   0.039890 0.091630 0.448290 -0.640748
O20   O     O_R   0.051730 0.908380 0.460090 -0.561422
O21   O     O_R   0.948290 0.908400 0.356670 -0.633407
O22   O     O_R   0.960110 0.908370 0.551710 -0.626503
O23   O     O_R   0.856660 0.908390 0.448290 -0.619396
O24   O     O_R   0.591600 0.551770 0.643360 -0.637849
Zn1   Zn    Zn3+2 0.069070 0.999990 0.569050 1.052615
Zn2   Zn    Zn3+2 0.930930 0.000010 0.430950 0.989715
Zn3   Zn    Zn3+2 0.499980 0.569110 0.569080 1.033062
Zn4   Zn    Zn3+2 0.500030 0.430990 0.430980 1.024836
Zn5   Zn    Zn3+2 0.069050 0.569070 0.999980 0.986218
Zn6   Zn    Zn3+2 0.930930 0.430930 0.000000 1.038252
S1    S     S_3+6 0.652496 0.167738 0.620041 0.084929
O25   O     O_2   0.618059 0.138518 0.672850 -0.227604
O26   O     O_2   0.666280 0.258124 0.641477 -0.267041
O27   O     O_3   0.579737 0.097924 0.513655 -0.530672
H34   H     H_    0.525285 0.099391 0.505686 0.413105
S2    S     S_3+6 0.865554 0.521524 0.539763 0.040441
O28   O     O_2   0.908907 0.555143 0.636109 -0.244450
O29   O     O_2   0.779809 0.439473 0.495814 -0.278206
O30   O     O_3   0.930235 0.498886 0.502991 -0.530003
H35   H     H_    0.896372 0.473273 0.439114 0.345139
S3    S     S_3+6 0.587228 0.769142 0.485053 0.043025
O31   O     O_2   0.587549 0.794223 0.569866 -0.260521
O32   O     O_2   0.588897 0.839368 0.461830 -0.296430
O33   O     O_3   0.495785 0.674458 0.406418 -0.576024
H36   H     H_    0.447680 0.687133 0.402921 0.390087
S4    S     S_3+6 0.222342 0.966508 0.431126 0.054968
O34   O     O_2   0.247290 0.059125 0.487454 -0.263567
O35   O     O_2   0.197392 0.912429 0.471716 -0.262879
O36   O     O_3   0.310484 0.967335 0.425911 -0.493009
H37   H     H_    0.291218 0.905206 0.388256 0.361648
S5    S     S_3+6 0.677565 0.391448 0.831737 0.065287
O37   O     O_2   0.716511 0.451155 0.927358 -0.319048
O38   O     O_2   0.580291 0.353909 0.787993 -0.292409
O39   O     O_3   0.699458 0.308788 0.817997 -0.465707
H38   H     H_    0.678340 0.283118 0.850207 0.385098

loop_
_geom_bond_atom_site_label_1
_geom_bond_atom_site_label_2
_ccdc_geom_bond_type
C36   H13   S    
C8    C9    A    
C56   H19   S    
C66   C68   A    
C13   H3    S    
C16   C21   A    
C49   C63   S    
C46   O3    A    
S4    O35   D    
C51   O14   A    
C73   C74   A    
O15   Zn6   S    
C10   H32   S    
O21   Zn2   S    
C50   O13   A    
O18   Zn1   S    
O22   Zn1   S    
S2    O28   D    
C53   C59   A    
C7    C8    A    
C12   O18   A    
C72   H22   S    
C53   C54   A    
C47   O6    A    
O14   Zn5   S    
C1    C18   S    
C37   C38   A    
C37   H14   S    
C50   O11   A    
C5    C6    A    
C28   C29   A    
C68   H26   S    
O13   Zn6   S    
C18   C19   A    
C26   H9    S    
C6    C12   S    
C30   C31   A    
C43   C52   S    
O27   H34   S    
C58   C63   A    
C23   O20   A    
C42   H15   S    
C41   C42   A    
C64   H23   S    
C11   C17   A    
O39   H38   S    
C45   C56   A    
C16   C17   A    
S3    O33   S    
O24   Zn3   S    
S1    O27   S    
C70   C71   A    
C64   C70   A    
C9    C10   A    
C61   C62   A    
C61   H16   S    
C48   O7    A    
C34   O23   A    
C59   C60   A    
C22   C28   A    
C20   H5    S    
S4    O36   S    
C51   O15   A    
C32   C48   S    
C66   H25   S    
C2    C6    A    
O3    Zn3   S    
C4    C7    A    
C21   C50   S    
S2    O29   D    
C67   H28   S    
C19   H33   S    
C2    C45   A    
C38   C39   A    
C41   H11   S    
O17   Zn6   S    
C15   C16   A    
C47   O5    A    
C53   H17   S    
S5    O39   S    
O6    Zn4   S    
C24   C25   A    
C72   C73   A    
O19   Zn2   S    
C39   C40   A    
C31   S3    S    
C52   O17   A    
C68   C69   A    
C9    H1    S    
C25   C26   A    
C29   C34   S    
O12   Zn2   S    
C23   O21   A    
C60   C61   A    
C35   C36   A    
S5    O38   D    
C30   H6    S    
C75   C76   A    
C29   C30   A    
C11   H2    S    
C1    O1    A    
C35   H12   S    
C49   O9    A    
C73   H27   S    
C57   H21   S    
C62   C63   A    
C17   C18   A    
C26   C27   A    
C7    H30   S    
C69   C74   A    
C33   C39   A    
S1    O25   D    
C3    C76   A    
C47   C71   S    
C12   O19   A    
C40   C41   A    
C14   S1    S    
C34   O22   A    
C75   H29   S    
C55   C57   A    
O36   H37   S    
C62   S5    S    
O1    Zn1   S    
O11   Zn5   S    
C42   C43   A    
C3    C4    A    
C8    H31   S    
S4    O34   D    
S2    O30   S    
C2    C76   A    
O2    Zn4   S    
C44   O24   A    
C54   C55   A    
C36   C37   A    
C46   O4    A    
C27   C32   A    
S3    O31   D    
C31   C32   A    
O8    Zn4   S    
C65   H24   S    
S1    O26   D    
C55   H20   S    
C52   O16   A    
C33   S4    S    
C48   O8    A    
O7    Zn3   S    
O16   Zn5   S    
C56   C67   A    
C3    C46   S    
O4    Zn4   S    
O10   Zn6   S    
C64   C65   A    
C19   C20   A    
C45   H10   S    
C58   C59   A    
C5    C10   A    
O9    Zn5   S    
S5    O37   D    
C22   H7    S    
C11   C13   A    
C57   C58   A    
C49   O10   A    
S3    O32   D    
C44   C60   S    
O23   Zn2   S    
C4    C5    A    
C33   C35   A    
C22   C24   A    
O30   H35   S    
C24   H8    S    
C69   C70   A    
C1    O12   A    
C15   H4    S    
C54   H18   S    
O20   Zn1   S    
C44   O2    A    
C38   C43   A    
C67   C75   A    
C20   C21   A    
C65   C66   A    
C27   C28   A    
C51   C74   S    
O5    Zn3   S    
C14   C15   A    
C25   S2    S    
C71   C72   A    
O33   H36   S    
C13   C14   A    
C23   C40   S    
