data_mof_unit_63652.cif
_audit_creation_date              2012-12-10T18:05:21-0500
_audit_creation_method            fapswitch 2.2
_symmetry_space_group_name_H-M    P1
_symmetry_Int_Tables_number       1
_space_group_crystal_system       triclinic
_cell_length_a                    30.786515
_cell_length_b                    30.659438
_cell_length_c                    23.426529
_cell_angle_alpha                 89.999736
_cell_angle_beta                  130.452255
_cell_angle_gamma                 89.999869
_cell_volume                      16826.2374366

loop_
_atom_site_label
_atom_site_type_symbol
_atom_type_description
_atom_site_fract_x
_atom_site_fract_y
_atom_site_fract_z
_atom_type_partial_charge
C1    C     C_R   0.809033 0.809485 0.499514 0.815452
C2    C     C_R   0.190948 0.809479 0.500433 0.818911
C3    C     C_R   0.309053 0.309479 0.499569 0.819025
C4    C     C_R   0.690966 0.309486 0.500485 0.815448
C5    C     C_R   0.442707 0.748870 0.885487 0.139109
C6    C     C_R   0.557294 0.748870 0.114513 0.138928
C7    C     C_R   0.942705 0.248870 0.885487 0.138928
C8    C     C_R   0.057292 0.248870 0.114513 0.139124
C9    C     C_1   0.483076 0.748658 0.966193 -0.050905
C10   C     C_1   0.516926 0.748658 0.033807 -0.050756
C11   C     C_1   0.983073 0.248658 0.966193 -0.050764
C12   C     C_1   0.016923 0.248658 0.033807 -0.050918
C13   C     C_R   0.901585 0.843192 0.554378 0.080866
C14   C     C_R   0.098571 0.843999 0.444205 0.079550
C15   C     C_R   0.401430 0.344005 0.555808 0.079591
C16   C     C_R   0.598415 0.343198 0.445610 0.080883
C17   C     C_R   0.842143 0.843523 0.500616 -0.126764
C18   C     C_R   0.157903 0.843511 0.499418 -0.124873
C19   C     C_R   0.342098 0.343510 0.500584 -0.124874
C20   C     C_R   0.657856 0.343523 0.499382 -0.126762
C21   C     C_R   0.814691 0.879877 0.452982 -0.183542
C22   C     C_R   0.185515 0.879178 0.548682 -0.185412
C23   C     C_R   0.314485 0.379172 0.451306 -0.185490
C24   C     C_R   0.685310 0.379872 0.547029 -0.183534
C25   C     C_R   0.846806 0.912114 0.452736 -0.200635
C26   C     C_R   0.153408 0.911443 0.548894 -0.200771
C27   C     C_R   0.346592 0.411436 0.451093 -0.200784
C28   C     C_R   0.653196 0.412109 0.547276 -0.200629
C29   C     C_R   0.906586 0.908863 0.502064 -0.065525
C30   C     C_R   0.093532 0.908918 0.497983 -0.066417
C31   C     C_R   0.406468 0.408917 0.502017 -0.066404
C32   C     C_R   0.593414 0.408862 0.497937 -0.065553
C33   C     C_R   0.933308 0.875780 0.555812 0.045608
C34   C     C_R   0.066915 0.876601 0.442870 0.046156
C35   C     C_R   0.433085 0.376605 0.557139 0.046184
C36   C     C_R   0.566693 0.375785 0.444180 0.045639
C37   C     C_3   0.978777 0.844789 0.575962 -0.547688
C38   C     C_3   0.020316 0.845935 0.419778 -0.544857
C39   C     C_3   0.479691 0.345941 0.580252 -0.544860
C40   C     C_3   0.521216 0.344796 0.424009 -0.547682
C41   C     C_3   0.943499 0.808746 0.573383 0.255375
C42   C     C_3   0.055472 0.809864 0.422144 0.255173
C43   C     C_3   0.444537 0.309871 0.577893 0.255120
C44   C     C_3   0.556491 0.308754 0.426578 0.255368
C45   C     C_R   0.677796 0.749869 0.355468 0.764978
C46   C     C_R   0.322204 0.749869 0.644532 0.769197
C47   C     C_R   0.177796 0.249869 0.355468 0.769324
C48   C     C_R   0.822204 0.249869 0.644532 0.764979
C49   C     C_R   0.048400 0.724187 0.153940 -0.122214
C50   C     C_R   0.953368 0.726281 0.845967 -0.124796
C51   C     C_R   0.546669 0.226234 0.154034 -0.124896
C52   C     C_R   0.451565 0.224139 0.846057 -0.122163
C53   C     C_R   0.087606 0.723687 0.232326 -0.023147
C54   C     C_R   0.914176 0.725797 0.767584 -0.092582
C55   C     C_R   0.585859 0.225754 0.232417 -0.091968
C56   C     C_R   0.412356 0.223642 0.767671 -0.023133
C57   C     C_R   0.136188 0.750675 0.272379 -0.019170
C58   C     C_R   0.863852 0.750756 0.727599 -0.021572
C59   C     C_R   0.636153 0.250750 0.272401 -0.021376
C60   C     C_R   0.363810 0.250669 0.727620 -0.019472
C61   C     C_R   0.144548 0.778202 0.232169 -0.177868
C62   C     C_R   0.853789 0.776348 0.767862 -0.171035
C63   C     C_R   0.646188 0.276373 0.232137 -0.171147
C64   C     C_R   0.355487 0.278232 0.767833 -0.177991
C65   C     C_R   0.105261 0.778633 0.153739 -0.134073
C66   C     C_R   0.893062 0.776769 0.846296 -0.135551
C67   C     C_R   0.606916 0.276791 0.153703 -0.135519
C68   C     C_R   0.394776 0.278659 0.846263 -0.134113
C69   C     C_R   0.057147 0.751627 0.114497 0.123577
C70   C     C_R   0.942879 0.751716 0.885476 0.129724
C71   C     C_R   0.557129 0.251702 0.114523 0.129731
C72   C     C_R   0.442856 0.251615 0.885502 0.123521
C73   C     C_1   0.016874 0.751894 0.033795 -0.026866
C74   C     C_1   0.983128 0.751923 0.966180 -0.031582
C75   C     C_1   0.516878 0.251909 0.033820 -0.031540
C76   C     C_1   0.483130 0.251881 0.966205 -0.026872
C77   C     C_R   0.678560 0.616461 0.530033 0.058587
C78   C     C_R   0.320654 0.617101 0.467141 0.074896
C79   C     C_R   0.179308 0.117055 0.532701 0.074953
C80   C     C_R   0.821427 0.116471 0.469926 0.058625
C81   C     C_R   0.656722 0.657527 0.498985 -0.095338
C82   C     C_R   0.343195 0.657527 0.500935 -0.095486
C83   C     C_R   0.156814 0.157528 0.499094 -0.095655
C84   C     C_R   0.843277 0.157527 0.501014 -0.095340
C85   C     C_R   0.599676 0.666121 0.466631 -0.185978
C86   C     C_R   0.400982 0.665480 0.536203 -0.188913
C87   C     C_R   0.099075 0.165529 0.464026 -0.188792
C88   C     C_R   0.900333 0.166113 0.533406 -0.186012
C89   C     C_R   0.690687 0.690577 0.500059 0.827097
C90   C     C_R   0.309239 0.690581 0.499814 0.833111
C91   C     C_R   0.190763 0.190581 0.500193 0.832982
C92   C     C_R   0.809313 0.190577 0.499941 0.827171
C93   C     C_R   0.566884 0.633660 0.465794 -0.201739
C94   C     C_R   0.433802 0.633002 0.537125 -0.201090
C95   C     C_R   0.066252 0.133052 0.463098 -0.201167
C96   C     C_R   0.933125 0.133652 0.534242 -0.201752
C97   C     C_R   0.591353 0.592813 0.498989 -0.036449
C98   C     C_R   0.408646 0.592830 0.501064 -0.043312
C99   C     C_R   0.091356 0.092825 0.498941 -0.043225
C100  C     C_R   0.908646 0.092814 0.501008 -0.036478
C101  C     C_R   0.647365 0.585850 0.530684 0.030980
C102  C     C_R   0.351922 0.586512 0.466590 0.036593
C103  C     C_R   0.148033 0.086458 0.533224 0.036693
C104  C     C_R   0.852622 0.085861 0.469272 0.030982
C105  C     C_3   0.693118 0.552329 0.568589 -0.533629
C106  C     C_3   0.305191 0.553803 0.424961 -0.508984
C107  C     C_3   0.194684 0.053675 0.574555 -0.508787
C108  C     C_3   0.806855 0.052349 0.431324 -0.533554
C109  C     C_3   0.729344 0.587119 0.568488 0.313409
C110  C     C_3   0.268857 0.588604 0.424795 0.241541
C111  C     C_3   0.231027 0.088483 0.574757 0.240819
C112  C     C_3   0.770632 0.087139 0.431434 0.313278
C113  C     C_R   0.440759 0.559398 0.500244 0.798121
C114  C     C_R   0.559257 0.559370 0.499763 0.798580
C115  C     C_R   0.940742 0.059370 0.500236 0.798563
C116  C     C_R   0.059243 0.059394 0.499756 0.798099
C117  C     C_R   0.940500 0.940660 0.500351 0.801956
C118  C     C_R   0.059524 0.940667 0.499654 0.801435
C119  C     C_R   0.440476 0.440667 0.500346 0.801447
C120  C     C_R   0.559500 0.440660 0.499649 0.801964
C121  C     C_R   0.822258 0.750194 0.644548 0.852189
C122  C     C_R   0.177750 0.750181 0.355446 0.869880
C123  C     C_R   0.322249 0.250179 0.644554 0.869730
C124  C     C_R   0.677743 0.250192 0.355452 0.852392
C125  C     C_R   0.450740 0.776916 0.845918 -0.147569
C126  C     C_R   0.549217 0.776872 0.154082 -0.147392
C127  C     C_R   0.950744 0.276910 0.845919 -0.147403
C128  C     C_R   0.049222 0.276878 0.154083 -0.147586
C129  C     C_R   0.411528 0.777280 0.767511 -0.184800
C130  C     C_R   0.588429 0.777237 0.232488 -0.183658
C131  C     C_R   0.911532 0.277275 0.767512 -0.183662
C132  C     C_R   0.088435 0.277243 0.232489 -0.184823
C133  C     C_R   0.363670 0.749536 0.727596 -0.035090
C134  C     C_R   0.636330 0.749536 0.272403 -0.034586
C135  C     C_R   0.863669 0.249536 0.727597 -0.034584
C136  C     C_R   0.136329 0.249536 0.272403 -0.035107
C137  C     C_R   0.355969 0.721451 0.767925 -0.181595
C138  C     C_R   0.644074 0.721494 0.232075 -0.181724
C139  C     C_R   0.855962 0.221456 0.767924 -0.181726
C140  C     C_R   0.144066 0.221487 0.232075 -0.181605
C141  C     C_R   0.395267 0.721155 0.846364 -0.149032
C142  C     C_R   0.604778 0.721199 0.153636 -0.149084
C143  C     C_R   0.895259 0.221161 0.846364 -0.149082
C144  C     C_R   0.104769 0.221192 0.153635 -0.149032
Cu1   Cu    Cu3+1 0.780910 0.719080 0.500000 1.053626
Cu2   Cu    Cu3+1 0.219090 0.719080 0.500000 1.019648
Cu3   Cu    Cu3+1 0.280910 0.219080 0.500000 1.019076
Cu4   Cu    Cu3+1 0.719090 0.219080 0.500000 1.053523
Cu5   Cu    Cu3+1 0.719070 0.780890 0.500010 0.974790
Cu6   Cu    Cu3+1 0.280930 0.780890 0.499990 0.974341
Cu7   Cu    Cu3+1 0.219070 0.280890 0.500010 0.974183
Cu8   Cu    Cu3+1 0.780930 0.280890 0.499990 0.974808
Cu9   Cu    Cu3+1 0.462710 0.500000 0.425470 0.981692
Cu10  Cu    Cu3+1 0.537290 0.500000 0.574530 0.981562
Cu11  Cu    Cu3+1 0.962710 0.000000 0.425470 0.981585
Cu12  Cu    Cu3+1 0.037290 0.000000 0.574530 0.981720
H1    H     H_    0.487313 0.798520 0.875669 0.141481
H2    H     H_    0.512609 0.798443 0.124331 0.141776
H3    H     H_    0.987321 0.298511 0.875670 0.141774
H4    H     H_    0.012620 0.298454 0.124332 0.141457
H5    H     H_    0.011295 0.703135 0.124107 0.151048
H6    H     H_    0.991827 0.706787 0.875744 0.151680
H7    H     H_    0.508233 0.206712 0.124258 0.151617
H8    H     H_    0.488642 0.203058 0.875887 0.151137
H9    H     H_    0.079810 0.702134 0.261432 0.194535
H10   H     H_    0.923393 0.705903 0.738421 0.188074
H11   H     H_    0.576664 0.205834 0.261581 0.187940
H12   H     H_    0.420122 0.202060 0.738562 0.194728
H13   H     H_    0.181449 0.799387 0.261221 0.160851
H14   H     H_    0.815508 0.795943 0.738845 0.159467
H15   H     H_    0.684445 0.295998 0.261153 0.159479
H16   H     H_    0.318615 0.299447 0.738783 0.160853
H17   H     H_    0.112445 0.799993 0.123725 0.143623
H18   H     H_    0.884527 0.796576 0.876358 0.142678
H19   H     H_    0.615428 0.296624 0.123639 0.142690
H20   H     H_    0.387621 0.300047 0.876279 0.143620
H21   H     H_    0.580279 0.697473 0.441287 0.162884
H22   H     H_    0.420886 0.696329 0.563730 0.161856
H23   H     H_    0.079205 0.196416 0.436653 0.161945
H24   H     H_    0.919738 0.197459 0.558780 0.162862
H25   H     H_    0.523109 0.640568 0.440317 0.147853
H26   H     H_    0.478146 0.639407 0.564845 0.149341
H27   H     H_    0.021947 0.139496 0.435535 0.149235
H28   H     H_    0.976909 0.140552 0.559751 0.147842
H29   H     H_    0.707812 0.543716 0.624808 0.249130
H30   H     H_    0.291878 0.546323 0.369126 0.246832
H31   H     H_    0.208092 0.046084 0.630410 0.246695
H32   H     H_    0.792171 0.043752 0.375105 0.249146
H33   H     H_    0.681666 0.524119 0.531311 0.163252
H34   H     H_    0.314765 0.524861 0.460048 0.161149
H35   H     H_    0.184967 0.024802 0.539271 0.161210
H36   H     H_    0.818288 0.024129 0.468576 0.163225
H37   H     H_    0.418742 0.799285 0.738240 0.159499
H38   H     H_    0.581179 0.799208 0.261760 0.160024
H39   H     H_    0.918752 0.299277 0.738241 0.160029
H40   H     H_    0.081190 0.299219 0.261761 0.159468
H41   H     H_    0.739987 0.578549 0.532708 0.090951
H42   H     H_    0.256187 0.579326 0.458071 0.074148
H43   H     H_    0.243565 0.079272 0.541307 0.073953
H44   H     H_    0.759975 0.078559 0.467195 0.090907
H45   H     H_    0.319622 0.699691 0.738954 0.159841
H46   H     H_    0.680457 0.699769 0.261046 0.160123
H47   H     H_    0.819610 0.199700 0.738953 0.160118
H48   H     H_    0.180444 0.199757 0.261045 0.159839
H49   H     H_    0.388638 0.699327 0.876476 0.140294
H50   H     H_    0.611441 0.699405 0.123524 0.140317
H51   H     H_    0.888626 0.199336 0.876475 0.140317
H52   H     H_    0.111427 0.199393 0.123523 0.140291
H53   H     H_    0.768547 0.882200 0.413625 0.159805
H54   H     H_    0.231689 0.880911 0.589222 0.157795
H55   H     H_    0.268311 0.380900 0.410757 0.157733
H56   H     H_    0.731455 0.382190 0.586394 0.159805
H57   H     H_    0.825097 0.938913 0.413311 0.159337
H58   H     H_    0.175172 0.937671 0.589511 0.159252
H59   H     H_    0.324828 0.437661 0.410466 0.159206
H60   H     H_    0.674905 0.438903 0.586709 0.159355
H61   H     H_    0.981349 0.841861 0.530965 0.166913
H62   H     H_    0.016501 0.842303 0.463545 0.166741
H63   H     H_    0.483512 0.342301 0.536491 0.166744
H64   H     H_    0.518638 0.341860 0.469000 0.166913
H65   H     H_    0.020190 0.851663 0.632606 0.228172
H66   H     H_    0.979606 0.853693 0.362915 0.228165
H67   H     H_    0.520397 0.353705 0.637114 0.228155
H68   H     H_    0.479807 0.351679 0.367366 0.228162
H69   H     H_    0.926086 0.784777 0.527446 0.111817
H70   H     H_    0.071535 0.785158 0.466667 0.112171
H71   H     H_    0.428483 0.285158 0.533384 0.112165
H72   H     H_    0.573895 0.284776 0.472501 0.111810
O1    O     O_R   0.821190 0.768980 0.500000 -0.569374
O2    O     O_R   0.178810 0.768980 0.500000 -0.571234
O3    O     O_R   0.321190 0.268980 0.500000 -0.571226
O4    O     O_R   0.678810 0.268980 0.500000 -0.569410
O5    O     O_R   0.486270 0.545120 0.562900 -0.586678
O6    O     O_R   0.513730 0.545120 0.437100 -0.586358
O7    O     O_R   0.986270 0.045120 0.562900 -0.586369
O8    O     O_R   0.013730 0.045120 0.437100 -0.586651
O9    O     O_R   0.923420 0.954920 0.437060 -0.586523
O10   O     O_R   0.076580 0.954920 0.562940 -0.586989
O11   O     O_R   0.423420 0.454920 0.437060 -0.587001
O12   O     O_R   0.576580 0.454920 0.562940 -0.586527
O13   O     O_R   0.986330 0.954940 0.562940 -0.577754
O14   O     O_R   0.013670 0.954940 0.437060 -0.577934
O15   O     O_R   0.486330 0.454940 0.562940 -0.577926
O16   O     O_R   0.513670 0.454940 0.437060 -0.577754
O17   O     O_R   0.768960 0.821170 0.500020 -0.583399
O18   O     O_R   0.231040 0.821170 0.499980 -0.583095
O19   O     O_R   0.268960 0.321170 0.500020 -0.583076
O20   O     O_R   0.731040 0.321170 0.499980 -0.583395
O21   O     O_R   0.721730 0.723890 0.391250 -0.592803
O22   O     O_R   0.278270 0.723890 0.608750 -0.592527
O23   O     O_R   0.221730 0.223890 0.391250 -0.592508
O24   O     O_R   0.778270 0.223890 0.608750 -0.592811
O25   O     O_R   0.669500 0.776090 0.391270 -0.594202
O26   O     O_R   0.330500 0.776090 0.608730 -0.593816
O27   O     O_R   0.169500 0.276090 0.391270 -0.593792
O28   O     O_R   0.830500 0.276090 0.608730 -0.594202
O29   O     O_R   0.731010 0.678810 0.499990 -0.564182
O30   O     O_R   0.268990 0.678810 0.500010 -0.583241
O31   O     O_R   0.231010 0.178810 0.499990 -0.583621
O32   O     O_R   0.768990 0.178810 0.500010 -0.564219
O33   O     O_R   0.678790 0.731000 0.500010 -0.591133
O34   O     O_R   0.321210 0.731000 0.499990 -0.587238
O35   O     O_R   0.178790 0.231000 0.500010 -0.587283
O36   O     O_R   0.821210 0.231000 0.499990 -0.591115
O37   O     O_R   0.830470 0.723890 0.608750 -0.519787
O38   O     O_R   0.169530 0.723890 0.391250 -0.529012
O39   O     O_R   0.330470 0.223890 0.608750 -0.529282
O40   O     O_R   0.669530 0.223890 0.391250 -0.519714
O41   O     O_R   0.778250 0.776080 0.608760 -0.599153
O42   O     O_R   0.221750 0.776080 0.391240 -0.599784
O43   O     O_R   0.278250 0.276080 0.608760 -0.599740
O44   O     O_R   0.721750 0.276080 0.391240 -0.599201
O45   O     O_R   0.423360 0.545090 0.437020 -0.577096
O46   O     O_R   0.576640 0.545090 0.562980 -0.576733
O47   O     O_R   0.923360 0.045090 0.437020 -0.576726
O48   O     O_R   0.076640 0.045090 0.562980 -0.577076
S1    S     S_3+6 0.977192 0.784283 0.662752 0.020923
O49   O     O_2   0.943008 0.745259 0.651749 -0.259144
O50   O     O_2   0.036395 0.769650 0.697586 -0.268043
O51   O     O_3   0.980614 0.819812 0.720295 -0.510980
H73   H     H_    0.007863 0.842561 0.730949 0.347481
S2    S     S_3+6 0.022772 0.786878 0.332102 0.018177
O52   O     O_2   0.056541 0.747738 0.342414 -0.266007
O53   O     O_2   0.962894 0.772750 0.294811 -0.267988
O54   O     O_3   0.021456 0.823374 0.277365 -0.512339
H74   H     H_    0.994328 0.846216 0.266785 0.347605
S3    S     S_3+6 0.477232 0.286900 0.667943 0.018249
O55   O     O_2   0.443459 0.247767 0.657648 -0.265905
O56   O     O_2   0.537108 0.272764 0.705242 -0.267968
O57   O     O_3   0.478549 0.323411 0.722664 -0.512284
H75   H     H_    0.505690 0.346243 0.733248 0.347600
S4    S     S_3+6 0.522803 0.284310 0.337198 0.020900
O58   O     O_2   0.556990 0.245293 0.348181 -0.259199
O59   O     O_2   0.463600 0.269669 0.302356 -0.268065
O60   O     O_3   0.519378 0.319857 0.279673 -0.510974
H76   H     H_    0.492119 0.342596 0.269020 0.347483
S5    S     S_3+6 0.789101 0.605456 0.660609 0.014870
O61   O     O_2   0.769386 0.632315 0.693748 -0.272856
O62   O     O_2   0.821768 0.566517 0.709783 -0.278959
O63   O     O_3   0.831757 0.635709 0.655132 -0.524621
H77   H     H_    0.869039 0.636143 0.706825 0.365497
S6    S     S_3+6 0.211391 0.608867 0.332897 0.021933
O64   O     O_2   0.234306 0.634949 0.303162 -0.244280
O65   O     O_2   0.176892 0.571343 0.280804 -0.266184
O66   O     O_3   0.169170 0.640811 0.336905 -0.521569
H78   H     H_    0.155439 0.621728 0.356423 0.341423
S7    S     S_3+6 0.288650 0.108564 0.666727 0.022237
O67   O     O_2   0.265897 0.134383 0.696911 -0.244158
O68   O     O_2   0.323265 0.070942 0.718454 -0.265640
O69   O     O_3   0.330698 0.140736 0.662699 -0.520957
H79   H     H_    0.343766 0.121972 0.642007 0.341119
S8    S     S_3+6 0.710890 0.105500 0.339320 0.014848
O70   O     O_2   0.730621 0.132366 0.306208 -0.272507
O71   O     O_2   0.678217 0.066572 0.290118 -0.279251
O72   O     O_3   0.668236 0.135754 0.344802 -0.524817
H80   H     H_    0.630836 0.135935 0.293222 0.365490

loop_
_geom_bond_atom_site_label_1
_geom_bond_atom_site_label_2
_ccdc_geom_bond_type
C28   H60   S    
C99   C103  A    
C133  C137  A    
C55   C59   A    
C47   C136  S    
C38   H62   S    
C48   C135  S    
C109  H41   S    
C136  C140  A    
C68   H20   S    
C114  O6    A    
C135  C139  A    
S2    O52   D    
C4    O4    A    
C32   C120  S    
C95   C99   A    
Cu6   O26   S    
C78   C102  A    
Cu12  O7    S    
C29   C33   A    
C100  C104  A    
C116  O48   A    
C46   O22   A    
C42   S2    S    
Cu2   Cu6   S    
C93   H25   S    
C70   C74   S    
S3    O56   D    
C3    C19   S    
C55   H11   S    
C16   C44   S    
C117  O9    A    
C49   C69   A    
C40   H64   S    
C130  C134  A    
C100  C115  S    
C51   C71   A    
Cu4   O32   S    
C13   C41   S    
C25   C29   A    
C62   H14   S    
Cu4   O24   S    
Cu9   O11   S    
Cu1   O29   S    
C105  H33   S    
C28   C32   A    
C106  H30   S    
C121  O37   A    
C99   C116  S    
Cu8   O28   S    
C62   C66   A    
C98   C102  A    
C124  O40   A    
C17   C21   A    
C48   O24   A    
C19   C23   A    
C75   C76   T    
C13   C33   A    
C52   C72   A    
C78   C82   A    
C68   C72   A    
C80   C112  S    
C92   O36   A    
C129  C133  A    
C89   O33   A    
C113  O45   A    
C90   O30   A    
C91   O35   A    
O63   H77   S    
C59   C124  S    
Cu10  O15   S    
C108  H32   S    
C131  H39   S    
C84   C88   A    
C57   C61   A    
C83   C91   S    
C59   C63   A    
C60   C64   A    
C25   H57   S    
C50   C70   A    
C37   H65   S    
C1    O17   A    
Cu7   O19   S    
C138  H46   S    
Cu4   O40   S    
C113  O5    A    
C49   C53   A    
C22   H54   S    
S4    O59   D    
Cu9   O6    S    
C51   C55   A    
C142  H50   S    
C127  C131  A    
Cu12  O48   S    
C4    C20   S    
Cu11  O14   S    
C125  C129  A    
Cu11  Cu12  S    
C126  C130  A    
C66   H18   S    
Cu9   O45   S    
C112  H44   S    
C50   H6    S    
C86   H22   S    
C95   H27   S    
Cu6   O42   S    
C7    C143  A    
C66   C70   A    
C111  S7    S    
C21   C25   A    
C64   C68   A    
Cu1   O21   S    
C140  H48   S    
Cu5   O25   S    
Cu10  O12   S    
S8    O70   D    
C45   O21   A    
C139  C143  A    
C8    C128  A    
C21   H53   S    
C87   C95   A    
C9    C10   T    
C47   O23   A    
C8    C12   S    
C91   O31   A    
S1    O49   D    
S5    O62   D    
C79   C103  A    
Cu3   O3    S    
C42   H70   S    
S6    O65   D    
C30   C34   A    
O51   H73   S    
C78   C110  S    
C3    O3    A    
Cu6   O34   S    
C30   C118  S    
C60   C123  S    
Cu3   Cu7   S    
C5    C9    S    
C61   C65   A    
C132  C136  A    
C77   C109  S    
C26   C30   A    
Cu2   O30   S    
C106  H34   S    
C121  O41   A    
C122  O38   A    
C123  O43   A    
Cu6   O18   S    
Cu1   O1    S    
C124  O44   A    
C18   C22   A    
C107  C111  S    
C24   C28   A    
C14   C34   A    
C103  C107  S    
S2    O53   D    
S8    O72   S    
C13   C17   A    
S7    O69   S    
C110  S6    S    
C15   C43   S    
C16   C36   A    
Cu8   O36   S    
C137  H45   S    
Cu11  O8    S    
C96   C100  A    
Cu3   O31   S    
C90   O34   A    
C141  H49   S    
C41   S1    S    
C2    O2    A    
C40   C44   S    
C56   C60   A    
S2    O54   S    
S1    O51   S    
C5    C125  A    
C108  H36   S    
Cu1   O37   S    
C84   C92   S    
C7    C127  A    
C97   C114  S    
C81   C85   A    
C118  O14   A    
C58   C62   A    
C83   C87   A    
C88   C96   A    
C93   C97   A    
C110  H42   S    
C73   C74   T    
C37   H61   S    
C80   C84   A    
C115  O7    A    
C15   C19   A    
Cu3   O23   S    
C50   C54   A    
C80   C104  A    
Cu2   O2    S    
C125  H1    S    
C94   C98   A    
O57   H75   S    
Cu5   O33   S    
Cu10  O46   S    
C105  C109  S    
C57   C122  S    
C143  H51   S    
C67   H19   S    
C69   C73   S    
Cu4   O4    S    
C6    C142  A    
Cu7   O35   S    
C81   C89   S    
C118  O10   A    
O72   H80   S    
C27   H59   S    
C39   H67   S    
C3    O19   A    
C54   H10   S    
C88   H24   S    
C41   H69   S    
S7    O67   D    
Cu4   Cu8   S    
C6    C126  A    
Cu11  O47   S    
C138  C142  A    
O60   H76   S    
C53   C57   A    
C98   C113  S    
Cu12  O10   S    
C82   C86   A    
C27   C31   A    
C33   C37   S    
C108  C112  S    
C64   H16   S    
C35   C39   S    
C47   O27   A    
O54   H74   S    
C63   H15   S    
S3    O55   D    
C77   C81   A    
C116  O8    A    
S3    O57   S    
C44   H72   S    
C31   C119  S    
C52   H8    S    
C53   H9    S    
C51   H7    S    
Cu2   O22   S    
C31   C35   A    
C32   C36   A    
C104  C108  S    
C114  O46   A    
C39   H63   S    
C137  C141  A    
O69   H79   S    
C58   C121  S    
Cu5   O17   S    
C1    C17   S    
C140  C144  A    
C130  H38   S    
C6    C10   S    
C82   C90   S    
C26   H58   S    
C38   H66   S    
C2    O18   A    
Cu5   O41   S    
C139  H47   S    
C46   C133  S    
C79   C83   A    
C23   H55   S    
C65   C69   A    
Cu10  O5    S    
S8    O71   D    
C77   C101  A    
C67   C71   A    
Cu8   O20   S    
Cu12  O13   S    
C122  O42   A    
C123  O39   A    
Cu11  O9    S    
C85   H21   S    
O66   H78   S    
C22   C26   A    
C94   H26   S    
C46   O26   A    
Cu1   Cu5   S    
C144  H52   S    
C2    C18   S    
S5    O61   D    
C14   C18   A    
C72   C76   S    
C119  O11   A    
C24   H56   S    
C120  O12   A    
C7    C11   S    
S6    O66   S    
C45   C134  S    
C40   H68   S    
S4    O58   D    
C38   C42   S    
C131  C135  A    
C107  H31   S    
C120  O16   A    
C105  H29   S    
Cu2   O38   S    
C4    O20   A    
C86   C94   A    
C111  H43   S    
C20   C24   A    
C23   C27   A    
C48   O28   A    
C16   C20   A    
C14   C42   S    
C112  S8    S    
C37   C41   S    
C85   C93   A    
C96   H28   S    
C128  C132  A    
C15   C35   A    
C92   O32   A    
C43   H71   S    
C43   S3    S    
C126  H2    S    
C101  C105  S    
C63   C67   A    
C36   C40   S    
C89   O29   A    
Cu3   O39   S    
C39   C43   S    
C29   C117  S    
S7    O68   D    
C1    O1    A    
C5    C141  A    
C56   H12   S    
C8    C144  A    
C109  S5    S    
S1    O50   D    
S5    O63   S    
C107  H35   S    
C127  H3    S    
C128  H4    S    
Cu7   O27   S    
C54   C58   A    
S6    O64   D    
C44   S4    S    
C65   H17   S    
C34   C38   S    
C49   H5    S    
S4    O60   S    
C134  C138  A    
C129  H37   S    
C11   C12   T    
C79   C111  S    
C71   C75   S    
Cu7   O43   S    
Cu8   O44   S    
C102  C106  S    
C87   H23   S    
C115  O47   A    
C61   H13   S    
C106  C110  S    
Cu9   O16   S    
C132  H40   S    
Cu9   Cu10  S    
C119  O15   A    
C97   C101  A    
C52   C56   A    
C45   O25   A    
C117  O13   A    
