data_mof_unit_64214.cif
_audit_creation_date              2012-12-10T16:43:34-0500
_audit_creation_method            fapswitch 2.2
_symmetry_space_group_name_H-M    P1
_symmetry_Int_Tables_number       1
_space_group_crystal_system       triclinic
_cell_length_a                    18.511439
_cell_length_b                    18.501126
_cell_length_c                    18.426413
_cell_angle_alpha                 119.713609
_cell_angle_beta                  90.57315
_cell_angle_gamma                 119.868463
_cell_volume                      4467.98860441

loop_
_atom_site_label
_atom_site_type_symbol
_atom_type_description
_atom_site_fract_x
_atom_site_fract_y
_atom_site_fract_z
_atom_type_partial_charge
C1    C     C_R   0.361759 0.001413 0.139082 0.540635
C2    C     C_2   0.792109 0.983980 0.677230 0.261051
C3    C     C_2   0.715991 0.939188 0.769963 0.263623
C4    C     C_R   0.639422 0.001047 0.862651 0.571465
C5    C     C_2   0.708566 0.015960 0.823455 0.248616
C6    C     C_2   0.276746 0.446505 0.742562 0.206539
C7    C     C_2   0.194772 0.386751 0.682202 0.238620
C8    C     C_2   0.335273 0.556573 0.784785 -0.062712
C9    C     C_2   0.304413 0.613592 0.817236 -0.065235
C10   C     C_2   0.279992 0.067073 0.337658 -0.091640
C11   C     C_2   0.191456 0.003213 0.303970 -0.102450
C12   C     C_R   0.123495 0.042879 0.812536 -0.100705
C13   C     C_2   0.336197 0.075331 0.282322 0.224625
C14   C     C_2   0.306880 0.999341 0.195240 -0.041244
C15   C     C_2   0.802545 0.968342 0.219725 0.219996
C16   C     C_R   0.640528 0.276979 0.138662 0.540679
C17   C     C_2   0.803948 0.996795 0.303013 -0.043060
C18   C     C_2   0.738169 0.958430 0.162854 -0.100679
C19   C     C_2   0.703999 0.011739 0.196803 -0.107753
C20   C     C_2   0.783547 0.554994 0.223172 -0.093900
C21   C     C_2   0.790275 0.614206 0.307416 0.286669
C22   C     C_2   0.716902 0.444490 0.167784 -0.089373
C23   C     C_R   0.185276 0.022011 0.782499 -0.020722
C24   C     C_2   0.709475 0.385939 0.194102 0.293647
C25   C     C_R   0.138785 0.277012 0.638464 0.572293
C26   C     C_R   0.859421 0.723046 0.361507 0.536893
C27   C     C_R   0.860739 0.998946 0.637529 0.559928
C28   C     C_R   0.361341 0.723256 0.863000 0.527282
C29   C     C_R   0.138210 0.000287 0.361175 0.539985
C30   C     C_R   0.861603 0.000782 0.359867 0.553160
C31   C     C_R   0.140038 0.000781 0.640792 0.535035
C32   C     C_R   0.640931 0.001681 0.139976 0.524402
C33   C     C_R   0.359950 0.001278 0.861400 0.497668
C34   C     C_R   0.239448 0.021926 0.837418 -0.019705
C35   C     C_R   0.229817 0.042077 0.920118 -0.049946
C36   C     C_R   0.167161 0.060363 0.947315 0.260228
C37   C     C_R   0.114288 0.060903 0.893669 -0.029816
C38   C     C_R   0.303835 0.005196 0.809459 -0.003528
C39   C     C_R   0.315841 0.992065 0.730284 -0.074761
C40   C     C_R   0.262628 0.990961 0.675704 0.229819
C41   C     C_R   0.196365 0.004451 0.700508 0.050743
C42   C     C_2   0.788139 0.958021 0.734412 0.265030
Cl1   Cl    Cl    0.789470 0.143265 0.859491 -0.485036
Cl2   Cl    Cl    0.869854 0.950653 0.774213 -0.495786
Cl3   Cl    Cl    0.707537 0.987922 0.637126 -0.469500
Cl4   Cl    Cl    0.638383 0.811607 0.733951 -0.422357
Cl5   Cl    Cl    0.319393 0.398339 0.778383 -0.509071
Cl6   Cl    Cl    0.154903 0.432030 0.639081 -0.525651
Cl7   Cl    Cl    0.443659 0.190858 0.338176 -0.423684
Cl8   Cl    Cl    0.875755 0.940747 0.172356 -0.452613
Cl9   Cl    Cl    0.710179 0.567891 0.353699 -0.415799
Cl10  Cl    Cl    0.788647 0.433249 0.289390 -0.433255
Cl11  Cl    Cl    0.156165 0.084663 0.050016 -0.481129
Cl12  Cl    Cl    0.278663 0.967568 0.574148 -0.495440
H1    H     H_    0.365718 0.979957 0.709635 0.181417
H2    H     H_    0.758510 0.013708 0.330392 0.088229
H3    H     H_    0.720628 0.908122 0.091390 0.207455
H4    H     H_    0.827733 0.588151 0.193673 0.139801
H5    H     H_    0.673394 0.410771 0.103765 0.139523
H6    H     H_    0.066500 0.076532 0.915279 0.202618
H7    H     H_    0.271449 0.045681 0.965158 0.158475
H8    H     H_    0.725767 0.068561 0.267546 0.135004
H9    H     H_    0.082714 0.047343 0.774839 0.160709
H10   H     H_    0.405536 0.591659 0.795209 0.201110
H11   H     H_    0.235487 0.579306 0.813085 0.168471
H12   H     H_    0.313202 0.118738 0.409274 0.212577
H13   H     H_    0.155733 0.954798 0.233256 0.136174
H14   H     H_    0.240385 0.929921 0.162979 0.085212
O1    O     O_3   0.500000 0.000000 0.000000 -0.493380
O2    O     O_R   0.054120 0.939900 0.325040 -0.509891
O3    O     O_R   0.884120 0.060070 0.444330 -0.518105
O4    O     O_R   0.325020 0.939940 0.054210 -0.541658
O5    O     O_R   0.175860 0.060090 0.615830 -0.480219
O6    O     O_R   0.884120 0.939900 0.324160 -0.482314
O7    O     O_R   0.055710 0.939940 0.615850 -0.533541
O8    O     O_R   0.885720 0.939940 0.614980 -0.506392
O9    O     O_R   0.174930 0.060060 0.445830 -0.515006
O10   O     O_R   0.054120 0.229160 0.614300 -0.501187
O11   O     O_R   0.885050 0.770830 0.325070 -0.565310
O12   O     O_R   0.614240 0.229150 0.054160 -0.560503
O13   O     O_R   0.614240 0.060060 0.885070 -0.491810
O14   O     O_R   0.614900 0.229170 0.174980 -0.468032
O15   O     O_R   0.445840 0.770840 0.885740 -0.522304
O16   O     O_R   0.615830 0.060100 0.175880 -0.513441
O17   O     O_R   0.324090 0.939910 0.884220 -0.530709
O18   O     O_R   0.615830 0.939930 0.055710 -0.534458
O19   O     O_R   0.444240 0.060060 0.884190 -0.528178
O20   O     O_R   0.325020 0.770840 0.885120 -0.518836
O21   O     O_R   0.445840 0.060100 0.175010 -0.474390
O22   O     O_R   0.614900 0.939900 0.885710 -0.503841
O23   O     O_3   0.999960 0.000000 0.500040 -0.507435
O24   O     O_R   0.174930 0.229160 0.614920 -0.500691
O25   O     O_R   0.885720 0.770850 0.445880 -0.472233
O26   O     O_R   0.885050 0.060100 0.614330 -0.497840
Zn1   Zn    Zn3+2 0.542440 0.085830 0.956610 1.009604
Zn2   Zn    Zn3+2 0.543390 0.085850 0.129220 1.053362
Zn3   Zn    Zn3+2 0.543390 0.914160 0.957530 1.017018
Zn4   Zn    Zn3+2 0.370780 0.914160 0.956640 0.986882
Zn5   Zn    Zn3+2 0.957510 0.914170 0.543430 1.041266
Zn6   Zn    Zn3+2 0.956570 0.085840 0.542520 1.038046
Zn7   Zn    Zn3+2 0.956570 0.914150 0.370820 1.021500
Zn8   Zn    Zn3+2 0.129180 0.085840 0.543400 1.045171

loop_
_geom_bond_atom_site_label_1
_geom_bond_atom_site_label_2
_ccdc_geom_bond_type
C24   Cl10  S    
C15   C18   S    
C21   C26   S    
C3    C42   S    
C35   C36   A    
C21   Cl9   S    
O1    Zn2   S    
C30   O3    A    
O2    Zn7   S    
O4    Zn4   S    
O8    Zn5   S    
C12   C23   A    
C36   C37   A    
C18   C19   D    
C38   C39   A    
O13   Zn1   S    
C31   O5    A    
C19   H8    S    
C34   C35   A    
O16   Zn2   S    
C15   Cl8   S    
C12   C37   A    
O18   Zn3   S    
C33   O17   A    
O17   Zn4   S    
C39   H1    S    
C4    O13   A    
C8    C9    D    
O19   Zn1   S    
C28   O20   A    
C2    C27   S    
C36   Cl11  S    
O23   Zn6   S    
O25   Zn5   S    
O22   Zn3   S    
O24   Zn8   S    
O1    Zn4   S    
C26   O25   A    
C5    Cl1   S    
C16   C24   S    
C13   C14   D    
C28   O15   A    
C17   C30   S    
O9    Zn8   S    
C42   Cl2   S    
O23   Zn7   S    
C19   C32   S    
C16   O14   A    
C11   H13   S    
C4    O22   A    
C10   H12   S    
C2    Cl3   S    
C32   O16   A    
C1    O4    A    
O14   Zn2   S    
C6    Cl5   S    
C25   O10   A    
C22   H5    S    
C12   H9    S    
C6    C8    S    
C3    C5    D    
C16   O12   A    
C18   H3    S    
C31   O7    A    
O26   Zn6   S    
C23   C34   A    
C32   O18   A    
O7    Zn5   S    
C35   H7    S    
O12   Zn1   S    
C17   H2    S    
C8    H10   S    
O6    Zn7   S    
C13   Cl7   S    
C40   C41   A    
C20   C22   S    
C40   Cl12  S    
O10   Zn6   S    
C22   C24   D    
O23   Zn8   S    
C20   H4    S    
C27   O8    A    
C39   C40   A    
C29   O2    A    
C15   C17   D    
O5    Zn8   S    
C25   O24   A    
C1    O21   A    
C31   C41   S    
C34   C38   A    
C33   C38   S    
C4    C5    S    
O1    Zn1   S    
C10   C13   S    
C23   C41   A    
C6    C7    D    
O3    Zn6   S    
C3    Cl4   S    
C26   O11   A    
C7    C25   S    
C7    Cl6   S    
O21   Zn2   S    
C33   O19   A    
C2    C42   D    
C30   O6    A    
C9    H11   S    
C37   H6    S    
C10   C11   D    
C29   O9    A    
C20   C21   D    
C11   C29   S    
O15   Zn3   S    
C14   H14   S    
O11   Zn7   S    
C27   O26   A    
C1    C14   S    
O23   Zn5   S    
O20   Zn4   S    
C9    C28   S    
O1    Zn3   S    
