data_mof_unit_40811.cif
_audit_creation_date              2012-12-10T16:59:13-0500
_audit_creation_method            fapswitch 2.2
_symmetry_space_group_name_H-M    P1
_symmetry_Int_Tables_number       1
_space_group_crystal_system       triclinic
_cell_length_a                    7.742038
_cell_length_b                    8.699183
_cell_length_c                    27.490038
_cell_angle_alpha                 86.789841
_cell_angle_beta                  86.272406
_cell_angle_gamma                 94.564065
_cell_volume                      1838.17661036

loop_
_atom_site_label
_atom_site_type_symbol
_atom_type_description
_atom_site_fract_x
_atom_site_fract_y
_atom_site_fract_z
_atom_type_partial_charge
C1    C     C_R   0.546003 0.794916 0.497861 0.959240
C2    C     C_R   0.568982 0.692401 0.117828 -0.051073
C3    C     C_R   0.504233 0.485560 0.647254 -0.150897
C4    C     C_R   0.499412 0.526285 0.352406 -0.143387
C5    C     C_R   0.540265 0.664176 0.017142 0.006658
C6    C     C_R   0.460845 0.365032 0.983176 0.008361
C7    C     C_R   0.501781 0.380894 0.032063 0.075808
C8    C     C_R   0.496282 0.648040 0.968448 0.073382
C9    C     C_R   0.531449 0.530309 0.049297 0.051964
C10   C     C_R   0.469143 0.498807 0.951164 0.050205
C11   C     C_R   0.602434 0.806808 0.034958 0.135824
C12   C     C_R   0.453969 0.205033 0.502087 0.952132
C13   C     C_R   0.403878 0.222048 0.964768 0.134508
C14   C     C_R   0.600656 0.822551 0.085329 -0.145436
C15   C     C_R   0.416497 0.206319 0.914325 -0.139636
C16   C     C_R   0.503112 0.499907 0.594041 0.910011
C17   C     C_R   0.497313 0.502345 0.405770 0.907504
C18   C     C_R   0.464514 0.775205 0.937246 -0.147560
C19   C     C_R   0.529741 0.252695 0.063321 -0.144541
C20   C     C_2   0.560562 0.958682 0.487974 -0.078627
C21   C     C_2   0.439231 0.041127 0.511845 -0.083937
C22   C     C_R   0.414663 0.593851 0.820411 0.478015
C23   C     C_R   0.448016 0.483268 0.901175 -0.053139
C24   C     C_R   0.586476 0.432409 0.179866 0.511590
C25   C     C_R   0.471140 0.329125 0.831610 0.510471
C26   C     C_R   0.557885 0.702634 0.168617 0.515264
C27   C     C_R   0.356896 0.371572 0.723407 0.182751
C28   C     C_R   0.665966 0.632065 0.278085 0.189043
C29   C     C_R   0.369974 0.390607 0.672577 -0.251557
C30   C     C_R   0.648443 0.606126 0.328549 -0.269122
C31   C     C_R   0.630580 0.566719 0.672574 0.102671
C32   C     C_R   0.360915 0.472547 0.325215 0.103902
C33   C     C_R   0.621866 0.550119 0.724124 0.156184
C34   C     C_R   0.556341 0.545576 0.099167 -0.053188
C35   C     C_R   0.376503 0.496749 0.273745 0.128393
C36   C     C_R   0.482129 0.454126 0.749425 0.186410
C37   C     C_R   0.531228 0.574505 0.250398 0.216151
C38   C     C_3   0.758486 0.639072 0.751743 -0.344875
C39   C     C_3   0.928096 0.562539 0.750325 -0.832532
C40   C     C_3   0.227523 0.441753 0.243660 -0.401729
C41   C     C_3   0.217276 0.267817 0.236497 -0.688002
C42   C     C_3   0.835446 0.711049 0.254775 -0.392771
C43   C     C_3   0.850841 0.884357 0.261637 -0.749365
C44   C     C_3   0.209737 0.266683 0.750751 -0.367292
C45   C     C_R   0.428341 0.612975 0.870056 -0.016109
C46   C     C_3   0.062558 0.204895 0.720622 -0.861042
C47   C     C_3   0.680974 0.024994 0.443639 -0.370724
C48   C     C_3   0.704929 0.914663 0.402941 -0.863497
C49   C     C_3   0.318178 0.974236 0.556002 -0.365293
C50   C     C_3   0.293497 0.083798 0.596760 -0.858480
C51   C     C_R   0.570027 0.414350 0.130363 -0.025355
C52   C     C_R   0.428562 0.758085 0.888928 -0.127758
C53   C     C_R   0.563814 0.268824 0.111691 -0.148748
C54   C     C_R   0.448049 0.337431 0.882261 -0.038804
H1    H     H_    0.013920 0.380526 0.466927 0.221599
H2    H     H_    0.530047 0.138735 0.050688 0.184730
H3    H     H_    0.902475 0.443953 0.767549 0.268234
H4    H     H_    0.984442 0.558651 0.712366 0.287996
H5    H     H_    0.023491 0.628148 0.771410 0.285920
H6    H     H_    0.780644 0.760857 0.736958 0.246497
H7    H     H_    0.720261 0.646369 0.790805 0.216117
H8    H     H_    0.264229 0.201684 0.268001 0.280929
H9    H     H_    0.080384 0.225369 0.232138 0.244704
H10   H     H_    0.294111 0.243255 0.202854 0.263557
H11   H     H_    0.103557 0.468583 0.262067 0.218661
H12   H     H_    0.985836 0.618196 0.533590 0.219337
H13   H     H_    0.234562 0.505767 0.207380 0.198091
H14   H     H_    0.727943 0.936602 0.254740 0.310396
H15   H     H_    0.885340 0.905565 0.299266 0.237452
H16   H     H_    0.956241 0.941762 0.236008 0.251219
H17   H     H_    0.945209 0.661208 0.272008 0.199020
H18   H     H_    0.852899 0.692052 0.215280 0.216438
H19   H     H_    0.010262 0.298585 0.698483 0.267012
H20   H     H_    0.108994 0.117342 0.696361 0.267739
H21   H     H_    0.954978 0.147640 0.745574 0.279255
H22   H     H_    0.264103 0.163846 0.767317 0.269363
H23   H     H_    0.408850 0.859287 0.865889 0.203399
H24   H     H_    0.151720 0.329304 0.780967 0.205766
H25   H     H_    0.792626 0.825354 0.413266 0.274862
H26   H     H_    0.577391 0.859805 0.393948 0.256440
H27   H     H_    0.765927 0.981600 0.369928 0.261797
H28   H     H_    0.626732 0.125860 0.425411 0.233368
H29   H     H_    0.810298 0.063136 0.456135 0.238306
H30   H     H_    0.421064 0.138455 0.605812 0.256974
H31   H     H_    0.205704 0.173039 0.586417 0.274570
H32   H     H_    0.232381 0.016484 0.629726 0.264506
H33   H     H_    0.189133 0.935992 0.543336 0.238516
H34   H     H_    0.579532 0.166614 0.134770 0.206925
H35   H     H_    0.372465 0.873508 0.574305 0.236609
H36   H     H_    0.755282 0.646375 0.349389 0.190220
H37   H     H_    0.273765 0.332688 0.651879 0.186946
H38   H     H_    0.640890 0.933110 0.098827 0.180352
H39   H     H_    0.382263 0.095700 0.900122 0.172126
H40   H     H_    0.462866 0.888722 0.949962 0.185055
I1    I     I_    0.817460 0.731564 0.632942 -0.436371
I2    I     I_    0.134837 0.343695 0.360804 -0.438358
I3    I     I_    0.763234 0.978319 0.990759 -0.350699
I4    I     I_    0.233664 0.053302 0.007282 -0.357809
N1    N     N_R   0.454321 0.457562 0.801514 -0.349839
N2    N     N_R   0.561283 0.571668 0.198537 -0.350164
N3    N     N_2   0.950320 0.457960 0.486880 -0.166974
N4    N     N_2   0.049680 0.542040 0.513120 -0.170122
O1    O     O_R   0.389250 0.738570 0.503220 -0.639930
O2    O     O_2   0.620120 0.311086 0.209607 -0.555665
O3    O     O_2   0.541057 0.840344 0.187744 -0.567403
O4    O     O_2   0.515135 0.196438 0.812970 -0.572662
O5    O     O_R   0.610750 0.261430 0.496780 -0.636253
O6    O     O_R   0.678390 0.711630 0.494810 -0.612856
O7    O     O_R   0.321610 0.288370 0.505190 -0.616006
O8    O     O_R   0.355440 0.513440 0.575450 -0.619971
O9    O     O_R   0.644560 0.486560 0.424550 -0.616037
O10   O     O_R   0.644590 0.486500 0.567040 -0.595678
O11   O     O_R   0.355410 0.513500 0.432960 -0.593790
O12   O     O_2   0.375662 0.713091 0.790646 -0.559594
Zn1   Zn    Zn3+2 0.306940 0.517990 0.505620 0.960030
Zn2   Zn    Zn3+2 0.693060 0.482010 0.494380 0.963185

loop_
_geom_bond_atom_site_label_1
_geom_bond_atom_site_label_2
_ccdc_geom_bond_type
C19   H2    S    
N3    N4    D    
C23   C45   A    
C27   C29   A    
C49   H33   S    
C46   H20   S    
C30   H36   S    
C21   C49   S    
C18   C52   A    
C17   O11   A    
C34   C51   A    
C48   H25   S    
C35   C37   A    
C5    C11   A    
C38   C39   S    
C11   C14   A    
C39   H3    S    
C33   C36   A    
C48   H27   S    
C44   H22   S    
C47   H28   S    
C28   C42   S    
C13   I4    S    
C3    C29   A    
H12   N4    S    
C46   H21   S    
N4    Zn1   S    
C50   H31   S    
C27   C44   S    
C25   N1    A    
C43   H14   S    
C40   H13   S    
C31   C33   A    
O9    Zn2   S    
C47   H29   S    
C53   H34   S    
C1    O1    A    
C38   H7    S    
C2    C34   A    
C24   C51   A    
C43   H15   S    
C41   H8    S    
C17   O9    A    
C26   O3    S    
C12   O7    A    
C44   C46   S    
C25   O4    S    
C16   O8    A    
C32   C35   A    
C25   C54   A    
O7    Zn1   S    
C45   C52   A    
C39   H4    S    
C12   C21   S    
C8    C18   A    
C24   O2    S    
O1    Zn1   S    
C15   C54   A    
C5    C9    A    
C5    C8    A    
C47   C48   S    
C39   H5    S    
C42   H18   S    
C2    C26   A    
C3    C31   A    
C14   H38   S    
C4    C32   A    
C38   H6    S    
C4    C17   S    
C40   C41   S    
C32   I2    S    
C43   H16   S    
C7    C19   A    
C40   H11   S    
C13   C15   A    
C9    C34   A    
C18   H40   S    
C42   C43   S    
C41   H9    S    
C52   H23   S    
O10   Zn2   S    
C16   O10   A    
C23   C54   A    
C7    C9    A    
C1    C20   S    
C22   N1    A    
C24   N2    A    
C49   H35   S    
C15   H39   S    
C12   O5    A    
C6    C7    A    
C10   C23   A    
H1    N3    S    
C33   C38   S    
C11   I3    S    
C27   C36   A    
O6    Zn2   S    
C44   H24   S    
C35   C40   S    
C48   H26   S    
C6    C13   A    
C19   C53   A    
C28   C37   A    
C31   I1    S    
C28   C30   A    
C42   H17   S    
C50   H30   S    
C36   N1    S    
C37   N2    S    
C2    C14   A    
O5    Zn2   S    
C20   C47   S    
C6    C10   A    
C50   H32   S    
C1    O6    A    
C22   O12   S    
C22   C45   A    
C20   C21   D    
C8    C10   A    
C49   C50   S    
N3    Zn2   S    
C41   H10   S    
C51   C53   A    
O8    Zn1   S    
C46   H19   S    
C4    C30   A    
C3    C16   S    
C26   N2    A    
O11   Zn1   S    
C29   H37   S    
