data_mof_unit_49891.cif
_audit_creation_date              2012-12-10T18:05:47-0500
_audit_creation_method            fapswitch 2.2
_symmetry_space_group_name_H-M    P1
_symmetry_Int_Tables_number       1
_space_group_crystal_system       triclinic
_cell_length_a                    10.88929
_cell_length_b                    10.829621
_cell_length_c                    9.549697
_cell_angle_alpha                 89.856207
_cell_angle_beta                  90.975786
_cell_angle_gamma                 90.422451
_cell_volume                      1125.96888454

loop_
_atom_site_label
_atom_site_type_symbol
_atom_type_description
_atom_site_fract_x
_atom_site_fract_y
_atom_site_fract_z
_atom_type_partial_charge
C1    C     C_R   0.500845 0.262230 0.500298 0.859213
C2    C     C_R   0.499155 0.737770 0.499702 0.859213
C3    C     C_R   0.871727 0.498015 0.504065 -0.077754
C4    C     C_R   0.128273 0.501985 0.495935 -0.077754
C5    C     C_R   0.941479 0.473563 0.626889 -0.003587
C6    C     C_R   0.058521 0.526437 0.373110 -0.003587
C7    C     C_R   0.465702 0.064903 0.379053 -0.340736
C8    C     C_R   0.534298 0.935097 0.620946 -0.340736
C9    C     C_R   0.464162 0.937159 0.377732 0.608414
C10   C     C_R   0.535838 0.062841 0.622268 0.608414
C11   C     C_R   0.498836 0.871649 0.499065 -0.235497
C12   C     C_R   0.501163 0.128351 0.500935 -0.235497
C13   C     C_R   0.458843 0.399618 0.073628 -0.018276
C14   C     C_R   0.541157 0.600382 0.926372 -0.018276
C15   C     C_R   0.459009 0.399596 0.925247 0.009596
C16   C     C_R   0.540991 0.600404 0.074753 0.009597
C17   C     C_R   0.262236 0.501355 0.498489 0.785762
C18   C     C_R   0.737764 0.498645 0.501511 0.785762
C19   C     C_R   0.202665 0.695549 0.070096 -0.094547
C20   C     C_R   0.797335 0.304451 0.929904 -0.094546
C21   C     C_R   0.153350 0.671928 0.201838 -0.095349
C22   C     C_R   0.846650 0.328072 0.798162 -0.095349
C23   C     C_R   0.112987 0.552417 0.235943 0.114738
C24   C     C_R   0.887013 0.447583 0.764057 0.114738
C25   C     C_R   0.122349 0.457098 0.137886 -0.113854
C26   C     C_R   0.877651 0.542902 0.862114 -0.113854
C27   C     C_R   0.172399 0.480836 0.007073 -0.141293
C28   C     C_R   0.827601 0.519164 0.992927 -0.141293
C29   C     C_R   0.211827 0.600126 0.972572 -0.131968
C30   C     C_R   0.788173 0.399874 0.027428 -0.131968
C31   C     C_R   0.931543 0.524101 0.379072 -0.245066
C32   C     C_R   0.068457 0.475899 0.620928 -0.245066
Cu1   Cu    Cu3+1 0.500000 0.500020 0.640660 0.963221
Cu2   Cu    Cu3+1 0.500000 0.499980 0.359340 0.963221
H1    H     H_    0.250494 0.618406 0.870924 0.155594
H2    H     H_    0.749506 0.381594 0.129076 0.155595
H3    H     H_    0.424559 0.319367 0.869724 0.157004
H4    H     H_    0.575441 0.680633 0.130276 0.157004
H5    H     H_    0.233970 0.787647 0.043693 0.162994
H6    H     H_    0.766030 0.212353 0.956306 0.162994
H7    H     H_    0.146471 0.746238 0.276926 0.131724
H8    H     H_    0.853529 0.253762 0.723074 0.131724
H9    H     H_    0.091598 0.364475 0.163218 0.123433
H10   H     H_    0.908402 0.635525 0.836782 0.123433
H11   H     H_    0.181945 0.405880 0.933718 0.117493
H12   H     H_    0.818055 0.594120 0.066282 0.117493
H13   H     H_    0.879184 0.544437 0.285094 0.155858
H14   H     H_    0.120816 0.455563 0.714906 0.155858
H15   H     H_    0.437616 0.114037 0.285015 0.191163
H16   H     H_    0.562384 0.885963 0.714984 0.191163
H17   H     H_    0.424191 0.319429 0.128143 0.125168
H18   H     H_    0.575809 0.680570 0.871857 0.125168
N1    N     N_R   0.500030 0.500030 0.852070 -0.167219
N2    N     N_R   0.499970 0.499970 0.147930 -0.167219
O1    O     O_R   0.499990 0.319660 0.618740 -0.533028
O2    O     O_R   0.500010 0.680340 0.381260 -0.533028
O3    O     O_R   0.499990 0.319630 0.381170 -0.609761
O4    O     O_R   0.500010 0.680370 0.618830 -0.609761
O5    O     O_R   0.319650 0.500020 0.618780 -0.605456
O6    O     O_R   0.680350 0.499980 0.381220 -0.605456
O7    O     O_R   0.319640 0.500000 0.381210 -0.564004
O8    O     O_R   0.680360 0.500000 0.618790 -0.564005
F1    F     F_    0.426557 0.878483 0.258833 -0.683981
F2    F     F_    0.573442 0.121516 0.741166 -0.683981

loop_
_geom_bond_atom_site_label_1
_geom_bond_atom_site_label_2
_ccdc_geom_bond_type
Cu1   O1    S    
Cu2   O3    S    
C3    C31   A    
C16   H4    S    
C2    O4    A    
Cu2   O2    S    
Cu1   O4    S    
C14   C16   A    
C1    O3    A    
C27   C29   A    
C32   H14   S    
C29   H1    S    
C26   C28   A    
C13   C15   A    
C30   H2    S    
C5    C32   A    
C10   F2    S    
C25   H9    S    
C28   C30   A    
C6    C31   A    
C1    O1    A    
C26   H10   S    
Cu1   O5    S    
C31   H13   S    
C23   C25   A    
Cu2   O6    S    
C9    C11   A    
C28   H12   S    
C22   H8    S    
C1    C12   S    
C19   H5    S    
C17   O5    A    
C8    C11   A    
C21   H7    S    
C2    C11   S    
C15   N1    A    
C4    C6    A    
C19   C21   A    
C20   C22   A    
Cu2   N2    S    
C22   C24   A    
C21   C23   A    
Cu1   N1    S    
C7    C12   A    
C10   C12   A    
C16   N2    A    
C25   C27   A    
C27   H11   S    
C4    C17   S    
C4    C32   A    
C19   C29   A    
C8    H16   S    
C14   N1    A    
Cu1   Cu2   S    
C13   H17   S    
C7    H15   S    
C3    C18   S    
C8    C10   A    
C13   N2    A    
Cu2   O7    S    
C15   H3    S    
C18   O6    A    
C7    C9    A    
C18   O8    A    
C5    C24   S    
C20   C30   A    
C17   O7    A    
C6    C23   S    
C9    F1    S    
C20   H6    S    
C2    O2    A    
C14   H18   S    
C24   C26   A    
Cu1   O8    S    
C3    C5    A    
