data_mof_unit_41218.cif
_audit_creation_date              2012-12-11T14:01:27-0500
_audit_creation_method            fapswitch 2.2
_symmetry_space_group_name_H-M    P1
_symmetry_Int_Tables_number       1
_space_group_crystal_system       triclinic
_cell_length_a                    19.051447
_cell_length_b                    10.920863
_cell_length_c                    18.739396
_cell_angle_alpha                 90.084299
_cell_angle_beta                  90.219554
_cell_angle_gamma                 89.938267
_cell_volume                      3898.85071532

loop_
_atom_site_label
_atom_site_type_symbol
_atom_type_description
_atom_site_fract_x
_atom_site_fract_y
_atom_site_fract_z
_atom_type_partial_charge
C1    C     C_R   0.272731 0.041924 0.853803 0.561059
C2    C     C_R   0.711837 0.002630 0.138464 0.569114
C3    C     C_R   0.772730 0.541943 0.853796 0.561606
C4    C     C_R   0.211811 0.502564 0.138467 0.570432
C5    C     C_R   0.462792 0.036723 0.078060 -0.081415
C6    C     C_R   0.490729 0.061901 0.933194 -0.062636
C7    C     C_R   0.962862 0.536571 0.077865 -0.081592
C8    C     C_R   0.990939 0.561893 0.933037 -0.062253
C9    C     C_R   0.952337 0.648888 0.044475 -0.131057
C10   C     C_R   0.968776 0.662725 0.972804 -0.120138
C11   C     C_R   0.452387 0.149083 0.044688 -0.130508
C12   C     C_R   0.468713 0.162813 0.972986 -0.120299
C13   C     C_2   0.240961 0.560407 0.911785 -0.107300
C14   C     C_2   0.752404 0.577127 0.080511 -0.131781
C15   C     C_2   0.741040 0.060442 0.911813 -0.105290
C16   C     C_2   0.252502 0.077062 0.080553 -0.133402
C17   C     C_2   0.229210 0.535420 0.065537 -0.108628
C18   C     C_2   0.750716 0.584076 0.923919 -0.078315
C19   C     C_2   0.729267 0.035567 0.065559 -0.107273
C20   C     C_2   0.250743 0.083908 0.923967 -0.079443
C21   C     C_2   0.272656 0.466852 0.025604 -0.181936
C22   C     C_2   0.708596 0.513459 0.963971 -0.119265
C23   C     C_2   0.772858 0.967199 0.025679 -0.181716
C24   C     C_2   0.208779 0.013042 0.964047 -0.119215
C25   C     C_2   0.288801 0.502126 0.951732 -0.169848
C26   C     C_2   0.699136 0.536702 0.040140 -0.146864
C27   C     C_2   0.788976 0.002499 0.951814 -0.169501
C28   C     C_2   0.199324 0.036167 0.040234 -0.146716
C29   C     C_2   0.438471 0.826584 0.563341 -0.111146
C30   C     C_2   0.487590 0.837081 0.415869 -0.107216
C31   C     C_2   0.012134 0.336969 0.583771 -0.102804
C32   C     C_2   0.063638 0.327684 0.436758 -0.116663
C33   C     C_2   0.446265 0.746690 0.440859 0.122996
C34   C     C_2   0.439721 0.729247 0.518295 0.111044
C35   C     C_2   0.061598 0.230574 0.481823 0.105969
C36   C     C_2   0.055326 0.248668 0.559239 0.118722
C37   C     C_2   0.253535 0.610967 0.569834 -0.103375
C38   C     C_2   0.753807 0.564625 0.416544 -0.105500
C39   C     C_2   0.755096 0.113227 0.568920 -0.090022
C40   C     C_2   0.255573 0.067108 0.416931 -0.106477
C41   C     C_2   0.255754 0.601525 0.415106 -0.097859
C42   C     C_2   0.762151 0.568677 0.571833 -0.102146
C43   C     C_2   0.757044 0.105879 0.413546 -0.105411
C44   C     C_2   0.260417 0.072569 0.572693 -0.103408
C45   C     C_R   0.472966 0.823185 0.852394 0.574526
C46   C     C_R   0.528789 0.820547 0.146134 0.539619
C47   C     C_R   0.973031 0.323193 0.852330 0.559640
C48   C     C_R   0.028888 0.320533 0.146060 0.553185
C49   C     C_2   0.217834 0.682453 0.451088 -0.165914
C50   C     C_2   0.817730 0.557851 0.528055 -0.150906
C51   C     C_2   0.717642 0.183561 0.450506 -0.164744
C52   C     C_2   0.316762 0.084549 0.530342 -0.167090
C53   C     C_2   0.229979 0.700876 0.526535 -0.143050
C54   C     C_2   0.813237 0.583000 0.452423 -0.158679
C55   C     C_2   0.729822 0.202154 0.525990 -0.147062
C56   C     C_2   0.312473 0.098950 0.454100 -0.157118
C57   C     C_R   0.259769 0.632517 0.849505 0.556244
C58   C     C_R   0.739295 0.635213 0.148973 0.547119
C59   C     C_R   0.759783 0.132540 0.849517 0.554614
C60   C     C_R   0.239310 0.135193 0.148987 0.549132
C61   C     C_R   0.273636 0.043057 0.646474 0.548746
C62   C     C_R   0.729088 0.048928 0.350105 0.566759
C63   C     C_R   0.773903 0.542393 0.646222 0.553730
C64   C     C_R   0.228801 0.548082 0.350487 0.552207
C65   C     C_R   0.434133 0.818339 0.641076 0.577431
C66   C     C_R   0.526760 0.824460 0.350060 0.543786
C67   C     C_R   0.973233 0.324338 0.649848 0.544620
C68   C     C_R   0.066221 0.318525 0.358807 0.581991
C69   C     C_R   0.261298 0.640917 0.644273 0.541116
C70   C     C_R   0.740084 0.633769 0.352462 0.559666
C71   C     C_R   0.761739 0.142005 0.643766 0.555486
C72   C     C_R   0.240484 0.133353 0.352143 0.547513
C73   C     C_R   0.501640 0.822199 0.072443 -0.053075
C74   C     C_R   0.505426 0.835457 0.923327 -0.031377
C75   C     C_R   0.001987 0.322164 0.072265 -0.055567
C76   C     C_R   0.005701 0.335528 0.923146 -0.030100
C77   C     C_R   0.486685 0.934330 0.038914 -0.034722
C78   C     C_R   0.494464 0.943863 0.964295 -0.032465
C79   C     C_R   0.986924 0.434273 0.038744 -0.035884
C80   C     C_R   0.994728 0.443871 0.964135 -0.030743
C81   C     C_R   0.521803 0.724751 0.957094 0.266159
C82   C     C_R   0.511754 0.714511 0.030501 0.242598
C83   C     C_R   0.022278 0.224893 0.956855 0.267485
C84   C     C_R   0.012370 0.214574 0.030278 0.241641
Cr1   Cr    Cr6+3 0.230530 0.836340 0.748870 1.002318
Cr2   Cr    Cr6+3 0.769470 0.836340 0.251130 1.004321
Cr3   Cr    Cr6+3 0.730530 0.336340 0.748870 1.010190
Cr4   Cr    Cr6+3 0.269470 0.336340 0.251130 0.994500
Cr5   Cr    Cr6+3 0.387420 0.989430 0.750820 1.010005
Cr6   Cr    Cr6+3 0.612580 0.989430 0.249180 1.014372
Cr7   Cr    Cr6+3 0.887420 0.489430 0.750820 1.011816
Cr8   Cr    Cr6+3 0.112580 0.489430 0.249180 1.011259
Cr9   Cr    Cr6+3 0.385640 0.677860 0.749230 0.996387
Cr10  Cr    Cr6+3 0.614360 0.677860 0.250770 1.019027
Cr11  Cr    Cr6+3 0.885640 0.177860 0.749230 1.009288
Cr12  Cr    Cr6+3 0.114360 0.177860 0.250770 1.006962
H1    H     H_    0.173267 0.728899 0.426860 0.152908
H2    H     H_    0.869924 0.538715 0.548951 0.155965
H3    H     H_    0.671056 0.225476 0.427423 0.153040
H4    H     H_    0.369407 0.090660 0.552367 0.154868
H5    H     H_    0.214279 0.789498 0.547712 0.159527
H6    H     H_    0.857829 0.628534 0.428111 0.157641
H7    H     H_    0.711824 0.289083 0.547636 0.158429
H8    H     H_    0.355062 0.150270 0.429959 0.159377
H9    H     H_    0.302232 0.560200 0.438603 0.156294
H10   H     H_    0.709353 0.587229 0.552722 0.092656
H11   H     H_    0.805798 0.070008 0.435490 0.109911
H12   H     H_    0.207278 0.067994 0.552022 0.140941
H13   H     H_    0.269545 0.521415 0.550683 0.092756
H14   H     H_    0.710999 0.512251 0.439516 0.101665
H15   H     H_    0.773607 0.025603 0.549046 0.095529
H16   H     H_    0.215307 0.008644 0.439344 0.094040
H17   H     H_    0.449758 0.029454 0.134062 0.124317
H18   H     H_    0.505677 0.078000 0.878424 0.134199
H19   H     H_    0.949766 0.529251 0.133846 0.128415
H20   H     H_    0.005903 0.577993 0.878270 0.132071
H21   H     H_    0.931810 0.725372 0.074427 0.105538
H22   H     H_    0.963343 0.751419 0.947790 0.091969
H23   H     H_    0.432058 0.225695 0.074678 0.105275
H24   H     H_    0.463332 0.251513 0.947979 0.092090
H25   H     H_    0.299953 0.388773 0.048549 0.144060
H26   H     H_    0.681495 0.434990 0.941359 0.149865
H27   H     H_    0.800265 0.889263 0.048653 0.143937
H28   H     H_    0.181787 0.934457 0.941435 0.149795
H29   H     H_    0.341687 0.487638 0.932334 0.125960
H30   H     H_    0.647343 0.523049 0.062485 0.207839
H31   H     H_    0.841917 0.988351 0.932472 0.125953
H32   H     H_    0.147613 0.021985 0.062650 0.207836
H33   H     H_    0.204285 0.616815 0.043788 0.114352
H34   H     H_    0.776677 0.663807 0.946597 0.104715
H35   H     H_    0.704238 0.116839 0.043777 0.114457
H36   H     H_    0.276605 0.163745 0.946631 0.104717
H37   H     H_    0.186976 0.567826 0.929885 0.110666
H38   H     H_    0.804794 0.584835 0.058334 0.112849
H39   H     H_    0.687033 0.067613 0.929878 0.111241
H40   H     H_    0.304860 0.085136 0.058336 0.112680
H41   H     H_    0.504779 0.911717 0.449896 0.075570
H42   H     H_    0.436606 0.918314 0.541751 0.059903
H43   H     H_    0.067642 0.419702 0.458472 0.074794
H44   H     H_    0.993732 0.409722 0.548995 0.065653
O1    O     O_R   0.215090 0.709860 0.828130 -0.525775
O2    O     O_R   0.784910 0.709860 0.171870 -0.537889
O3    O     O_R   0.715090 0.209860 0.828130 -0.526775
O4    O     O_R   0.284910 0.209860 0.171870 -0.536563
O5    O     O_R   0.445660 0.919250 0.676780 -0.498360
O6    O     O_R   0.554340 0.919250 0.323220 -0.498400
O7    O     O_R   0.945660 0.419250 0.676780 -0.505349
O8    O     O_R   0.054340 0.419250 0.323220 -0.498274
O9    O     O_R   0.456260 0.718170 0.670000 -0.522882
O10   O     O_R   0.543740 0.718170 0.330000 -0.522684
O11   O     O_R   0.956260 0.218170 0.670000 -0.518011
O12   O     O_R   0.043740 0.218170 0.330000 -0.527686
O13   O     O_R   0.320940 0.626760 0.674370 -0.529690
O14   O     O_R   0.679060 0.626760 0.325630 -0.499132
O15   O     O_R   0.820940 0.126760 0.674370 -0.493934
O16   O     O_R   0.179060 0.126760 0.325630 -0.534092
O17   O     O_3   0.334530 0.834540 0.749640 -0.268793
O18   O     O_3   0.665470 0.834540 0.250360 -0.258192
O19   O     O_3   0.834530 0.334540 0.749640 -0.245919
O20   O     O_3   0.165470 0.334540 0.250360 -0.282067
O21   O     O_R   0.236990 0.958390 0.823710 -0.500499
O22   O     O_R   0.763010 0.958390 0.176290 -0.504459
O23   O     O_R   0.736990 0.458390 0.823710 -0.501812
O24   O     O_R   0.263010 0.458390 0.176290 -0.502789
O25   O     O_R   0.332380 0.074750 0.830850 -0.514271
O26   O     O_R   0.667620 0.074750 0.169150 -0.512101
O27   O     O_R   0.832380 0.574750 0.830850 -0.514749
O28   O     O_R   0.167620 0.574750 0.169150 -0.511114
O29   O     O_R   0.445800 0.917770 0.825070 -0.512032
O30   O     O_R   0.554200 0.917770 0.174930 -0.520769
O31   O     O_R   0.945800 0.417770 0.825070 -0.517491
O32   O     O_R   0.054200 0.417770 0.174930 -0.514645
O33   O     O_R   0.456410 0.716580 0.829970 -0.494333
O34   O     O_R   0.543590 0.716580 0.170030 -0.471297
O35   O     O_R   0.956410 0.216580 0.829970 -0.500877
O36   O     O_R   0.043590 0.216580 0.170030 -0.464773
O37   O     O_R   0.321080 0.625290 0.822650 -0.498011
O38   O     O_R   0.678920 0.625290 0.177350 -0.484595
O39   O     O_R   0.821080 0.125290 0.822650 -0.500162
O40   O     O_R   0.178920 0.125290 0.177350 -0.482112
O41   O     O_R   0.214930 0.711450 0.668160 -0.509895
O42   O     O_R   0.785070 0.711450 0.331840 -0.512459
O43   O     O_R   0.714930 0.211450 0.668160 -0.514825
O44   O     O_R   0.285070 0.211450 0.331840 -0.511537
O45   O     O_R   0.236850 0.959870 0.675420 -0.499619
O46   O     O_R   0.763150 0.959870 0.324580 -0.494418
O47   O     O_R   0.736850 0.459870 0.675420 -0.501697
O48   O     O_R   0.263150 0.459870 0.324580 -0.493835
O49   O     O_R   0.332230 0.076350 0.670880 -0.523258
O50   O     O_R   0.667770 0.076350 0.329120 -0.509596
O51   O     O_R   0.832230 0.576350 0.670880 -0.511489
O52   O     O_R   0.167770 0.576350 0.329120 -0.519858
O53   O     O_3   0.556006 0.634141 0.917737 -0.534721
C85   C     C_3   0.518795 0.522088 0.916687 0.028073
H45   H     H_    0.460982 0.535390 0.919371 0.126973
H46   H     H_    0.536493 0.462976 0.961422 0.161081
C86   C     C_3   0.535224 0.454229 0.847632 -0.358380
H47   H     H_    0.592223 0.434119 0.844482 0.164952
H48   H     H_    0.505884 0.366557 0.845649 0.068138
H49   H     H_    0.519817 0.510257 0.800760 0.181945
O54   O     O_3   0.520577 0.600642 0.061632 -0.554727
C87   C     C_3   0.454763 0.556459 0.085200 -0.004025
H50   H     H_    0.425200 0.517300 0.039456 0.103577
H51   H     H_    0.421734 0.628500 0.110782 0.135571
C88   C     C_3   0.466850 0.455768 0.139904 -0.357843
H52   H     H_    0.489897 0.494701 0.189464 0.165148
H53   H     H_    0.416157 0.411412 0.153280 0.110339
H54   H     H_    0.503577 0.386172 0.118218 0.142945
O55   O     O_3   0.056546 0.134469 0.917417 -0.537026
C89   C     C_3   0.019403 0.022349 0.916252 0.028395
H55   H     H_    0.961578 0.035495 0.918980 0.127836
H56   H     H_    0.037150 0.963130 0.960917 0.161123
C90   C     C_3   0.035848 0.954764 0.847109 -0.360869
H57   H     H_    0.092856 0.934760 0.843926 0.165409
H58   H     H_    0.006556 0.867036 0.845056 0.068950
H59   H     H_    0.020414 0.010934 0.800296 0.176579
O56   O     O_3   0.021536 0.100751 0.061344 -0.555546
C91   C     C_3   0.955852 0.055898 0.084837 -0.003726
H60   H     H_    0.926183 0.017300 0.038998 0.102412
H61   H     H_    0.922821 0.127428 0.110888 0.139484
C92   C     C_3   0.968278 0.954456 0.138976 -0.355932
H62   H     H_    0.991892 0.992628 0.188462 0.169641
H63   H     H_    0.917632 0.910220 0.152667 0.109262
H64   H     H_    0.004680 0.884973 0.116612 0.142000
N1    N     N_3   0.420600 0.650238 0.395284 -0.606141
H65   H     H_    0.459788 0.584171 0.388823 0.265392
H66   H     H_    0.406207 0.685817 0.345533 0.227477
N2    N     N_3   0.441375 0.604425 0.542472 -0.605812
H67   H     H_    0.398085 0.586519 0.574350 0.259198
H68   H     H_    0.487896 0.588502 0.570694 0.251969
N3    N     N_3   0.058437 0.105748 0.457680 -0.607164
H69   H     H_    0.101054 0.086739 0.425023 0.254310
H70   H     H_    0.011378 0.091317 0.430117 0.253027
N4    N     N_3   0.083066 0.154436 0.605068 -0.606279
H71   H     H_    0.044587 0.087837 0.613220 0.267059
H72   H     H_    0.097803 0.192375 0.654176 0.230024

loop_
_geom_bond_atom_site_label_1
_geom_bond_atom_site_label_2
_ccdc_geom_bond_type
C16   C28   D    
C85   H46   S    
C38   C70   S    
Cr9   O33   S    
C72   O16   A    
C37   C69   S    
Cr8   O8    S    
C9    H21   S    
O54   C87   S    
Cr3   O23   S    
C35   C36   S    
C11   H23   S    
C2    O22   A    
N2    H68   S    
C81   C82   A    
C3    O27   A    
C62   O50   A    
C88   H52   S    
Cr5   O5    S    
C29   H42   S    
C90   H59   S    
C50   C54   S    
C7    C79   A    
C87   H51   S    
C10   H22   S    
Cr5   O49   S    
Cr7   O27   S    
C47   C76   S    
C5    C11   A    
C92   H64   S    
C33   N1    S    
C16   C60   S    
C49   C53   S    
C75   C84   A    
C6    C78   A    
C85   C86   S    
C15   H39   S    
C36   N4    S    
Cr12  O12   S    
C55   H7    S    
C24   H28   S    
Cr1   O21   S    
C3    C18   S    
C26   H30   S    
C7    H19   S    
C86   H48   S    
C25   H29   S    
C6    H18   S    
Cr11  O35   S    
C12   H24   S    
Cr11  O11   S    
C27   H31   S    
C70   O42   A    
C39   C55   D    
C34   N2    S    
C20   C24   D    
C53   H5    S    
C40   C56   D    
C87   C88   S    
C4    O24   A    
Cr2   O22   S    
C23   C27   S    
C38   H14   S    
C18   C22   D    
Cr12  O36   S    
C9    C10   A    
C2    O26   A    
C51   C55   S    
C68   O8    A    
C3    O23   A    
C62   O46   A    
C37   C53   D    
C44   C52   D    
C90   H58   S    
C85   H45   S    
C2    C19   S    
C59   O3    A    
Cr10  O18   S    
C30   H41   S    
C48   O32   A    
Cr6   O26   S    
C51   H3    S    
C47   O31   A    
O53   C85   S    
C48   C75   S    
C13   C25   D    
C75   C79   A    
N4    H72   S    
C20   H36   S    
Cr8   O52   S    
C76   C83   A    
C41   C49   D    
N2    H67   S    
C64   O52   A    
C61   O45   A    
C22   H26   S    
C37   H13   S    
C44   H12   S    
Cr1   O45   S    
C14   C58   S    
C50   H2    S    
C87   H50   S    
C17   H33   S    
C32   C35   D    
C71   O43   A    
C56   H8    S    
C32   H43   S    
O55   C89   S    
Cr1   O1    S    
Cr9   O37   S    
C19   C23   D    
Cr3   O47   S    
C19   H35   S    
O56   C91   S    
C77   C78   A    
C81   O53   S    
C29   C34   D    
C52   H4    S    
C69   O13   A    
Cr7   O7    S    
C46   O30   A    
C45   C74   S    
Cr6   O18   S    
C86   H49   S    
C31   C67   S    
C17   C21   D    
C92   H62   S    
C68   O12   A    
C45   O33   A    
Cr2   O18   S    
Cr8   O28   S    
C15   C27   D    
C83   C84   A    
C38   C54   D    
C90   H57   S    
Cr10  O14   S    
C71   O15   A    
Cr6   O30   S    
C46   O34   A    
N1    H65   S    
Cr7   O19   S    
N3    H70   S    
C43   H11   S    
C14   C26   D    
Cr9   O17   S    
C42   H10   S    
C72   O44   A    
C83   O55   S    
C22   C26   S    
C41   H9    S    
C42   C50   D    
C29   C65   S    
Cr9   O9    S    
C30   C66   S    
Cr11  O39   S    
Cr12  O20   S    
Cr10  O34   S    
Cr2   O46   S    
C89   H56   S    
C67   O7    A    
Cr5   O17   S    
Cr11  O19   S    
C18   H34   S    
C76   C80   A    
N4    H71   S    
C4    C17   S    
C74   C81   A    
C5    C77   A    
Cr3   O19   S    
C16   H40   S    
C6    C12   A    
C73   C82   A    
Cr6   O6    S    
Cr2   O2    S    
C91   C92   S    
C8    C80   A    
Cr6   O50   S    
C88   H54   S    
C7    C9    A    
C21   C25   S    
C1    C20   S    
Cr1   O41   S    
C58   O2    A    
C40   C72   S    
C30   C33   D    
C5    H17   S    
C1    O25   A    
C70   O14   A    
C15   C59   S    
C54   H6    S    
C24   C28   S    
Cr2   O42   S    
Cr10  O38   S    
C45   O29   A    
C82   O54   S    
C23   H27   S    
C11   C12   A    
C66   O10   A    
Cr7   O31   S    
C44   C61   S    
C60   O40   A    
C89   C90   S    
C14   H38   S    
C63   O47   A    
C41   C64   S    
C57   O1    A    
C91   H61   S    
Cr8   O20   S    
Cr3   O3    S    
Cr12  O40   S    
C59   O39   A    
Cr5   O29   S    
C92   H63   S    
Cr4   O24   S    
C28   H32   S    
C60   O4    A    
C32   C68   S    
C57   O37   A    
C39   H15   S    
C40   H16   S    
C43   C51   D    
C91   H60   S    
Cr12  O16   S    
Cr7   O51   S    
Cr8   O32   S    
C67   O11   A    
C63   O51   A    
Cr9   O13   S    
N1    H66   S    
C58   O38   A    
C33   C34   S    
Cr11  O15   S    
Cr4   O20   S    
C21   H25   S    
C86   H47   S    
C13   H37   S    
C64   O48   A    
C66   O6    A    
C49   H1    S    
Cr4   O44   S    
C84   O56   S    
C8    H20   S    
C1    O21   A    
C79   C80   A    
C4    O28   A    
Cr10  O10   S    
Cr4   O48   S    
C13   C57   S    
C73   C77   A    
C8    C10   A    
C89   H55   S    
C74   C78   A    
C35   N3    S    
N3    H69   S    
Cr1   O17   S    
C65   O9    A    
C39   C71   S    
C31   C36   D    
C61   O49   A    
Cr3   O43   S    
C31   H44   S    
C88   H53   S    
C65   O5    A    
C42   C63   S    
Cr4   O4    S    
C46   C73   S    
C47   O35   A    
C52   C56   S    
C43   C62   S    
C69   O41   A    
C48   O36   A    
Cr5   O25   S    
