data_mof_unit_18288.cif
_audit_creation_date              2012-12-10T17:20:54-0500
_audit_creation_method            fapswitch 2.2
_symmetry_space_group_name_H-M    P1
_symmetry_Int_Tables_number       1
_space_group_crystal_system       triclinic
_cell_length_a                    14.312265
_cell_length_b                    10.784288
_cell_length_c                    9.620837
_cell_angle_alpha                 88.682713
_cell_angle_beta                  90.65404
_cell_angle_gamma                 90.267395
_cell_volume                      1484.44940644

loop_
_atom_site_label
_atom_site_type_symbol
_atom_type_description
_atom_site_fract_x
_atom_site_fract_y
_atom_site_fract_z
_atom_type_partial_charge
C1    C     C_R   0.493059 0.262785 0.502176 0.787898
C2    C     C_1   0.771058 0.499959 0.500476 -0.144286
C3    C     C_R   0.323823 0.109672 0.592788 -0.103631
C4    C     C_R   0.239937 0.040463 0.587670 -0.004971
C5    C     C_R   0.241332 0.917282 0.548067 -0.169997
C6    C     C_R   0.325620 0.860637 0.519855 -0.174379
C7    C     C_R   0.409802 0.929298 0.517771 0.084123
C8    C     C_R   0.408025 0.058449 0.540622 0.038252
C9    C     C_R   0.490431 0.128286 0.508948 -0.095409
C10   C     C_R   0.572925 0.069094 0.472425 -0.208898
C11   C     C_R   0.577124 0.940962 0.469180 -0.033582
C12   C     C_R   0.331251 0.499826 0.499314 0.785975
C13   C     C_R   0.495882 0.871029 0.493243 -0.124856
C14   C     C_R   0.648480 0.389808 0.136348 -0.204108
C15   C     C_R   0.734695 0.385408 0.070763 -0.284847
C16   C     C_R   0.750017 0.458888 0.951309 0.353679
C17   C     C_R   0.672611 0.517654 0.884990 -0.129654
C18   C     C_R   0.581766 0.487474 0.931359 0.103666
C19   C     C_R   0.575429 0.458763 0.074960 0.210657
C20   C     C_R   0.423034 0.535109 0.071830 -0.053018
C21   C     C_R   0.421417 0.527784 0.924082 -0.014963
C22   C     C_R   0.501349 0.737102 0.498174 0.791205
C23   C     C_R   0.668725 0.499821 0.500426 0.802634
C24   C     C_1   0.228871 0.499814 0.497943 -0.183412
C25   C     C_1   0.143380 0.499848 0.497478 0.018622
C26   C     C_1   0.042684 0.499959 0.497383 0.058455
C27   C     C_1   0.957198 0.500071 0.497702 0.098640
C28   C     C_1   0.856514 0.500097 0.498913 0.094764
Cu1   Cu    Cu3+1 0.499990 0.499990 0.640660 0.979100
Cu2   Cu    Cu3+1 0.500010 0.500010 0.359340 0.950523
H1    H     H_    0.635012 0.123581 0.448943 0.139521
H2    H     H_    0.357267 0.549155 0.868518 0.155578
H3    H     H_    0.177496 0.862825 0.545795 0.157169
H4    H     H_    0.323874 0.763169 0.496154 0.124907
H5    H     H_    0.360659 0.563682 0.124445 0.147420
H6    H     H_    0.639698 0.337503 0.232071 0.198781
H7    H     H_    0.791326 0.333789 0.119751 0.204316
N1    N     N_R   0.500820 0.501210 0.147910 -0.182109
N2    N     N_R   0.500850 0.501290 0.852040 -0.178673
O1    O     O_R   0.499990 0.319640 0.618810 -0.550469
O2    O     O_R   0.500000 0.319660 0.381240 -0.580880
O3    O     O_R   0.376050 0.499990 0.618810 -0.553743
O4    O     O_R   0.376060 0.500010 0.381240 -0.567723
O5    O     O_R   0.500000 0.680340 0.618760 -0.566535
O6    O     O_R   0.500010 0.680360 0.381190 -0.566796
O7    O     O_R   0.623940 0.499990 0.618760 -0.560215
O8    O     O_R   0.623950 0.500010 0.381190 -0.573885
S1    S     S_3+6 0.866032 0.474092 0.891037 0.015408
O9    O     O_2   0.885036 0.369045 0.795637 -0.245624
O10   O     O_2   0.881708 0.594889 0.813688 -0.295667
O11   O     O_3   0.941270 0.464221 0.026372 -0.498965
H8    H     H_    0.924659 0.534008 0.086421 0.339807
C29   C     C_1   0.686407 0.637658 0.817526 0.388513
N3    N     N_1   0.697249 0.733910 0.764249 -0.250193
C30   C     C_1   0.325138 0.214149 0.683875 0.254002
N4    N     N_1   0.323974 0.294162 0.761801 -0.236415
C31   C     C_1   0.151851 0.092613 0.629200 0.253889
N5    N     N_1   0.081426 0.134467 0.662339 -0.205963
C32   C     C_1   0.665302 0.882901 0.439272 0.268995
N6    N     N_1   0.735812 0.836283 0.415365 -0.262635

loop_
_geom_bond_atom_site_label_1
_geom_bond_atom_site_label_2
_ccdc_geom_bond_type
C4    C31   S    
C2    C28   T    
C30   N4    T    
Cu2   O2    S    
Cu1   Cu2   S    
C19   N1    A    
Cu1   O3    S    
C20   N1    A    
C9    C10   A    
C12   C24   S    
Cu2   O6    S    
C21   N2    A    
C7    C13   A    
Cu1   O7    S    
C18   N2    A    
Cu1   N2    S    
S1    O10   D    
C17   C18   A    
C26   C27   T    
C1    C9    S    
C7    C8    A    
C23   O7    A    
C29   N3    T    
C24   C25   T    
C11   C13   A    
C16   S1    S    
C31   N5    T    
C6    C7    A    
C11   C32   S    
C4    C5    A    
C10   H1    S    
Cu1   O1    S    
C1    O2    A    
S1    O9    D    
C13   C22   S    
C3    C8    A    
C12   O4    A    
Cu1   O5    S    
C14   H6    S    
C5    C6    A    
C21   H2    S    
Cu2   O4    S    
C23   O8    A    
C10   C11   A    
C15   C16   A    
C17   C29   S    
Cu2   O8    S    
C32   N6    T    
C22   O6    A    
O11   H8    S    
C20   C21   A    
Cu2   N1    S    
C18   C19   A    
C2    C23   S    
C14   C15   A    
C15   H7    S    
C12   O3    A    
C1    O1    A    
C25   C26   S    
C20   H5    S    
C3    C30   S    
C14   C19   A    
S1    O11   S    
C22   O5    A    
C3    C4    A    
C6    H4    S    
C16   C17   A    
C8    C9    A    
C27   C28   S    
C5    H3    S    
