data_mof_unit_37726.cif
_audit_creation_date              2012-12-11T15:28:54-0500
_audit_creation_method            fapswitch 2.2
_symmetry_space_group_name_H-M    P1
_symmetry_Int_Tables_number       1
_space_group_crystal_system       triclinic
_cell_length_a                    29.286332
_cell_length_b                    17.079768
_cell_length_c                    19.299743
_cell_angle_alpha                 89.987495
_cell_angle_beta                  139.204218
_cell_angle_gamma                 89.979184
_cell_volume                      6307.45417926

loop_
_atom_site_label
_atom_site_type_symbol
_atom_type_description
_atom_site_fract_x
_atom_site_fract_y
_atom_site_fract_z
_atom_type_partial_charge
C1    C     C_R   0.185831 0.402345 0.803167 0.692311
C2    C     C_R   0.791135 0.740542 0.403519 -0.109629
C3    C     C_R   0.816742 0.777464 0.086621 0.380829
C4    C     C_R   0.306224 0.704147 0.098788 0.395543
C5    C     C_R   0.683820 0.277584 0.912565 0.381558
C6    C     C_R   0.696068 0.702381 0.900200 0.398252
C7    C     C_R   0.316742 0.277464 0.086621 0.380829
C8    C     C_R   0.779791 0.270963 0.102799 -0.378692
C9    C     C_R   0.210427 0.711624 0.907250 -0.380060
C10   C     C_R   0.221715 0.270350 0.896525 -0.376501
C11   C     C_R   0.790609 0.710761 0.091652 -0.375922
C12   C     C_R   0.279792 0.770963 0.102799 -0.378694
C13   C     C_R   0.878538 0.335647 0.611089 -0.112769
C14   C     C_R   0.710427 0.211624 0.907251 -0.380057
C15   C     C_R   0.721716 0.770350 0.896525 -0.376498
C16   C     C_R   0.290609 0.210761 0.091652 -0.375922
C17   C     C_3   0.189017 0.459133 0.913302 -0.168070
C18   C     C_3   0.707989 0.637862 0.138420 -0.066964
C19   C     C_3   0.813535 0.458418 0.088296 -0.158033
C20   C     C_3   0.289395 0.639031 0.852754 -0.120850
C21   C     C_3   0.689016 0.959133 0.913301 -0.168071
C22   C     C_3   0.207990 0.137863 0.138422 -0.066969
C23   C     C_3   0.313535 0.958419 0.088296 -0.158029
C24   C     C_R   0.203694 0.733819 0.576227 -0.142498
C25   C     C_3   0.789396 0.139031 0.852757 -0.120851
C26   C     C_3   0.945896 0.210371 0.517049 -0.275370
C27   C     C_3   0.028462 0.776318 0.350620 -0.184293
C28   C     C_3   0.076493 0.201923 0.484556 -0.341325
C29   C     C_3   0.970603 0.773587 0.645145 -0.184062
C30   C     C_3   0.445896 0.710371 0.517048 -0.275354
C31   C     C_3   0.528462 0.276317 0.350620 -0.184287
C32   C     C_3   0.576488 0.701924 0.484555 -0.341313
C33   C     C_3   0.470602 0.273589 0.645144 -0.184051
C34   C     C_3   0.917070 0.172380 0.192839 -0.075404
C35   C     C_R   0.627929 0.833973 0.398176 -0.113386
C36   C     C_3   0.147667 0.889220 0.818177 -0.134591
C37   C     C_3   0.085522 0.166640 0.804638 -0.082731
C38   C     C_3   0.850936 0.889814 0.178936 -0.141090
C39   C     C_3   0.417071 0.672386 0.192835 -0.075386
C40   C     C_3   0.647667 0.389220 0.818179 -0.134589
C41   C     C_3   0.585523 0.666638 0.804637 -0.082733
C42   C     C_3   0.350938 0.389814 0.178937 -0.141090
C43   C     C_3   0.271067 0.492044 0.387783 -0.063174
C44   C     C_3   0.607892 0.599659 0.314760 -0.005025
C45   C     C_3   0.741355 0.482967 0.639152 -0.179858
C46   C     C_R   0.291135 0.240541 0.403521 -0.109652
C47   C     C_3   0.457349 0.660366 0.842017 -0.151738
C48   C     C_3   0.771127 0.992040 0.387835 -0.063218
C49   C     C_3   0.107877 0.099657 0.314739 -0.005039
C50   C     C_3   0.241353 0.982968 0.639149 -0.179848
C51   C     C_3   0.957354 0.160367 0.842018 -0.151746
C52   C     C_R   0.378538 0.835647 0.611090 -0.112774
C53   C     C_R   0.703694 0.233819 0.576228 -0.142501
C54   C     C_R   0.766466 0.868401 0.424814 0.682481
C55   C     C_R   0.124302 0.229125 0.309522 0.666956
C56   C     C_R   0.237892 0.865362 0.580879 0.704715
C57   C     C_R   0.812170 0.602809 0.205014 0.736876
C58   C     C_R   0.875477 0.224519 0.684887 0.710089
C59   C     C_R   0.266466 0.368399 0.424815 0.682465
C60   C     C_R   0.624305 0.729126 0.309525 0.666950
C61   C     C_R   0.737892 0.365362 0.580879 0.704718
C62   C     C_R   0.375476 0.724519 0.684886 0.710087
C63   C     C_R   0.807678 0.819956 0.430529 -0.458886
C64   C     C_R   0.095731 0.267590 0.333419 -0.461490
C65   C     C_R   0.193867 0.815240 0.567562 -0.459362
C66   C     C_R   0.907887 0.265883 0.669536 -0.427125
C67   C     C_R   0.307677 0.319954 0.430529 -0.458838
C68   C     C_R   0.814569 0.402372 0.196419 0.694263
C69   C     C_R   0.595733 0.767590 0.333423 -0.461486
C70   C     C_R   0.693868 0.315240 0.567562 -0.459363
C71   C     C_R   0.407887 0.765883 0.669537 -0.427115
C72   C     C_R   0.723834 0.715572 0.345969 0.742092
C73   C     C_R   0.178565 0.373237 0.416383 0.792907
C74   C     C_R   0.265125 0.703905 0.616784 0.786649
C75   C     C_R   0.829066 0.374810 0.595853 0.773535
C76   C     C_R   0.223834 0.215570 0.345971 0.742094
C77   C     C_R   0.678566 0.873238 0.416384 0.792928
C78   C     C_R   0.765126 0.203905 0.616786 0.786658
C79   C     C_R   0.188011 0.603104 0.793957 0.745052
C80   C     C_R   0.329066 0.874810 0.595853 0.773535
C81   C     C_R   0.684438 0.760499 0.346750 -0.312620
C82   C     C_R   0.209059 0.335516 0.394445 -0.353068
C83   C     C_R   0.312695 0.753852 0.640032 -0.361409
C84   C     C_R   0.794380 0.333121 0.608379 -0.346226
C85   C     C_R   0.184437 0.260497 0.346750 -0.312605
C86   C     C_R   0.709060 0.835518 0.394445 -0.353037
C87   C     C_R   0.812695 0.253853 0.640033 -0.361404
C88   C     C_R   0.294380 0.833121 0.608379 -0.346224
C89   C     C_R   0.832680 0.604967 0.414861 -0.190556
C90   C     C_R   0.685831 0.902345 0.803167 0.692312
C91   C     C_R   0.142934 0.419180 0.523742 -0.167083
C92   C     C_R   0.165862 0.603680 0.580109 -0.144702
C93   C     C_R   0.860414 0.421241 0.482238 -0.182122
C94   C     C_R   0.332681 0.104966 0.414862 -0.190550
C95   C     C_R   0.642935 0.919179 0.523744 -0.167083
C96   C     C_R   0.665862 0.103680 0.580110 -0.144695
C97   C     C_R   0.360414 0.921241 0.482239 -0.182123
C98   C     C_R   0.940970 0.329101 0.564760 0.591426
C99   C     C_R   0.081609 0.690967 0.483677 0.572713
C100  C     C_R   0.060762 0.328629 0.437424 0.602630
C101  C     C_R   0.312170 0.102809 0.205014 0.736878
C102  C     C_R   0.915575 0.693039 0.507667 0.581935
C103  C     C_R   0.440970 0.829101 0.564760 0.591423
C104  C     C_R   0.581609 0.190967 0.483678 0.572713
C105  C     C_R   0.560762 0.828629 0.437424 0.602628
C106  C     C_R   0.415574 0.193039 0.507667 0.581931
C107  C     C_R   0.105809 0.695587 0.710460 -0.174018
C108  C     C_R   0.891729 0.303038 0.293116 -0.178253
C109  C     C_R   0.894421 0.695260 0.288768 -0.170486
C110  C     C_R   0.108904 0.303065 0.706940 -0.184829
C111  C     C_R   0.605809 0.195587 0.710460 -0.174021
C112  C     C_R   0.314569 0.902372 0.196419 0.694261
C113  C     C_R   0.391729 0.803038 0.293116 -0.178250
C114  C     C_R   0.394421 0.195260 0.288768 -0.170483
C115  C     C_R   0.608904 0.803065 0.706940 -0.184834
C116  C     C_R   0.176282 0.321418 0.803292 0.000353
C117  C     C_R   0.826321 0.677364 0.193315 -0.052907
C118  C     C_R   0.824501 0.321450 0.196441 -0.001235
C119  C     C_R   0.174129 0.677943 0.805432 -0.048281
C120  C     C_R   0.676282 0.821418 0.803292 0.000355
C121  C     C_R   0.326320 0.177364 0.193315 -0.052909
C122  C     C_R   0.324502 0.821450 0.196440 -0.001236
C123  C     C_R   0.688011 0.103104 0.793958 0.745051
C124  C     C_R   0.674129 0.177943 0.805433 -0.048278
C125  C     C_R   0.844859 0.682673 0.443104 -0.034552
C126  C     C_R   0.110587 0.359679 0.449323 -0.031872
C127  C     C_R   0.150820 0.678687 0.542245 -0.024726
C128  C     C_R   0.894282 0.362143 0.558101 -0.008607
C129  C     C_R   0.344859 0.182673 0.443105 -0.034549
C130  C     C_R   0.610588 0.859679 0.449324 -0.031868
C131  C     C_R   0.650821 0.178687 0.542246 -0.024725
C132  C     C_R   0.394282 0.862143 0.558101 -0.008605
C133  C     C_R   0.766889 0.170730 0.001415 0.501462
C134  C     C_R   0.127927 0.333972 0.398175 -0.113372
C135  C     C_R   0.213217 0.798454 0.009194 0.634633
C136  C     C_R   0.235397 0.169018 0.997659 0.500496
C137  C     C_R   0.787875 0.798374 0.990347 0.631974
C138  C     C_R   0.266890 0.670731 0.001414 0.501462
C139  C     C_R   0.713217 0.298454 0.009195 0.634635
C140  C     C_R   0.735397 0.669018 0.997659 0.500497
C141  C     C_R   0.287876 0.298374 0.990347 0.631976
C142  C     C_R   0.806223 0.204145 0.098789 0.395547
C143  C     C_R   0.183820 0.777584 0.912565 0.381559
C144  C     C_R   0.196067 0.202381 0.900200 0.398252
F1    F     F_    0.785544 0.098005 0.002081 -0.653750
F2    F     F_    0.698099 0.645759 0.295521 -0.717543
F3    F     F_    0.811298 0.450213 0.561941 -0.690452
F4    F     F_    0.274360 0.625655 0.618794 -0.647329
F5    F     F_    0.699912 0.946278 0.458427 -0.655985
F6    F     F_    0.198100 0.145756 0.295524 -0.717542
F7    F     F_    0.311299 0.950213 0.561942 -0.690449
F8    F     F_    0.774362 0.125655 0.618798 -0.647326
F9    F     F_    0.178467 0.849641 0.010788 -0.621908
F10   F     F_    0.217991 0.095611 0.997381 -0.656690
F11   F     F_    0.822599 0.850037 0.989224 -0.622794
F12   F     F_    0.285546 0.598007 0.002080 -0.653745
F13   F     F_    0.678467 0.349641 0.010788 -0.621908
F14   F     F_    0.717992 0.595610 0.997381 -0.656693
F15   F     F_    0.322599 0.350036 0.989223 -0.622792
F16   F     F_    0.199912 0.446276 0.458428 -0.656002
H1    H     H_    0.783867 0.574285 0.356207 0.228562
H2    H     H_    0.914738 0.246153 0.326318 0.230017
H3    H     H_    0.664874 0.594295 0.391197 0.161900
H4    H     H_    0.590549 0.543501 0.271697 0.175004
H5    H     H_    0.578377 0.607798 0.329914 0.067151
H6    H     H_    0.798618 0.476803 0.713793 0.133698
H7    H     H_    0.711716 0.462110 0.651142 0.106925
H8    H     H_    0.729944 0.546263 0.619669 0.162920
H9    H     H_    0.442023 0.693300 0.871861 0.107748
H10   H     H_    0.502055 0.689638 0.867122 0.084667
H11   H     H_    0.475369 0.601548 0.879350 0.195711
H12   H     H_    0.786578 0.053015 0.418109 0.176897
H13   H     H_    0.918910 0.751717 0.318784 0.244143
H14   H     H_    0.713667 0.991859 0.312565 0.108048
H15   H     H_    0.799582 0.974669 0.372642 0.076428
H16   H     H_    0.164858 0.094284 0.391176 0.161913
H17   H     H_    0.090527 0.043502 0.271667 0.174995
H18   H     H_    0.078363 0.107800 0.329894 0.067143
H19   H     H_    0.298616 0.976806 0.713790 0.133700
H20   H     H_    0.211715 0.962110 0.651140 0.106920
H21   H     H_    0.229941 0.046263 0.619664 0.162919
H22   H     H_    0.942034 0.193305 0.871869 0.107750
H23   H     H_    0.002059 0.189634 0.867117 0.084666
H24   H     H_    0.086682 0.246118 0.673707 0.224315
H25   H     H_    0.975373 0.101549 0.879352 0.195713
H26   H     H_    0.581330 0.252116 0.680001 0.241658
H27   H     H_    0.414738 0.746153 0.326317 0.230017
H28   H     H_    0.418910 0.251717 0.318784 0.244142
H29   H     H_    0.586682 0.746119 0.673708 0.224315
H30   H     H_    0.050053 0.242409 0.304188 0.212603
H31   H     H_    0.854309 0.844549 0.461656 0.227971
H32   H     H_    0.952871 0.239326 0.697848 0.213906
H33   H     H_    0.186974 0.454562 0.559666 0.233233
H34   H     H_    0.149980 0.840407 0.544317 0.224197
H35   H     H_    0.550057 0.742406 0.304195 0.212605
H36   H     H_    0.354307 0.344550 0.461652 0.227977
H37   H     H_    0.452872 0.739326 0.697849 0.213906
H38   H     H_    0.649980 0.340407 0.544318 0.224198
H39   H     H_    0.221561 0.493526 0.987006 0.200009
H40   H     H_    0.139570 0.492162 0.848353 0.104944
H41   H     H_    0.177854 0.402417 0.926590 0.066111
H42   H     H_    0.682464 0.671776 0.067147 0.110572
H43   H     H_    0.739112 0.677704 0.207685 0.092992
H44   H     H_    0.216711 0.577112 0.643931 0.206603
H45   H     H_    0.665847 0.612460 0.122401 0.199308
H46   H     H_    0.826963 0.401510 0.079003 0.063179
H47   H     H_    0.861807 0.493291 0.152397 0.106917
H48   H     H_    0.780924 0.490528 0.012921 0.199161
H49   H     H_    0.256341 0.677512 0.781714 0.066591
H50   H     H_    0.330655 0.613826 0.866489 0.174659
H51   H     H_    0.315784 0.674344 0.923562 0.136026
H52   H     H_    0.721559 0.993525 0.987005 0.200010
H53   H     H_    0.639568 0.992161 0.848352 0.104946
H54   H     H_    0.677852 0.902416 0.926588 0.066113
H55   H     H_    0.817764 0.457622 0.450183 0.215438
H56   H     H_    0.182465 0.171777 0.067150 0.110573
H57   H     H_    0.239114 0.177704 0.207688 0.092990
H58   H     H_    0.165848 0.112461 0.122404 0.199308
H59   H     H_    0.326963 0.901511 0.079001 0.063179
H60   H     H_    0.361807 0.993292 0.152398 0.106915
H61   H     H_    0.280924 0.990531 0.012921 0.199161
H62   H     H_    0.756342 0.177512 0.781717 0.066592
H63   H     H_    0.830656 0.113826 0.866492 0.174661
H64   H     H_    0.815785 0.174344 0.923565 0.136027
H65   H     H_    0.971542 0.230029 0.497979 0.147581
H66   H     H_    0.283867 0.074284 0.356209 0.228561
H67   H     H_    0.887933 0.212371 0.445032 0.150225
H68   H     H_    0.960738 0.148316 0.542360 0.177782
H69   H     H_    0.988309 0.734310 0.285762 0.174443
H70   H     H_    0.074159 0.774147 0.367602 0.137636
H71   H     H_    0.006892 0.836435 0.322397 0.216948
H72   H     H_    0.051593 0.143336 0.456258 0.181529
H73   H     H_    0.086740 0.218053 0.551177 0.153452
H74   H     H_    0.126550 0.196810 0.513006 0.161543
H75   H     H_    0.010602 0.730336 0.707953 0.172116
H76   H     H_    0.925028 0.769952 0.628463 0.137675
H77   H     H_    0.686976 0.954560 0.559670 0.233229
H78   H     H_    0.992520 0.833284 0.675987 0.223958
H79   H     H_    0.471541 0.730029 0.497978 0.147572
H80   H     H_    0.387932 0.712371 0.445032 0.150226
H81   H     H_    0.460738 0.648316 0.542359 0.177787
H82   H     H_    0.488310 0.234310 0.285763 0.174444
H83   H     H_    0.574159 0.274146 0.367602 0.137637
H84   H     H_    0.506892 0.336435 0.322397 0.216947
H85   H     H_    0.551590 0.643335 0.456250 0.181530
H86   H     H_    0.586724 0.718050 0.551164 0.153450
H87   H     H_    0.626551 0.696815 0.513021 0.161535
H88   H     H_    0.716711 0.077112 0.643932 0.206603
H89   H     H_    0.510602 0.230338 0.707952 0.172114
H90   H     H_    0.425027 0.269954 0.628463 0.137674
H91   H     H_    0.492519 0.333286 0.675986 0.223958
H92   H     H_    0.928251 0.234635 0.192799 0.117505
H93   H     H_    0.901393 0.140629 0.127199 0.173506
H94   H     H_    0.965850 0.143899 0.266502 0.170734
H95   H     H_    0.189749 0.880055 0.827395 0.085877
H96   H     H_    0.164677 0.931516 0.878007 0.229992
H97   H     H_    0.102433 0.915611 0.738853 0.159284
H98   H     H_    0.074364 0.228026 0.807739 0.110072
H99   H     H_    0.317764 0.957622 0.450184 0.215439
H100  H     H_    0.100524 0.131636 0.867915 0.176751
H101  H     H_    0.036743 0.139814 0.729058 0.186396
H102  H     H_    0.806964 0.881035 0.165518 0.087709
H103  H     H_    0.836208 0.932290 0.120983 0.231790
H104  H     H_    0.894953 0.915752 0.258998 0.157669
H105  H     H_    0.428255 0.734643 0.192803 0.117511
H106  H     H_    0.401392 0.640642 0.127190 0.173494
H107  H     H_    0.465850 0.643901 0.266495 0.170733
H108  H     H_    0.689750 0.380056 0.827399 0.085876
H109  H     H_    0.664676 0.431516 0.878007 0.229995
H110  H     H_    0.081331 0.752116 0.680000 0.241658
H111  H     H_    0.602434 0.415611 0.738854 0.159284
H112  H     H_    0.574365 0.728023 0.807740 0.110072
H113  H     H_    0.600524 0.631632 0.867913 0.176756
H114  H     H_    0.536744 0.639812 0.729056 0.186397
H115  H     H_    0.306966 0.381035 0.165520 0.087710
H116  H     H_    0.336209 0.432289 0.120984 0.231789
H117  H     H_    0.394955 0.415751 0.258999 0.157672
H118  H     H_    0.286506 0.553022 0.418042 0.176903
H119  H     H_    0.213601 0.491839 0.312546 0.108057
H120  H     H_    0.299496 0.474692 0.372538 0.076417
N1    N     N_R   0.127770 0.430660 0.707120 -0.136736
N2    N     N_R   0.110270 0.426120 0.547030 -0.092163
N3    N     N_R   0.110270 0.573880 0.547030 -0.095321
N4    N     N_R   0.889730 0.426120 0.452970 -0.087997
N5    N     N_R   0.389730 0.073880 0.452970 -0.090792
N6    N     N_R   0.610270 0.926120 0.547030 -0.092163
N7    N     N_R   0.610270 0.073880 0.547030 -0.095321
N8    N     N_R   0.389730 0.926120 0.452970 -0.087997
N9    N     N_R   0.941150 0.372910 0.507880 -0.106477
N10   N     N_R   0.058850 0.627090 0.492120 -0.097055
N11   N     N_R   0.058850 0.372910 0.492120 -0.102816
N12   N     N_R   0.872230 0.569340 0.292880 -0.134109
N13   N     N_R   0.941150 0.627090 0.507880 -0.094863
N14   N     N_R   0.441150 0.872910 0.507880 -0.106478
N15   N     N_R   0.558850 0.127090 0.492120 -0.097055
N16   N     N_R   0.558850 0.872910 0.492120 -0.102817
N17   N     N_R   0.441150 0.127090 0.507880 -0.094863
N18   N     N_R   0.076340 0.631640 0.652210 -0.099778
N19   N     N_R   0.923660 0.368360 0.347790 -0.100652
N20   N     N_R   0.923660 0.631640 0.347790 -0.100481
N21   N     N_R   0.076340 0.368360 0.652210 -0.100693
N22   N     N_R   0.576340 0.131640 0.652210 -0.099778
N23   N     N_R   0.872230 0.430660 0.292880 -0.136663
N24   N     N_R   0.423660 0.868360 0.347790 -0.100652
N25   N     N_R   0.423660 0.131640 0.347790 -0.100481
N26   N     N_R   0.576340 0.868360 0.652210 -0.100693
N27   N     N_R   0.127770 0.569340 0.707120 -0.136405
N28   N     N_R   0.627770 0.930660 0.707120 -0.136735
N29   N     N_R   0.372230 0.069340 0.292880 -0.134110
N30   N     N_R   0.372230 0.930660 0.292880 -0.136663
N31   N     N_R   0.627770 0.069340 0.707120 -0.136405
N32   N     N_R   0.889730 0.573880 0.452970 -0.090791
Ni1   Ni    Ni4+2 0.119340 0.500000 0.625930 0.233036
Ni2   Ni    Ni4+2 0.880660 0.500000 0.374070 0.233740
Ni3   Ni    Ni4+2 0.619340 0.000000 0.625930 0.233035
Ni4   Ni    Ni4+2 0.380660 0.000000 0.374070 0.233741
Ni5   Ni    Ni4+2 1.000000 0.373980 0.500000 0.184886
Ni6   Ni    Ni4+2 0.000000 0.626020 0.500000 0.235920
Ni7   Ni    Ni4+2 0.500000 0.873980 0.500000 0.184884
Ni8   Ni    Ni4+2 0.500000 0.126020 0.500000 0.235921
O1    O     O_3   0.225814 0.448599 0.892498 -0.514298
O2    O     O_3   0.045954 0.760904 0.440549 -0.656399
O3    O     O_3   0.030886 0.255611 0.399864 -0.661916
O4    O     O_3   0.952465 0.761908 0.554058 -0.658913
O5    O     O_3   0.469271 0.754998 0.600927 -0.663817
O6    O     O_3   0.545955 0.260904 0.440549 -0.656400
O7    O     O_3   0.530885 0.755612 0.399861 -0.661918
O8    O     O_3   0.452464 0.261908 0.554057 -0.658912
O9    O     O_3   0.867012 0.166853 0.189050 -0.593979
O10   O     O_3   0.125856 0.818305 0.823661 -0.611152
O11   O     O_3   0.136295 0.164082 0.809686 -0.597238
O12   O     O_3   0.748761 0.575944 0.158249 -0.552647
O13   O     O_3   0.873836 0.818824 0.175612 -0.613076
O14   O     O_3   0.367015 0.666856 0.189049 -0.593976
O15   O     O_3   0.625856 0.318305 0.823662 -0.611154
O16   O     O_3   0.636296 0.664081 0.809686 -0.597239
O17   O     O_3   0.373837 0.318823 0.175612 -0.613076
O18   O     O_3   0.289143 0.443584 0.464896 -0.534977
O19   O     O_3   0.593731 0.660545 0.250934 -0.588171
O20   O     O_3   0.720361 0.443578 0.554358 -0.570370
O21   O     O_3   0.400203 0.651068 0.731025 -0.538552
O22   O     O_3   0.789147 0.943584 0.464905 -0.534959
O23   O     O_3   0.775541 0.448493 0.107136 -0.514673
O24   O     O_3   0.093725 0.160546 0.250924 -0.588171
O25   O     O_3   0.220360 0.943577 0.554357 -0.570369
O26   O     O_3   0.900204 0.151068 0.731027 -0.538552
O27   O     O_3   0.250821 0.576885 0.838069 -0.545685
O28   O     O_3   0.725814 0.948599 0.892498 -0.514298
O29   O     O_3   0.248761 0.075944 0.158249 -0.552647
O30   O     O_3   0.275541 0.948494 0.107136 -0.514673
O31   O     O_3   0.750821 0.076885 0.838070 -0.545687
O32   O     O_3   0.969271 0.254998 0.600927 -0.663815

loop_
_geom_bond_atom_site_label_1
_geom_bond_atom_site_label_2
_ccdc_geom_bond_type
C62   C83   A    
C50   O25   S    
C74   C83   A    
C102  C125  A    
C46   C129  S    
C9    C143  A    
C40   O15   S    
C89   C125  A    
N24   N30   A    
C58   O26   S    
C73   F16   S    
C36   O10   S    
C34   H93   S    
C56   O25   S    
C7    O17   S    
C92   N3    A    
C51   H23   S    
C38   H102  S    
C48   O22   S    
C54   C63   A    
C105  O7    S    
C15   C120  S    
C91   N2    A    
C18   O12   S    
C27   H69   S    
C113  C122  A    
C12   C135  A    
C24   C127  S    
C18   H43   S    
N8    N14   A    
C4    C12   A    
C144  O11   S    
C103  C132  A    
C81   C86   A    
C48   H15   S    
C42   H116  S    
C83   C88   A    
C102  N13   A    
C49   H17   S    
C23   H59   S    
C36   H95   S    
C52   C132  S    
C31   H84   S    
C98   N9    A    
C42   H117  S    
N30   Ni4   S    
C61   C84   A    
N22   Ni8   S    
C10   C141  A    
C102  O4    S    
C11   C140  A    
C9    C138  A    
C26   H67   S    
C41   O16   S    
N6    N16   A    
C17   H41   S    
C24   C65   A    
C47   O21   S    
C68   N23   A    
C115  N26   A    
C133  F1    S    
C95   N6    A    
C110  C116  A    
C41   H113  S    
C103  N14   A    
C65   H34   S    
C74   F4    S    
C33   O8    S    
C111  C124  A    
C30   H80   S    
C107  N18   A    
C109  N20   A    
C47   H11   S    
C39   H105  S    
C84   C87   A    
C82   C85   A    
C53   C78   A    
C80   C88   A    
N23   Ni2   S    
C1    N1    A    
C99   O2    S    
N21   Ni5   S    
N7    N15   A    
C17   H39   S    
C39   H107  S    
C33   H90   S    
C20   O27   S    
C3    C11   A    
C115  H29   S    
C28   O3    S    
C43   H119  S    
C139  F13   S    
C106  O8    S    
C106  N17   A    
C103  O5    S    
C100  O3    S    
C101  O29   S    
C76   C85   A    
C28   H74   S    
C15   C137  A    
C113  H27   S    
C78   C87   A    
N31   Ni3   S    
C31   H82   S    
C49   O24   S    
C59   C82   A    
N10   Ni6   S    
C123  C124  A    
C104  N15   A    
C68   C118  A    
C133  C142  A    
C41   H112  S    
C100  C126  A    
N12   Ni2   S    
C91   H33   S    
C63   H31   S    
C75   C84   A    
C56   C88   A    
C45   O20   S    
C26   H65   S    
C69   H35   S    
C96   N7    A    
C137  F11   S    
C95   H77   S    
N7    Ni3   S    
C29   H75   S    
C140  F14   S    
N13   N32   A    
C141  F15   S    
C13   C75   A    
C104  C131  A    
C66   H32   S    
N22   N31   A    
C95   C130  A    
C44   H3    S    
C45   H6    S    
C28   H72   S    
C17   O1    S    
N18   N27   A    
C135  C143  A    
C70   H38   S    
C107  H110  S    
C26   O32   S    
C47   H9    S    
C5    C139  A    
C94   N5    A    
C48   H14   S    
C13   C66   A    
N3    N10   A    
C14   C124  S    
C54   C86   A    
C43   O18   S    
N24   Ni7   S    
N20   Ni6   S    
C30   H81   S    
C90   C120  A    
N28   Ni3   S    
C60   C81   A    
C76   F6    S    
C25   H62   S    
C10   C144  A    
C35   C130  S    
C35   C69   A    
C57   N12   A    
C96   C131  A    
C53   C131  S    
C22   H57   S    
C20   H50   S    
C19   H48   S    
C21   H53   S    
C67   H36   S    
C16   C136  A    
C92   C127  A    
C29   H78   S    
C7    C141  A    
C10   C116  S    
C2    C63   A    
C108  N19   A    
C111  H26   S    
C105  C130  A    
C14   C133  A    
C19   O23   S    
C21   H52   S    
C32   H85   S    
C34   H94   S    
C50   H19   S    
C93   C128  A    
C38   H103  S    
N19   N23   A    
C60   C69   A    
C113  N24   A    
N25   N29   A    
C62   C71   A    
C44   H5    S    
C62   O21   S    
C2    C125  S    
C73   C134  A    
C110  N21   A    
C27   O2    S    
C123  N31   A    
C93   N4    A    
C61   C70   A    
C80   F7    S    
C97   N8    A    
C109  H13   S    
C109  C117  A    
C36   H96   S    
C18   H45   S    
C31   H83   S    
C25   O31   S    
C22   O29   S    
C3    O13   S    
C114  H28   S    
C25   H64   S    
C107  C119  A    
C114  C121  A    
C123  O31   S    
C23   H61   S    
C26   H68   S    
C61   O20   S    
C79   C119  A    
C19   H46   S    
N26   N28   A    
C105  N16   A    
C3    C137  A    
C99   N10   A    
C72   C81   A    
C92   H44   S    
C23   O30   S    
C98   C128  A    
C110  H24   S    
N25   Ni8   S    
C2    C72   A    
C53   C70   A    
C89   H1    S    
C64   C134  A    
C32   H87   S    
C8    C118  S    
C37   H98   S    
N3    Ni1   S    
C77   F5    S    
C99   C127  A    
C34   O9    S    
C75   F3    S    
C35   C77   A    
C101  C121  A    
C55   C85   A    
C16   C121  S    
C136  F10   S    
C27   H70   S    
C59   O18   S    
C44   O19   S    
N6    Ni3   S    
C18   H42   S    
C20   H49   S    
C33   H89   S    
C5    C14   A    
C42   H115  S    
C40   H108  S    
C57   O12   S    
C7    C16   A    
N4    N9    A    
C51   O26   S    
N12   N20   A    
C89   N32   A    
C73   C82   A    
N19   Ni5   S    
C57   C117  A    
C49   H18   S    
C55   O24   S    
C23   H60   S    
C112  N30   A    
N5    N17   A    
C31   O6    S    
N27   Ni1   S    
C97   C132  A    
C1    O1    S    
N4    Ni2   S    
C111  N22   A    
C6    O16   S    
C114  N25   A    
C37   O11   S    
C136  C144  A    
C52   C71   A    
C42   O17   S    
C72   F2    S    
N32   Ni2   S    
C32   O7    S    
C6    C140  A    
N2    Ni1   S    
C37   H101  S    
C94   H66   S    
C4    C138  A    
N2    N11   A    
C12   C122  S    
N9    Ni5   S    
C8    C142  A    
C44   H4    S    
C52   C80   A    
C112  O30   S    
C96   H88   S    
C49   H16   S    
C41   H114  S    
C98   O32   S    
C106  C129  A    
C4    O14   S    
C91   C126  A    
C22   H56   S    
C93   H55   S    
C29   O4    S    
C90   O28   S    
C37   H100  S    
C30   H79   S    
C51   H22   S    
C58   C87   A    
C143  O10   S    
C46   C76   A    
N13   Ni6   S    
C39   H106  S    
C78   F8    S    
C40   H109  S    
N15   Ni8   S    
N16   Ni7   S    
C8    C139  A    
C100  N11   A    
C90   N28   A    
C56   C65   A    
C30   O5    S    
C17   H40   S    
C20   H51   S    
C33   H91   S    
C6    C15   A    
C48   H12   S    
C13   C128  S    
C58   C66   A    
C43   H120  S    
N5    Ni4   S    
C1    C116  A    
N18   Ni6   S    
C28   H73   S    
C59   C67   A    
C22   H58   S    
C19   H47   S    
N26   Ni7   S    
N1    Ni1   S    
C126  C134  S    
C45   H8    S    
N29   Ni4   S    
C71   H37   S    
C94   C129  A    
C108  C118  A    
C68   O23   S    
C108  H2    S    
C32   H86   S    
C21   O28   S    
C50   H20   S    
C29   H76   S    
C112  C122  A    
C51   H25   S    
C38   H104  S    
C55   C64   A    
N11   Ni5   S    
C36   H97   S    
C45   H7    S    
C27   H71   S    
C38   O13   S    
C77   C86   A    
C9    C119  S    
C60   O19   S    
C50   H21   S    
N8    Ni4   S    
C11   C117  S    
C142  O9    S    
N1    N21   A    
C47   H10   S    
C97   H99   S    
N14   Ni7   S    
C40   H111  S    
C138  F12   S    
C64   H30   S    
C5    O15   S    
C79   O27   S    
C135  F9    S    
C46   C67   A    
C24   C74   A    
C43   H118  S    
C25   H63   S    
C79   N27   A    
C39   O14   S    
C101  N29   A    
C115  C120  A    
C54   O22   S    
C21   H54   S    
C34   H92   S    
N17   Ni8   S    
C104  O6    S    
