data_mof_unit_54455.cif
_audit_creation_date              2013-03-05T16:02:48-0500
_audit_creation_method            fapswitch 2.2
_symmetry_space_group_name_H-M    P1
_symmetry_Int_Tables_number       1
_space_group_crystal_system       triclinic
_cell_length_a                    23.562809
_cell_length_b                    11.811758
_cell_length_c                    10.451103
_cell_angle_alpha                 90.038659
_cell_angle_beta                  89.995171
_cell_angle_gamma                 89.994262
_cell_volume                      2908.73146398

loop_
_atom_site_label
_atom_site_type_symbol
_atom_site_description
_atom_site_fract_x
_atom_site_fract_y
_atom_site_fract_z
_atom_type_partial_charge
O1    O     O_R   0.500000 0.337200 0.605810 -0.564460
O2    O     O_R   0.500000 0.662800 0.394190 -0.564677
O3    O     O_R   0.500000 0.662800 0.605810 -0.565600
O4    O     O_R   0.500000 0.337200 0.394190 -0.567054
C1    C     C_R   0.500001 0.283179 0.499966 0.830266
C2    C     C_R   0.500000 0.716822 0.500034 0.831421
O5    O     O_R   0.417880 0.500000 0.605840 -0.576329
O6    O     O_R   0.582120 0.500000 0.394160 -0.575255
O7    O     O_R   0.582120 0.500000 0.605840 -0.575150
O8    O     O_R   0.417880 0.500000 0.394160 -0.577191
C3    C     C_R   0.390554 0.499961 0.499987 0.860202
C4    C     C_R   0.609450 0.500030 0.499999 0.859310
Cu1   Cu    Cu3+1 0.500000 0.500000 0.625300 1.022898
Cu2   Cu    Cu3+1 0.500000 0.500000 0.374700 1.019393
C5    C     C_R   0.880384 0.599147 0.475953 0.724670
C6    C     C_R   0.119733 0.401722 0.522962 0.716235
C7    C     C_R   0.880377 0.402204 0.524088 0.722423
C8    C     C_R   0.119771 0.598903 0.473942 0.738627
N1    N     N_R   0.852164 0.500702 0.500138 -0.457329
N2    N     N_R   0.147821 0.500256 0.498439 -0.452856
C9    C     C_R   0.940109 0.398264 0.516759 -0.149047
C10   C     C_R   0.059944 0.600840 0.467646 -0.160193
C11   C     C_R   0.940129 0.602961 0.482774 -0.147372
C12   C     C_R   0.059946 0.400079 0.530027 -0.161971
C13   C     C_R   0.970079 0.500576 0.499511 -0.083751
C14   C     C_R   0.030097 0.500495 0.499017 -0.085666
C15   C     C_R   0.970758 0.296378 0.530225 0.263363
C16   C     C_R   0.028838 0.700478 0.438608 0.294034
C17   C     C_R   0.970790 0.704825 0.469379 0.261450
C18   C     C_R   0.028873 0.300723 0.560143 0.292187
O9    O     O_2   0.850445 0.691649 0.442054 -0.413473
O10   O     O_2   0.150009 0.305493 0.534493 -0.414108
O11   O     O_2   0.850440 0.309752 0.558124 -0.411348
O12   O     O_2   0.150113 0.695030 0.462374 -0.414196
C19   C     C_R   0.238942 0.485899 0.383212 0.367598
C20   C     C_R   0.761245 0.489888 0.383614 0.362452
C21   C     C_R   0.238629 0.513814 0.615331 0.417763
C22   C     C_R   0.761201 0.511342 0.616679 0.411753
C23   C     C_R   0.298236 0.486918 0.384770 -0.261024
C24   C     C_R   0.701955 0.490899 0.384742 -0.264834
C25   C     C_R   0.297956 0.512549 0.614512 -0.248331
C26   C     C_R   0.701887 0.509799 0.615382 -0.242366
H1    H     H_    0.321353 0.476679 0.296069 0.192856
H2    H     H_    0.679073 0.483982 0.295259 0.210586
H3    H     H_    0.320781 0.521637 0.703852 0.208004
H4    H     H_    0.678919 0.516640 0.704781 0.210848
C27   C     C_R   0.328048 0.499946 0.499792 -0.162107
C28   C     C_R   0.671963 0.500201 0.500032 -0.167544
C29   C     C_R   0.208776 0.500239 0.499004 0.095074
C30   C     C_R   0.791228 0.500683 0.500154 0.093922
C31   C     C_1   0.500001 0.161765 0.499917 -0.142286
C32   C     C_1   0.500000 0.838235 0.500082 -0.141045
C33   C     C_1   0.500001 0.059737 0.499958 0.042292
C34   C     C_1   0.500001 0.940263 0.500040 0.042821
N3    N     N_1   0.500000 0.500000 0.186410 -0.138067
N4    N     N_1   0.500000 0.500000 0.813590 -0.136918
C35   C     C_1   0.499999 0.499999 0.072012 0.123709
C36   C     C_1   0.499999 0.500000 0.927988 0.127006
S1    S     S_3+6 0.942424 0.167031 0.471944 0.183621
O13   O     O_2   0.913166 0.105135 0.578737 -0.081473
O14   O     O_2   0.900365 0.188590 0.366545 -0.206231
O15   O     O_3   0.995058 0.086919 0.412403 -0.385573
H5    H     H_    0.011070 0.131769 0.340950 0.347639
S2    S     S_3+6 0.057479 0.810115 0.340763 0.142735
O16   O     O_2   0.089057 0.894031 0.422083 -0.146569
O17   O     O_2   0.097395 0.760139 0.243794 -0.201185
O18   O     O_3   0.005294 0.876991 0.261392 -0.439854
H6    H     H_    0.024932 0.932119 0.205395 0.387007
S3    S     S_3+6 0.942562 0.833958 0.528687 0.184039
O19   O     O_2   0.913073 0.896278 0.422538 -0.080248
O20   O     O_2   0.900695 0.811913 0.634347 -0.197954
O21   O     O_3   0.995251 0.913920 0.588214 -0.386914
H7    H     H_    0.011389 0.868817 0.659318 0.345109
S4    S     S_3+6 0.057673 0.191925 0.658911 0.141768
O22   O     O_2   0.089118 0.107308 0.578226 -0.145473
O23   O     O_2   0.097762 0.242852 0.754895 -0.196676
O24   O     O_3   0.005629 0.125709 0.739455 -0.443259
H8    H     H_    0.025337 0.070223 0.794874 0.387566
S5    S     S_3+6 0.203648 0.466867 0.235063 0.096414
O25   O     O_2   0.157249 0.380483 0.248513 -0.211376
O26   O     O_2   0.177762 0.577216 0.193906 -0.208770
O27   O     O_3   0.249233 0.422362 0.121737 -0.451025
H9    H     H_    0.269158 0.491510 0.092556 0.369620
S6    S     S_3+6 0.796534 0.477126 0.234521 0.079858
O28   O     O_2   0.816344 0.592167 0.192682 -0.158362
O29   O     O_2   0.847122 0.400289 0.245390 -0.256727
O30   O     O_3   0.752197 0.425403 0.122724 -0.472451
H10   H     H_    0.744905 0.346161 0.148980 0.359534
S7    S     S_3+6 0.203315 0.528268 0.764159 0.080785
O31   O     O_2   0.188570 0.412247 0.812708 -0.181637
O32   O     O_2   0.241657 0.585555 0.859160 -0.259901
O33   O     O_3   0.143551 0.604875 0.749255 -0.518383
H11   H     H_    0.123362 0.595297 0.831668 0.402269
S8    S     S_3+6 0.796523 0.524677 0.765730 0.091650
O34   O     O_2   0.846749 0.602280 0.753696 -0.238984
O35   O     O_2   0.756651 0.571302 0.864963 -0.207335
O36   O     O_3   0.818970 0.396168 0.812688 -0.459255
H12   H     H_    0.838673 0.409466 0.895070 0.414388

loop_
_geom_bond_atom_site_label_1
_geom_bond_atom_site_label_2
_geom_bond_distance
_ccdc_geom_bond_type
O30   H10   0.990588 S    
C3    C27   1.472826 S    
S6    O30   1.682006 S    
C4    C28   1.472974 S    
O3    C2    1.276787 A    
O36   H12   0.990649 S    
C33   C34   1.411206 S    
O5    C3    1.280063 A    
O15   H5    0.990541 S    
S4    O23   1.503290 D    
O1    C1    1.276658 A    
C11   C17   1.410530 A    
C16   C17   1.405972 A    
S6    O29   1.502464 D    
C22   C26   1.397785 A    
C19   C23   1.397285 A    
C18   S4    1.783042 S    
C26   H4    1.082668 S    
S3    O20   1.503558 D    
O7    Cu1   1.945620 S    
S4    O24   1.680786 S    
C19   C29   1.413494 A    
S7    O32   1.503075 D    
O3    Cu1   1.933849 S    
C6    N2    1.363372 A    
Cu1   N4    1.967839 S    
C5    C11   1.410292 A    
Cu2   N3    1.967838 S    
C9    C15   1.410574 A    
S1    O13   1.502190 D    
C6    C12   1.410806 A    
C10   C16   1.419428 A    
Cu1   Cu2   2.619046 S    
C15   C18   1.405545 A    
C21   C25   1.398010 A    
O2    C2    1.276656 A    
C7    O11   1.348053 S    
C32   C34   1.205123 T    
C17   S3    1.775257 S    
S1    O14   1.503612 D    
S4    O22   1.502526 D    
O18   H6    0.990535 S    
S2    O18   1.680744 S    
C20   C24   1.397133 A    
S6    O28   1.502136 D    
O8    Cu2   1.945622 S    
S5    O26   1.502194 D    
O4    C1    1.276786 A    
C23   H1    1.081878 S    
S8    O36   1.680948 S    
C13   C14   1.414209 A    
O24   H8    0.990531 S    
C7    C9    1.410292 A    
C31   C33   1.205122 T    
S2    O17   1.503001 D    
S3    O21   1.679290 S    
C5    N1    1.363325 A    
N2    C29   1.436281 S    
C21   C29   1.413666 A    
O5    Cu1   1.945656 S    
O6    C4    1.279988 A    
C22   S8    1.773145 S    
C25   C27   1.400704 A    
S8    O34   1.502318 D    
C26   C28   1.401179 A    
S7    O33   1.681085 S    
S8    O35   1.503496 D    
C8    O12   1.347328 S    
C16   S2    1.783265 S    
N3    C35   1.195581 T    
O1    Cu1   1.933576 S    
C20   C30   1.413795 A    
C23   C27   1.400745 A    
C24   C28   1.401055 A    
C9    C13   1.411410 A    
S1    O15   1.679163 S    
O6    Cu2   1.945654 S    
C8    C10   1.411409 A    
C12   C14   1.416655 A    
O21   H7    0.990542 S    
S5    O27   1.682754 S    
C5    O9    1.348107 S    
C22   C30   1.413913 A    
C6    O10   1.347369 S    
C21   S7    1.772085 S    
S2    O16   1.502505 D    
C15   S1    1.774820 S    
N1    C30   1.435823 S    
C35   C36   1.505216 S    
C20   S6    1.772434 S    
C19   S5    1.771787 S    
O33   H11   0.990478 S    
C7    N1    1.363237 A    
N4    C36   1.195582 T    
C8    N2    1.363938 A    
C11   C13   1.411123 A    
O4    Cu2   1.933849 S    
S3    O19   1.502167 D    
O2    Cu2   1.933576 S    
O7    C4    1.279907 A    
C12   C18   1.418818 A    
O8    C3    1.279732 A    
S5    O25   1.502180 D    
C24   H2    1.082563 S    
O27   H9    0.990408 S    
C10   C14   1.416890 A    
C25   H3    1.082841 S    
C1    C31   1.434110 S    
C2    C32   1.434111 S    
S7    O31   1.502393 D    
