data_mof_unit_66550.cif
_audit_creation_date              2012-12-10T19:09:28-0500
_audit_creation_method            fapswitch 2.2
_symmetry_space_group_name_H-M    P1
_symmetry_Int_Tables_number       1
_space_group_crystal_system       triclinic
_cell_length_a                    14.968794
_cell_length_b                    16.398746
_cell_length_c                    9.666863
_cell_angle_alpha                 90.336526
_cell_angle_beta                  89.847842
_cell_angle_gamma                 90.005604
_cell_volume                      2372.87024532

loop_
_atom_site_label
_atom_site_type_symbol
_atom_type_description
_atom_site_fract_x
_atom_site_fract_y
_atom_site_fract_z
_atom_type_partial_charge
C1    C     C_R   0.120138 0.377609 0.500065 1.024933
C2    C     C_R   0.120646 0.621915 0.499932 1.031489
C3    C     C_R   0.623602 0.880357 0.498629 1.024989
C4    C     C_R   0.622512 0.120629 0.501037 1.020614
C5    C     C_3   0.919111 0.542319 0.082070 -0.225002
C6    C     C_3   0.919868 0.543407 0.919337 -0.220955
C7    C     C_3   0.418257 0.959054 0.081306 -0.218523
C8    C     C_3   0.417657 0.959995 0.918547 -0.224029
C9    C     C_R   0.877609 0.379171 0.500889 1.019663
C10   C     C_R   0.876965 0.620336 0.499282 1.023999
C11   C     C_R   0.377549 0.878865 0.500624 1.030344
C12   C     C_R   0.378301 0.121705 0.499736 1.025943
C13   C     C_3   0.802793 0.271772 0.649584 -0.499351
C14   C     C_3   0.833895 0.246252 0.399122 -0.502852
C15   C     C_3   0.803164 0.727796 0.350176 -0.497715
C16   C     C_3   0.833742 0.753447 0.600938 -0.500993
C17   C     C_3   0.301579 0.769689 0.645079 -0.526092
C18   C     C_3   0.330300 0.746350 0.392531 -0.474504
C19   C     C_3   0.302907 0.230781 0.356065 -0.522339
C20   C     C_3   0.330489 0.254453 0.608315 -0.479062
C21   C     C_3   0.246858 0.690198 0.632643 0.088524
C22   C     C_3   0.249262 0.690315 0.368060 0.139375
C23   C     C_3   0.246888 0.309532 0.367881 0.086417
C24   C     C_3   0.248883 0.310081 0.632451 0.146308
C25   C     C_3   0.739078 0.197724 0.648123 0.100705
C26   C     C_3   0.762050 0.179595 0.388940 0.135857
C27   C     C_3   0.740250 0.802428 0.350809 0.098032
C28   C     C_3   0.763487 0.821612 0.609283 0.134993
C29   C     C_3   0.712205 0.344984 0.466876 0.382413
C30   C     C_3   0.711255 0.655924 0.533427 0.386948
C31   C     C_3   0.210029 0.846389 0.472531 0.366042
C32   C     C_3   0.211204 0.153454 0.529306 0.367737
C33   C     C_3   0.807149 0.312446 0.504368 -0.106875
C34   C     C_3   0.806774 0.687409 0.495790 -0.110032
C35   C     C_3   0.306234 0.812314 0.502697 -0.091780
C36   C     C_3   0.307076 0.188199 0.498454 -0.093106
C37   C     C_3   0.185417 0.692364 0.499549 -0.187590
C38   C     C_3   0.185203 0.307236 0.501041 -0.191125
C39   C     C_3   0.688877 0.190404 0.504940 -0.174956
C40   C     C_3   0.690058 0.810694 0.494109 -0.172506
C41   C     C_3   0.133759 0.777485 0.485038 0.680853
C42   C     C_3   0.134293 0.221624 0.516839 0.678381
C43   C     C_3   0.638654 0.273845 0.471446 0.681977
C44   C     C_3   0.638978 0.727933 0.528763 0.684861
C45   C     C_3   0.999387 0.415942 0.079918 -0.260421
C46   C     C_3   0.996312 0.415854 0.917396 -0.233875
C47   C     C_3   0.079691 0.540199 0.919109 -0.231391
C48   C     C_3   0.078664 0.541894 0.081680 -0.219282
C49   C     C_3   0.578020 0.957084 0.080492 -0.225657
C50   C     C_3   0.577355 0.956017 0.917796 -0.228266
C51   C     C_3   0.501634 0.084086 0.919615 -0.257271
C52   C     C_3   0.499794 0.084088 0.082351 -0.243611
H1    H     H_    0.781738 0.315535 0.731130 0.201840
H2    H     H_    0.846226 0.271598 0.294523 0.206172
H3    H     H_    0.781775 0.683925 0.269172 0.199090
H4    H     H_    0.844261 0.728167 0.705940 0.205503
H5    H     H_    0.274963 0.810653 0.725800 0.195344
H6    H     H_    0.351036 0.773655 0.292647 0.201257
H7    H     H_    0.277444 0.189589 0.274892 0.197493
H8    H     H_    0.351172 0.227354 0.708227 0.202007
H9    H     H_    0.870360 0.254175 0.682208 0.219235
H10   H     H_    0.898581 0.221031 0.432298 0.250795
H11   H     H_    0.870978 0.744618 0.317156 0.220405
H12   H     H_    0.899452 0.777115 0.569116 0.251522
H13   H     H_    0.367256 0.759050 0.688817 0.209162
H14   H     H_    0.387941 0.710549 0.429674 0.277134
H15   H     H_    0.369158 0.242340 0.313882 0.208212
H16   H     H_    0.387956 0.290631 0.570972 0.276523
H17   H     H_    0.209494 0.678945 0.729181 0.128555
H18   H     H_    0.214099 0.714140 0.276017 0.200119
H19   H     H_    0.209668 0.320023 0.271235 0.131786
H20   H     H_    0.213761 0.286089 0.724686 0.200624
H21   H     H_    0.692824 0.200269 0.735142 0.125539
H22   H     H_    0.730947 0.182829 0.284866 0.190877
H23   H     H_    0.694138 0.800085 0.264068 0.124158
H24   H     H_    0.732330 0.820331 0.713723 0.188931
H25   H     H_    0.942213 0.380361 0.121544 0.178440
H26   H     H_    0.934783 0.384047 0.881946 0.163542
H27   H     H_    0.084356 0.603648 0.881230 0.136201
H28   H     H_    0.080277 0.606301 0.118450 0.177791
H29   H     H_    0.579740 0.893312 0.118446 0.147668
H30   H     H_    0.577080 0.891736 0.880597 0.176353
H31   H     H_    0.444382 0.120211 0.880036 0.169774
H32   H     H_    0.439830 0.117822 0.119425 0.161321
H33   H     H_    0.061557 0.384623 0.111814 0.143352
H34   H     H_    0.053528 0.379998 0.875743 0.187674
H35   H     H_    0.140632 0.508220 0.881382 0.211506
H36   H     H_    0.140184 0.512282 0.121389 0.208557
H37   H     H_    0.640138 0.986965 0.118255 0.208512
H38   H     H_    0.639985 0.983874 0.877686 0.203678
H39   H     H_    0.563423 0.115229 0.884141 0.157449
H40   H     H_    0.558965 0.117655 0.122355 0.189495
H41   H     H_    0.857265 0.512057 0.119800 0.210868
H42   H     H_    0.857712 0.514589 0.879734 0.212659
H43   H     H_    0.919597 0.607692 0.883231 0.166221
H44   H     H_    0.916879 0.606186 0.121273 0.157469
H45   H     H_    0.415581 0.894809 0.117370 0.164983
H46   H     H_    0.413118 0.896298 0.879351 0.153067
H47   H     H_    0.356881 0.991953 0.881184 0.212379
H48   H     H_    0.357129 0.989690 0.121489 0.213946
N1    N     N_3   0.998760 0.500000 0.138610 -0.061725
N2    N     N_3   0.998760 0.500000 0.861390 -0.066906
N3    N     N_3   0.498760 0.000000 0.138610 -0.068305
N4    N     N_3   0.498760 1.000000 0.861390 -0.060225
O1    O     O_R   0.092530 0.407440 0.616040 -0.589894
O2    O     O_R   0.092530 0.407440 0.383960 -0.656833
O3    O     O_R   0.092530 0.592560 0.383960 -0.592163
O4    O     O_R   0.092530 0.592560 0.616040 -0.660570
O5    O     O_R   0.592530 0.907440 0.616040 -0.607559
O6    O     O_R   0.592530 0.907440 0.383960 -0.644481
O7    O     O_R   0.592530 0.092560 0.383960 -0.606299
O8    O     O_R   0.592530 0.092560 0.616040 -0.640608
O9    O     O_R   0.907330 0.407420 0.616040 -0.625986
O10   O     O_R   0.907330 0.407420 0.383960 -0.611404
O11   O     O_R   0.907330 0.592580 0.383960 -0.627749
O12   O     O_R   0.907330 0.592580 0.616040 -0.615897
O13   O     O_R   0.407330 0.907420 0.616040 -0.625390
O14   O     O_R   0.407330 0.907420 0.383960 -0.614343
O15   O     O_R   0.407330 0.092580 0.383960 -0.622850
O16   O     O_R   0.407330 0.092580 0.616040 -0.610350
Zn1   Zn    Zn3+2 0.999890 0.500000 0.654960 0.982858
Zn2   Zn    Zn3+2 0.999890 0.500000 0.345040 0.985169
Zn3   Zn    Zn3+2 0.499890 1.000000 0.654960 0.983943
Zn4   Zn    Zn3+2 0.499890 1.000000 0.345040 0.981535
Br1   Br    Br    0.328928 0.598956 0.633581 -0.433477
Br2   Br    Br    0.285459 0.587326 0.290420 -0.458260
Br3   Br    Br    0.327162 0.401902 0.366285 -0.432759
Br4   Br    Br    0.283526 0.413606 0.710191 -0.450609
Br5   Br    Br    0.796830 0.103461 0.722885 -0.485302
Br6   Br    Br    0.822692 0.077048 0.384326 -0.380789
Br7   Br    Br    0.798856 0.895593 0.273589 -0.493258
Br8   Br    Br    0.827036 0.922904 0.609861 -0.383083
Br9   Br    Br    0.682030 0.428756 0.600204 -0.449470
Br10  Br    Br    0.725113 0.394315 0.279235 -0.504712
Br11  Br    Br    0.679850 0.572014 0.401092 -0.451368
Br12  Br    Br    0.722173 0.606981 0.720976 -0.509825
Br13  Br    Br    0.182227 0.929716 0.608781 -0.444867
Br14  Br    Br    0.220261 0.891894 0.282324 -0.541048
Br15  Br    Br    0.185099 0.069906 0.393108 -0.441359
Br16  Br    Br    0.221385 0.107749 0.719494 -0.530039
O17   O     O_3   0.065719 0.796434 0.587418 -0.625688
C53   C     C_3   0.075963 0.774986 0.727368 0.028461
H49   H     H_    0.141841 0.789110 0.768648 0.163579
H50   H     H_    0.056953 0.710878 0.742174 0.162298
C54   C     C_3   0.013575 0.825940 0.816995 -0.712586
H51   H     H_    0.945660 0.828475 0.774689 0.276014
H52   H     H_    0.008935 0.797116 0.919539 0.181247
H53   H     H_    0.039100 0.889225 0.828420 0.292524
O18   O     O_3   0.085950 0.773308 0.357124 -0.671620
C55   C     C_3   0.027211 0.840507 0.336435 0.283181
H54   H     H_    0.053282 0.899407 0.376468 0.235982
H55   H     H_    0.964215 0.831468 0.392128 0.196897
C56   C     C_3   0.008605 0.848894 0.182728 -0.785254
H56   H     H_    0.964542 0.798502 0.147759 0.228467
H57   H     H_    0.976223 0.908338 0.161390 0.276070
H58   H     H_    0.071746 0.846138 0.122823 0.277567
O19   O     O_3   0.066718 0.201343 0.415132 -0.625832
C57   C     C_3   0.077253 0.222909 0.275491 0.025847
H59   H     H_    0.143301 0.208893 0.234031 0.166138
H60   H     H_    0.058460 0.286906 0.262484 0.160361
C58   C     C_3   0.014944 0.172404 0.185553 -0.712638
H61   H     H_    0.947112 0.169483 0.228499 0.277564
H62   H     H_    0.010189 0.201853 0.083543 0.181799
H63   H     H_    0.040603 0.109234 0.172851 0.292189
O20   O     O_3   0.086360 0.225800 0.645062 -0.672834
C59   C     C_3   0.027495 0.158644 0.665997 0.281955
H64   H     H_    0.054089 0.099620 0.627127 0.236599
H65   H     H_    0.964878 0.167416 0.609494 0.196450
C60   C     C_3   0.007603 0.150918 0.819509 -0.793438
H66   H     H_    0.965106 0.202595 0.854151 0.228280
H67   H     H_    0.972977 0.092487 0.840684 0.276303
H68   H     H_    0.070550 0.151757 0.879525 0.278559
O21   O     O_3   0.561537 0.291031 0.559187 -0.656283
C61   C     C_3   0.565994 0.290187 0.705853 0.012009
H69   H     H_    0.630960 0.308129 0.747879 0.172192
H70   H     H_    0.546590 0.229089 0.743592 0.151346
C62   C     C_3   0.501453 0.353009 0.767442 -0.663889
H71   H     H_    0.442315 0.322519 0.812780 0.218288
H72   H     H_    0.533960 0.387832 0.852484 0.232787
H73   H     H_    0.480298 0.397575 0.687917 0.333910
O22   O     O_3   0.604460 0.264124 0.334022 -0.658977
C63   C     C_3   0.536836 0.321534 0.301221 0.290762
H74   H     H_    0.553985 0.385179 0.330042 0.228226
H75   H     H_    0.477355 0.308282 0.361476 0.188254
C64   C     C_3   0.515724 0.317533 0.147441 -0.858778
H76   H     H_    0.487214 0.257272 0.120309 0.223959
H77   H     H_    0.466298 0.365391 0.120868 0.259113
H78   H     H_    0.577425 0.327399 0.085825 0.280146
O23   O     O_3   0.561611 0.711177 0.441764 -0.655345
C65   C     C_3   0.566334 0.711757 0.294884 0.012320
H79   H     H_    0.631195 0.693050 0.252956 0.171620
H80   H     H_    0.547604 0.772957 0.256298 0.154923
C66   C     C_3   0.501738 0.649115 0.233458 -0.667294
H81   H     H_    0.480680 0.604350 0.312856 0.335056
H82   H     H_    0.442714 0.679721 0.188675 0.219113
H83   H     H_    0.534112 0.614516 0.147758 0.232456
O24   O     O_3   0.605667 0.739284 0.666607 -0.657794
C67   C     C_3   0.535198 0.685562 0.702134 0.296810
H84   H     H_    0.550721 0.620482 0.682272 0.226682
H85   H     H_    0.477620 0.698026 0.637558 0.188223
C68   C     C_3   0.511037 0.697326 0.853948 -0.876544
H86   H     H_    0.488860 0.760962 0.872971 0.228734
H87   H     H_    0.456150 0.655168 0.882944 0.255412
H88   H     H_    0.570088 0.684526 0.919562 0.276966

loop_
_geom_bond_atom_site_label_1
_geom_bond_atom_site_label_2
_ccdc_geom_bond_type
C16   C28   S    
C29   Br9   S    
C49   C50   S    
C52   N3    S    
C50   N4    S    
O19   C57   S    
C27   Br7   S    
C60   H66   S    
C20   C36   S    
C45   H33   S    
C47   H27   S    
O4    Zn1   S    
C25   Br5   S    
C5    H44   S    
C14   C33   S    
C58   H61   S    
C20   H8    S    
C7    C8    S    
N4    Zn3   S    
C45   C46   S    
C13   C33   S    
C46   N2    S    
C50   H30   S    
C65   H79   S    
C9    O10   A    
C32   C36   S    
C8    H47   S    
C38   C42   S    
C19   C36   S    
C5    C6    S    
C26   C39   S    
C22   Br2   S    
C41   O18   S    
C28   C40   S    
C3    O6    A    
C63   H75   S    
C14   H10   S    
C29   C33   S    
C2    O3    A    
C68   H86   S    
C49   H29   S    
C52   H32   S    
C8    H46   S    
C61   H69   S    
C57   C58   S    
C51   H39   S    
C12   O16   A    
C50   H38   S    
C20   C24   S    
C24   Br4   S    
C66   H82   S    
C55   C56   S    
C24   C38   S    
C48   H36   S    
C19   H15   S    
C67   H84   S    
C12   C36   S    
N2    Zn1   S    
C7    H45   S    
C18   C35   S    
C15   C34   S    
C13   H1    S    
C65   C66   S    
C42   O20   S    
C1    O2    A    
O6    Zn4   S    
C62   H73   S    
C29   Br10  S    
C4    O8    A    
C44   O24   S    
C47   N2    S    
C7    N3    S    
C29   C43   S    
C59   H65   S    
C68   H87   S    
C53   C54   S    
C30   C44   S    
O24   C67   S    
C27   H23   S    
N3    Zn4   S    
C58   H62   S    
C18   H6    S    
C54   H51   S    
O15   Zn4   S    
C32   C42   S    
C47   H35   S    
C5    N1    S    
C53   H49   S    
O12   Zn1   S    
C54   H52   S    
C51   C52   S    
C23   H19   S    
C32   Br15  S    
C7    H48   S    
C46   H26   S    
C30   C34   S    
O5    Zn3   S    
C64   H78   S    
C39   C43   S    
C19   H7    S    
C51   N4    S    
O22   C63   S    
C22   C37   S    
C43   O22   S    
C17   C21   S    
C21   H17   S    
C28   Br8   S    
C63   C64   S    
C15   H3    S    
C19   C23   S    
C16   H4    S    
C41   O17   S    
C44   O23   S    
C12   O15   A    
C31   Br13  S    
C15   C27   S    
C47   C48   S    
C4    C39   S    
C27   C40   S    
C43   O21   S    
C66   H83   S    
C16   C34   S    
O2    Zn2   S    
C67   C68   S    
O1    Zn1   S    
C10   C34   S    
O14   Zn4   S    
C14   C26   S    
C56   H58   S    
C8    N4    S    
C61   C62   S    
O8    Zn3   S    
C45   N1    S    
C1    C38   S    
C9    C33   S    
C14   H2    S    
C4    O7    A    
C6    H43   S    
C66   H81   S    
C30   Br12  S    
C57   H59   S    
C68   H88   S    
C55   H55   S    
C52   H40   S    
C42   O19   S    
C56   H57   S    
C21   Br1   S    
C28   H24   S    
C51   H31   S    
C58   H63   S    
C10   O12   A    
C54   H53   S    
C24   H20   S    
C23   Br3   S    
C60   H67   S    
C65   H80   S    
C31   C41   S    
C49   N3    S    
O7    Zn4   S    
C18   C22   S    
C20   H16   S    
C49   H37   S    
C13   C25   S    
C26   Br6   S    
C3    C40   S    
C5    H41   S    
O16   Zn3   S    
C32   Br16  S    
C18   H14   S    
O9    Zn1   S    
C17   C35   S    
C17   H13   S    
N1    Zn2   S    
C23   C38   S    
C31   Br14  S    
C48   H28   S    
C11   C35   S    
O13   Zn3   S    
C9    O9    A    
O18   C55   S    
C25   C39   S    
C57   H60   S    
C2    C37   S    
C6    H42   S    
C64   H76   S    
C59   H64   S    
C3    O5    A    
C48   N1    S    
C31   C35   S    
C2    O4    A    
C26   H22   S    
C62   H72   S    
C25   H21   S    
C6    N2    S    
C37   C41   S    
O23   C65   S    
C61   H70   S    
C64   H77   S    
C62   H71   S    
O21   C61   S    
O10   Zn2   S    
O20   C59   S    
C40   C44   S    
C21   C37   S    
C59   C60   S    
C30   Br11  S    
C17   H5    S    
C13   H9    S    
O11   Zn2   S    
C15   H11   S    
C55   H54   S    
C67   H85   S    
C60   H68   S    
C16   H12   S    
O3    Zn2   S    
C45   H25   S    
C56   H56   S    
O17   C53   S    
C11   O14   A    
C22   H18   S    
C53   H50   S    
C10   O11   A    
C63   H74   S    
C1    O1    A    
C46   H34   S    
C11   O13   A    
