data_mof_unit_47142.cif
_audit_creation_date              2012-12-11T16:22:15-0500
_audit_creation_method            fapswitch 2.2
_symmetry_space_group_name_H-M    P1
_symmetry_Int_Tables_number       1
_space_group_crystal_system       triclinic
_cell_length_a                    13.477265
_cell_length_b                    14.014276
_cell_length_c                    30.110281
_cell_angle_alpha                 97.99831
_cell_angle_beta                  90.206355
_cell_angle_gamma                 118.615571
_cell_volume                      4927.66488618

loop_
_atom_site_label
_atom_site_type_symbol
_atom_type_description
_atom_site_fract_x
_atom_site_fract_y
_atom_site_fract_z
_atom_type_partial_charge
C1    C     C_R   0.720918 0.098989 0.569211 0.542241
C2    C     C_1   0.347228 0.648044 0.760884 0.015769
C3    C     C_1   0.351186 0.655470 0.721723 0.003522
C4    C     C_R   0.383817 0.788190 0.550937 0.559945
C5    C     C_R   0.300243 0.598944 0.896385 0.064144
C6    C     C_3   0.229892 0.158091 0.724584 -0.076655
C7    C     C_3   0.225251 0.071314 0.753066 -0.122724
C8    C     C_1   0.296833 0.197427 0.876624 -0.004497
C9    C     C_1   0.364469 0.136505 0.613648 -0.006295
C10   C     C_3   0.318381 0.249647 0.760405 0.167691
C11   C     C_3   0.313760 0.164816 0.788534 0.050886
C12   C     C_R   0.354765 0.669179 0.675526 0.043531
C13   C     C_3   0.414908 0.244614 0.736160 0.127307
C14   C     C_3   0.328626 0.153117 0.700423 0.046814
C15   C     C_3   0.412600 0.160087 0.764346 -0.134987
C16   C     C_R   0.397379 0.118854 0.569547 0.543849
C17   C     C_3   0.324125 0.066222 0.728138 -0.144569
C18   C     C_1   0.305133 0.177950 0.837090 -0.032426
C19   C     C_1   0.344288 0.145931 0.652358 -0.037227
C20   C     C_3   0.879245 0.276470 0.735441 -0.106591
C21   C     C_3   0.783181 0.230342 0.767075 0.111865
C22   C     C_1   0.894610 0.203685 0.878773 0.000544
C23   C     C_R   0.257087 0.654572 0.652476 -0.146266
C24   C     C_1   0.768236 0.131422 0.614752 -0.015256
C25   C     C_3   0.937757 0.224440 0.759542 0.103186
C26   C     C_3   0.843183 0.181435 0.791419 0.094388
C27   C     C_3   0.877223 0.115419 0.726554 -0.083524
C28   C     C_R   0.720200 0.095291 0.442694 0.555030
C29   C     C_3   0.815564 0.165785 0.703110 0.009625
C30   C     C_3   0.779908 0.071872 0.758524 -0.132289
C31   C     C_3   0.717358 0.121428 0.734214 -0.083958
C32   C     C_1   0.865590 0.192237 0.839788 -0.018540
C33   C     C_1   0.794998 0.150869 0.654413 -0.061844
C34   C     C_R   0.261925 0.685058 0.609871 0.084790
C35   C     C_3   0.247481 0.595149 0.258259 -0.087867
C36   C     C_3   0.260987 0.682979 0.229437 0.140770
C37   C     C_1   0.309976 0.608710 0.111006 0.002802
C38   C     C_1   0.366235 0.735692 0.378334 -0.004490
C39   C     C_3   0.331598 0.574613 0.229106 0.099720
C40   C     C_R   0.382164 0.784198 0.424456 0.544861
C41   C     C_3   0.342283 0.660298 0.200003 0.071456
C42   C     C_3   0.434987 0.662693 0.260704 -0.139179
C43   C     C_3   0.351163 0.685655 0.289384 0.029135
C44   C     C_3   0.445675 0.750567 0.231320 -0.141619
C45   C     C_R   0.240392 0.631586 0.826239 -0.149212
C46   C     C_3   0.362083 0.771791 0.260524 0.146347
C47   C     C_1   0.329289 0.637751 0.150958 -0.017870
C48   C     C_1   0.357714 0.707534 0.338368 -0.038214
C49   C     C_R   0.358034 0.132566 0.400134 0.005169
C50   C     C_R   0.429600 0.230013 0.383545 -0.147282
C51   C     C_R   0.416222 0.239475 0.338632 0.090255
C52   C     C_R   0.395915 0.114317 0.442827 0.559882
C53   C     C_R   0.329178 0.150467 0.310024 0.050219
C54   C     C_R   0.249559 0.056712 0.327011 0.093136
C55   C     C_R   0.263270 0.047892 0.372298 0.127795
C56   C     C_R   0.221074 0.613177 0.870549 0.063005
C57   C     C_R   0.240024 0.086715 0.145879 0.116303
C58   C     C_R   0.233664 0.108318 0.102189 -0.101395
C59   C     C_R   0.410340 0.280211 0.119553 -0.138193
C60   C     C_R   0.416985 0.259363 0.162974 -0.144625
C61   C     C_R   0.330113 0.165358 0.176602 0.067873
C62   C     C_1   0.328346 0.156762 0.223271 0.011896
C63   C     C_1   0.327017 0.152903 0.262717 0.009618
C64   C     C_R   0.366596 0.730999 0.590269 0.035098
C65   C     C_R   0.315884 0.207431 0.089514 0.002758
C66   C     C_R   0.778955 0.133421 0.402152 0.020586
C67   C     C_R   0.404624 0.618223 0.878551 0.070869
C68   C     C_R   0.822628 0.073752 0.374892 0.090590
C69   C     C_R   0.848918 0.096288 0.331203 -0.127657
C70   C     C_R   0.833953 0.177732 0.315114 0.039378
C71   C     C_R   0.801555 0.244415 0.343350 0.106820
C72   C     C_R   0.775112 0.222280 0.386863 -0.136590
C73   C     C_R   0.878035 0.295619 0.167288 -0.086432
C74   C     C_R   0.901093 0.307164 0.122361 0.096427
C75   C     C_R   0.860208 0.115694 0.107583 -0.148724
C76   C     C_R   0.462032 0.736340 0.612310 -0.144293
C77   C     C_R   0.837161 0.105575 0.152122 -0.122891
C78   C     C_R   0.422759 0.638290 0.833776 0.111563
C79   C     C_R   0.850707 0.196684 0.182210 0.018778
C80   C     C_1   0.845117 0.190928 0.229051 -0.014938
C81   C     C_1   0.841774 0.185712 0.268388 0.006696
C82   C     C_R   0.898402 0.217649 0.092688 0.045362
C83   C     C_R   0.283942 0.232532 0.922041 0.545224
C84   C     C_R   0.266227 0.547473 0.937789 0.577307
C85   C     C_R   0.944904 0.221988 0.923030 0.544629
C86   C     C_R   0.292959 0.243184 0.048864 0.544018
C87   C     C_R   0.275426 0.558926 0.065069 0.546075
C88   C     C_R   0.457270 0.707051 0.655123 0.109327
C89   C     C_R   0.337696 0.639672 0.807588 0.036163
C90   C     C_R   0.953855 0.233232 0.050025 0.555533
Cr1   Cr    Cr6+3 0.583430 0.162610 0.509470 1.019272
Cr2   Cr    Cr6+3 0.584210 0.916680 0.495400 1.033642
Cr3   Cr    Cr6+3 0.332380 0.920740 0.495100 1.056684
Cr4   Cr    Cr6+3 0.086810 0.177030 0.983130 1.021083
Cr5   Cr    Cr6+3 0.337180 0.419300 0.994610 1.041205
Cr6   Cr    Cr6+3 0.084840 0.422330 0.995830 1.053771
H1    H     H_    0.167017 0.530967 0.268765 0.108751
H2    H     H_    0.332626 0.397478 0.752845 0.249061
H3    H     H_    0.385535 0.395225 0.803046 0.228695
H4    H     H_    0.704386 0.321845 0.765404 0.217135
H5    H     H_    0.795298 0.360217 0.810695 0.231918
H6    H     H_    0.920591 0.360285 0.726218 0.097556
H7    H     H_    0.625433 0.080266 0.723438 0.112753
H8    H     H_    0.738994 0.988514 0.768199 0.110093
H9    H     H_    0.918557 0.069788 0.709591 0.111278
H10   H     H_    0.177682 0.637214 0.805699 0.103609
H11   H     H_    0.101958 0.306084 0.745570 0.233886
H12   H     H_    0.161084 0.050949 0.079077 0.120943
H13   H     H_    0.075983 0.351232 0.796348 0.243422
H14   H     H_    0.128421 0.711797 0.240068 0.237879
H15   H     H_    0.110178 0.622838 0.193290 0.227624
H16   H     H_    0.382315 0.920574 0.251037 0.237334
H17   H     H_    0.453872 0.924108 0.297497 0.235350
H18   H     H_    0.525356 0.815195 0.220518 0.108385
H19   H     H_    0.504970 0.651102 0.273750 0.114856
H20   H     H_    0.315203 0.427068 0.238332 0.227868
H21   H     H_    0.385953 0.476285 0.193858 0.229538
H22   H     H_    0.188663 0.941257 0.167217 0.238341
H23   H     H_    0.065336 0.606082 0.863738 0.214697
H24   H     H_    0.089364 0.942002 0.133817 0.223182
H25   H     H_    0.109368 0.999116 0.284444 0.235404
H26   H     H_    0.189570 0.937122 0.272168 0.258757
H27   H     H_    0.177862 0.623952 0.668398 0.102987
H28   H     H_    0.103000 0.943096 0.385108 0.233852
H29   H     H_    0.183419 0.882560 0.370178 0.264327
H30   H     H_    0.500802 0.296678 0.404793 0.134254
H31   H     H_    0.486676 0.319771 0.186718 0.120554
H32   H     H_    0.474994 0.357025 0.110673 0.136324
H33   H     H_    0.449699 0.375614 0.312364 0.221448
H34   H     H_    0.142777 0.675354 0.912518 0.232521
H35   H     H_    0.557896 0.392225 0.346073 0.223397
H36   H     H_    0.939551 0.469696 0.134711 0.211358
H37   H     H_    0.867332 0.398585 0.085245 0.224017
H38   H     H_    0.885935 0.365007 0.191054 0.106709
H39   H     H_    0.757658 0.367090 0.350980 0.225639
H40   H     H_    0.869727 0.390502 0.321186 0.223986
H41   H     H_    0.744255 0.270420 0.407663 0.132454
H42   H     H_    0.863466 0.949038 0.365649 0.219641
H43   H     H_    0.900108 0.025575 0.416944 0.230078
H44   H     H_    0.131394 0.717592 0.608362 0.228178
H45   H     H_    0.156161 0.158645 0.708332 0.112321
H46   H     H_    0.099969 0.589398 0.583660 0.225154
H47   H     H_    0.814503 0.028251 0.163597 0.117460
H48   H     H_    0.855356 0.045271 0.085576 0.134359
H49   H     H_    0.876524 0.047240 0.309028 0.109007
H50   H     H_    0.542813 0.770241 0.597617 0.134332
H51   H     H_    0.593851 0.724466 0.833313 0.226648
H52   H     H_    0.536710 0.586885 0.815719 0.223399
H53   H     H_    0.507124 0.553712 0.889922 0.234431
H54   H     H_    0.564854 0.691352 0.908173 0.220451
H55   H     H_    0.623818 0.742210 0.657905 0.222403
H56   H     H_    0.325711 0.989439 0.714074 0.116236
H57   H     H_    0.582439 0.786427 0.705144 0.229659
H58   H     H_    0.147204 0.998856 0.760615 0.115311
H59   H     H_    0.487271 0.161182 0.780575 0.139642
H60   H     H_    0.560466 0.386974 0.757159 0.221801
H61   H     H_    0.566973 0.313116 0.709320 0.229481
N1    N     N_3   0.119055 0.604975 0.888575 -0.590956
N2    N     N_3   0.156759 0.967828 0.298362 -0.644106
N3    N     N_3   0.183795 0.951013 0.389317 -0.581108
N4    N     N_3   0.494641 0.336558 0.321164 -0.616368
N5    N     N_3   0.933125 0.410754 0.107745 -0.583433
N6    N     N_3   0.788857 0.329645 0.326698 -0.608301
N7    N     N_3   0.835701 0.988003 0.390782 -0.590779
N8    N     N_3   0.161402 0.672494 0.587506 -0.595985
N9    N     N_3   0.526035 0.655515 0.814348 -0.621546
N10   N     N_3   0.490804 0.615534 0.905654 -0.609704
N11   N     N_3   0.557063 0.720334 0.678815 -0.599429
N12   N     N_3   0.516057 0.341014 0.726395 -0.617733
N13   N     N_3   0.317131 0.350837 0.778760 -0.606546
N14   N     N_3   0.731309 0.291672 0.789957 -0.645482
N15   N     N_3   0.058189 0.280039 0.773876 -0.600154
N16   N     N_3   0.168885 0.697784 0.212365 -0.627500
N17   N     N_3   0.375937 0.879956 0.278357 -0.614530
N18   N     N_3   0.314972 0.465555 0.211021 -0.611739
N19   N     N_3   0.152254 0.989185 0.160069 -0.630823
O1    O     O_R   0.493980 0.188910 0.559650 -0.502570
O2    O     O_R   0.170560 0.527890 0.952050 -0.487851
O3    O     O_R   0.987620 0.318470 0.945550 -0.490039
O4    O     O_R   0.678640 0.153520 0.554450 -0.494099
O5    O     O_R   0.976400 0.159270 0.031530 -0.529050
O6    O     O_R   0.194000 0.188570 0.028560 -0.503598
O7    O     O_R   0.365260 0.335720 0.039020 -0.515571
O8    O     O_R   0.330440 0.515580 0.044910 -0.499504
O9    O     O_R   0.177310 0.536200 0.050190 -0.491083
O10   O     O_R   0.993870 0.326170 0.036530 -0.466067
O11   O     O_3   0.169610 0.339550 0.991190 -0.253391
O12   O     O_R   0.480180 0.824400 0.444640 -0.491342
O13   O     O_R   0.698130 0.004030 0.549500 -0.514347
O14   O     O_R   0.481060 0.827210 0.535360 -0.520724
O15   O     O_R   0.309260 0.811560 0.537660 -0.467732
O16   O     O_R   0.341620 0.023400 0.546290 -0.497354
O17   O     O_R   0.493030 0.185890 0.461780 -0.531542
O18   O     O_R   0.677760 0.150720 0.463730 -0.516640
O19   O     O_R   0.697180 0.001010 0.451640 -0.469274
O20   O     O_R   0.308310 0.808540 0.439800 -0.501317
O21   O     O_R   0.340740 0.020600 0.455570 -0.457138
O22   O     O_3   0.500010 0.000010 0.499990 -0.255458
O23   O     O_R   0.969650 0.150960 0.933380 -0.509614
O24   O     O_R   0.187740 0.180870 0.937580 -0.494522
O25   O     O_R   0.358510 0.327410 0.940870 -0.504799
O26   O     O_R   0.324180 0.507870 0.953930 -0.466395

loop_
_geom_bond_atom_site_label_1
_geom_bond_atom_site_label_2
_ccdc_geom_bond_type
C66   C68   A    
C21   C26   S    
C11   C18   S    
C26   C32   S    
C27   C29   S    
C8    C83   S    
H52   N9    S    
C73   C74   A    
C5    C56   A    
H16   N17   S    
C35   C36   S    
H53   N10   S    
C64   C76   A    
C83   O25   A    
Cr2   O19   S    
H37   N5    S    
H29   N3    S    
Cr5   O11   S    
C65   C86   S    
C39   C41   S    
H3    N13   S    
C53   C54   A    
C16   O1    A    
Cr5   O26   S    
C7    C11   S    
C21   C31   S    
C12   C23   A    
C71   N6    S    
H43   N7    S    
C9    C16   S    
H54   N10   S    
C30   C31   S    
Cr1   O17   S    
C1    O4    A    
Cr5   O8    S    
H14   N16   S    
C20   H6    S    
C20   C25   S    
H35   N4    S    
C51   N4    S    
C67   N10   S    
H55   N11   S    
C29   C33   S    
H60   N12   S    
C28   O19   A    
C69   H49   S    
C15   C17   S    
Cr4   O23   S    
C22   C85   S    
C70   C81   S    
C56   N1    S    
C3    C12   S    
C16   O16   A    
H61   N12   S    
C54   N2    S    
Cr1   O22   S    
C11   C15   S    
C85   O23   A    
C66   C72   A    
C45   C56   A    
Cr2   O14   S    
C68   C69   A    
C7    C17   S    
Cr6   O11   S    
C28   O18   A    
H26   N2    S    
C46   N17   S    
C36   C46   S    
C70   C71   A    
C50   H30   S    
Cr4   O5    S    
H39   N6    S    
C37   C47   T    
C34   N8    S    
C35   C43   S    
C43   C48   S    
C76   C88   A    
C38   C48   T    
H13   N15   S    
C5    C67   A    
C20   C29   S    
H21   N18   S    
Cr3   O15   S    
C76   H50   S    
C36   N16   S    
C13   C14   S    
C27   C30   S    
C14   C17   S    
C4    O15   A    
C36   C41   S    
C69   C70   A    
C67   C78   A    
C42   C44   S    
C74   C82   A    
Cr2   O22   S    
C14   C19   S    
C9    C19   T    
C39   C42   S    
H11   N15   S    
C77   C79   A    
C78   C89   A    
C73   C79   A    
C78   N9    S    
Cr4   O24   S    
C12   C88   A    
Cr6   O10   S    
Cr4   O11   S    
H24   N19   S    
C10   C11   S    
C87   O8    A    
C74   N5    S    
C5    C84   S    
C23   H27   S    
C44   C46   S    
C88   N11   S    
C25   C26   S    
C21   N14   S    
C8    C18   T    
C60   C61   A    
C51   C53   A    
C31   H7    S    
C2    C89   S    
C28   C66   S    
C77   H47   S    
C62   C63   T    
H51   N9    S    
C4    O14   A    
C6    C14   S    
C57   N19   S    
C58   C65   A    
H4    N14   S    
C90   O5    A    
C85   O3    A    
C23   C34   A    
Cr1   O4    S    
C34   C64   A    
C50   C51   A    
C41   C47   S    
H33   N4    S    
C44   H18   S    
C73   H38   S    
C6    H45   S    
C84   O2    A    
C75   C77   A    
C22   C32   T    
C25   N15   S    
C39   N18   S    
C72   H41   S    
C26   C30   S    
C13   C15   S    
H57   N11   S    
C86   O7    A    
C41   C44   S    
C17   H56   S    
Cr5   O25   S    
C42   C43   S    
C45   C89   A    
C45   H10   S    
C40   O20   A    
Cr3   O16   S    
C84   O26   A    
H44   N8    S    
Cr1   O18   S    
C54   C55   A    
C55   N3    S    
H20   N18   S    
H15   N16   S    
C15   H59   S    
Cr6   O9    S    
C37   C87   S    
C60   H31   S    
C52   O17   A    
C49   C52   S    
C80   C81   T    
C10   C13   S    
C6    C10   S    
H42   N7    S    
Cr3   O20   S    
Cr2   O12   S    
C75   C82   A    
C57   C61   A    
C6    C7    S    
C40   O12   A    
C25   C27   S    
C90   O10   A    
C4    C64   S    
C10   N13   S    
C24   C33   T    
C82   C90   S    
Cr2   O13   S    
H34   N1    S    
Cr3   O22   S    
C59   H32   S    
C68   N7    S    
C71   C72   A    
C29   C31   S    
C49   C55   A    
C59   C65   A    
H46   N8    S    
C38   C40   S    
C53   C63   S    
Cr5   O7    S    
C57   C58   A    
C7    H58   S    
H23   N1    S    
C35   C39   S    
Cr1   O1    S    
C13   N12   S    
H5    N14   S    
C58   H12   S    
Cr6   O3    S    
C61   C62   S    
C43   C46   S    
H36   N5    S    
C75   H48   S    
H28   N3    S    
Cr3   O21   S    
C79   C80   S    
H2    N13   S    
C42   H19   S    
C59   C60   A    
C20   C21   S    
C1    C24   S    
C49   C50   A    
H25   N2    S    
C30   H8    S    
C86   O6    A    
C27   H9    S    
C2    C3    T    
C52   O21   A    
Cr4   O6    S    
Cr6   O2    S    
C83   O24   A    
C35   H1    S    
H22   N19   S    
H17   N17   S    
C87   O9    A    
H40   N6    S    
C1    O13   A    
