data_mof_unit_50834.cif
_audit_creation_date              2012-12-11T14:43:35-0500
_audit_creation_method            fapswitch 2.2
_symmetry_space_group_name_H-M    P1
_symmetry_Int_Tables_number       1
_space_group_crystal_system       triclinic
_cell_length_a                    20.89151
_cell_length_b                    7.084063
_cell_length_c                    16.512182
_cell_angle_alpha                 90.274181
_cell_angle_beta                  92.722404
_cell_angle_gamma                 89.939626
_cell_volume                      2440.96279937

loop_
_atom_site_label
_atom_site_type_symbol
_atom_type_description
_atom_site_fract_x
_atom_site_fract_y
_atom_site_fract_z
_atom_type_partial_charge
O1    O     O_R   0.564840 0.505290 0.579830 -0.534882
O2    O     O_R   0.435160 0.005290 0.420170 -0.535258
O3    O     O_R   0.556720 0.179930 0.409350 -0.538957
O4    O     O_R   0.443280 0.679930 0.590650 -0.539349
C1    C     C_R   0.570855 0.344486 0.381828 0.706183
C2    C     C_R   0.429535 0.845673 0.618481 0.706969
O5    O     O_R   0.572280 0.175810 0.578530 -0.537715
O6    O     O_R   0.427720 0.675810 0.421470 -0.538114
O7    O     O_R   0.450830 0.001920 0.590540 -0.538659
O8    O     O_R   0.549170 0.501920 0.409460 -0.538225
C3    C     C_R   0.590195 0.343955 0.604053 0.709496
C4    C     C_R   0.410017 0.843559 0.395623 0.708676
O9    O     O_3   0.460130 0.338030 0.503750 -0.373081
O10   O     O_3   0.539870 0.838030 0.496250 -0.372317
V1    V     V_3+5 0.507400 0.064560 0.499310 1.434144
V2    V     V_3+5 0.492600 0.564560 0.500690 1.434377
C5    C     C_R   0.145065 0.922404 0.166598 -0.099335
C6    C     C_R   0.855612 0.420611 0.832456 -0.097699
C7    C     C_R   0.356235 0.848071 0.333755 -0.099131
C8    C     C_R   0.644148 0.348955 0.665619 -0.097705
C9    C     C_R   0.310128 0.719303 0.206865 0.193676
C10   C     C_R   0.689514 0.225593 0.793473 0.193151
C11   C     C_R   0.360246 0.731748 0.265800 -0.187250
C12   C     C_R   0.639151 0.239151 0.734932 -0.189139
C13   C     C_R   0.301819 0.964289 0.341679 0.118506
C14   C     C_R   0.700002 0.457307 0.655693 0.119711
C15   C     C_R   0.252011 0.963094 0.279076 0.021429
C16   C     C_R   0.749599 0.458005 0.718510 0.020608
C17   C     C_R   0.251822 0.818609 0.218206 0.097136
C18   C     C_R   0.748612 0.318940 0.780921 0.094897
C19   C     C_R   0.193979 0.782995 0.170220 0.090979
C20   C     C_R   0.806124 0.283199 0.829330 0.095922
C21   C     C_R   0.151619 0.080938 0.217295 -0.206549
C22   C     C_R   0.850107 0.575836 0.780339 -0.213293
C23   C     C_R   0.202854 0.101766 0.273555 0.258869
C24   C     C_R   0.799439 0.594280 0.723028 0.262848
H1    H     H_    0.115888 0.191975 0.213394 0.159170
H2    H     H_    0.886235 0.685659 0.783856 0.157261
H3    H     H_    0.403923 0.652215 0.257657 0.126172
H4    H     H_    0.594684 0.164928 0.744184 0.122838
C25   C     C_R   0.388834 0.978874 0.829351 0.185674
C26   C     C_R   0.611496 0.365018 0.162722 0.188965
H5    H     H_    0.474922 0.947843 0.763840 0.104453
H6    H     H_    0.525349 0.343425 0.229119 0.105791
H7    H     H_    0.309554 0.079060 0.944238 0.173818
H8    H     H_    0.689603 0.453674 0.044350 0.170268
C27   C     C_R   0.392219 0.862243 0.691433 -0.086686
C28   C     C_R   0.608965 0.351030 0.309249 -0.082261
C29   C     C_R   0.085798 0.841854 0.743532 -0.205487
C30   C     C_R   0.916947 0.370661 0.260167 -0.209929
C31   C     C_R   0.117083 0.840235 0.670942 0.200223
C32   C     C_R   0.884665 0.302615 0.325979 0.200536
C33   C     C_R   0.182051 0.894046 0.670512 0.173329
C34   C     C_R   0.818067 0.268130 0.317758 0.152997
C35   C     C_R   0.218476 0.913514 0.745618 0.011690
C36   C     C_R   0.781950 0.341240 0.248936 0.010233
C37   C     C_R   0.183809 0.945936 0.817721 -0.013829
C38   C     C_R   0.816217 0.402470 0.180090 -0.010071
C39   C     C_R   0.287703 0.909277 0.751149 0.057760
C40   C     C_R   0.712949 0.352210 0.245299 0.059311
C41   C     C_R   0.320761 0.969660 0.823946 0.075106
C42   C     C_R   0.679534 0.375004 0.169049 0.082038
C43   C     C_R   0.285493 0.024831 0.889528 -0.204065
C44   C     C_R   0.714215 0.421628 0.101769 -0.205928
C45   C     C_R   0.219111 0.015828 0.887352 0.208260
C46   C     C_R   0.779821 0.453972 0.108711 0.204797
C47   C     C_R   0.325416 0.840773 0.687782 -0.228836
C48   C     C_R   0.676142 0.355226 0.315416 -0.226127
C49   C     C_R   0.423276 0.930624 0.761944 -0.148068
C50   C     C_R   0.577270 0.349845 0.233169 -0.157123
C51   C     C_R   0.116119 0.906656 0.815588 -0.111339
C52   C     C_R   0.884969 0.406428 0.185741 -0.104573
H9    H     H_    0.303922 0.774046 0.634348 0.136931
H10   H     H_    0.698890 0.366907 0.375290 0.126978
H11   H     H_    0.035482 0.803616 0.742989 0.122978
H12   H     H_    0.968797 0.381810 0.264949 0.120828
O11   O     O_R   0.950790 0.256670 0.090520 -0.542740
O12   O     O_R   0.049210 0.756670 0.909480 -0.544903
O13   O     O_R   0.927720 0.590370 0.921470 -0.523362
O14   O     O_R   0.072280 0.090370 0.078530 -0.521734
C53   C     C_R   0.910232 0.421654 0.894554 0.756043
C54   C     C_R   0.089968 0.922083 0.105181 0.752395
O15   O     O_R   0.943270 0.586180 0.090640 -0.517487
O16   O     O_R   0.056730 0.086180 0.909360 -0.515313
O17   O     O_R   0.064850 0.759970 0.079840 -0.548382
O18   O     O_R   0.935150 0.259970 0.920160 -0.547129
C55   C     C_R   0.926806 0.417437 0.115464 0.759479
C56   C     C_R   0.074234 0.916793 0.885815 0.760192
O19   O     O_3   0.039850 0.428050 0.996240 -0.361555
O20   O     O_3   0.960150 0.928050 0.003760 -0.364402
V3    V     V_3+5 0.992610 0.701540 0.000700 1.494573
V4    V     V_3+5 0.007390 0.201540 0.999300 1.497623
C57   C     C_3   0.180686 0.591903 0.131315 -0.626995
H13   H     H_    0.215925 0.483023 0.150948 0.238886
H14   H     H_    0.134498 0.536054 0.151471 0.214119
H15   H     H_    0.178913 0.603393 0.064199 0.215194
C58   C     C_3   0.818388 0.093283 0.869014 -0.630563
H16   H     H_    0.819820 0.107516 0.936082 0.214062
H17   H     H_    0.782702 0.985388 0.849218 0.234874
H18   H     H_    0.864483 0.034565 0.849539 0.213802
C59   C     C_3   0.206633 0.964121 0.591302 -0.808366
H19   H     H_    0.250363 0.051632 0.600339 0.216044
H20   H     H_    0.215168 0.843535 0.549980 0.219017
H21   H     H_    0.171006 0.060300 0.561244 0.227238
C60   C     C_3   0.789944 0.128338 0.375731 -0.759130
H22   H     H_    0.783903 0.195458 0.435801 0.216424
H23   H     H_    0.744054 0.067083 0.351734 0.214334
H24   H     H_    0.822085 0.004420 0.383932 0.222122
C61   C     C_3   0.079687 0.786089 0.593787 -0.742005
H25   H     H_    0.031466 0.730268 0.606185 0.207506
H26   H     H_    0.072846 0.910536 0.553766 0.214847
H27   H     H_    0.105763 0.674152 0.561469 0.221589
C62   C     C_3   0.923041 0.256026 0.403145 -0.745501
H28   H     H_    0.972831 0.310660 0.402182 0.208605
H29   H     H_    0.900268 0.321687 0.455782 0.220197
H30   H     H_    0.925883 0.100940 0.411618 0.214461
Br1   Br    Br    0.185314 0.138612 0.979048 -0.600730
Br2   Br    Br    0.809517 0.606232 0.022963 -0.599229
C63   C     C_3   0.325948 0.624887 0.127966 -0.779180
H31   H     H_    0.374697 0.667104 0.110847 0.199855
H32   H     H_    0.325369 0.469043 0.134733 0.225153
H33   H     H_    0.293202 0.669315 0.076792 0.228699
C64   C     C_3   0.673431 0.137226 0.873148 -0.782933
H34   H     H_    0.624977 0.183181 0.890179 0.197526
H35   H     H_    0.673178 0.980996 0.867547 0.225880
H36   H     H_    0.706589 0.183075 0.923817 0.228371
Br3   Br    Br    0.207164 0.345684 0.326137 -0.639271
Br4   Br    Br    0.796137 0.833636 0.667752 -0.629037
C65   C     C_3   0.293444 0.062234 0.422143 -0.665201
H37   H     H_    0.316581 0.203235 0.422532 0.243354
H38   H     H_    0.242087 0.074136 0.435162 0.235660
H39   H     H_    0.314909 0.978619 0.473244 0.162125
C66   C     C_3   0.710039 0.542491 0.573274 -0.656886
H40   H     H_    0.761652 0.548355 0.560531 0.229402
H41   H     H_    0.688240 0.453014 0.523985 0.152529
H42   H     H_    0.687982 0.684960 0.569263 0.240851
C67   C     C_3   0.425921 0.044995 0.905072 -0.811375
H43   H     H_    0.412709 0.192945 0.919297 0.215478
H44   H     H_    0.415293 0.952204 0.956754 0.212801
H45   H     H_    0.478532 0.040952 0.897956 0.208696
C68   C     C_3   0.574277 0.373000 0.082099 -0.810593
H46   H     H_    0.591216 0.260155 0.041385 0.213442
H47   H     H_    0.522105 0.351750 0.088732 0.211392
H48   H     H_    0.580686 0.512992 0.053670 0.214159

loop_
_geom_bond_atom_site_label_1
_geom_bond_atom_site_label_2
_ccdc_geom_bond_type
O15   C55   A    
C43   C45   A    
O11   V4    S    
O4    V2    S    
C57   H13   S    
C35   C39   A    
C15   C17   A    
C33   C35   A    
O1    C3    A    
C25   C41   A    
C13   C65   S    
C58   H18   S    
C2    O7    A    
C58   H16   S    
O17   V3    S    
C64   H34   S    
C32   C62   S    
O5    C3    A    
C67   H44   S    
C59   H19   S    
C65   H37   S    
C61   H26   S    
C21   C23   A    
C64   H35   S    
C48   H10   S    
C26   C50   A    
C6    C53   S    
C20   C58   S    
C40   C42   A    
C5    C54   S    
C41   C43   A    
C30   C52   A    
C27   C49   A    
C42   C44   A    
C58   H17   S    
C38   C46   A    
C8    C12   A    
C33   C59   S    
C29   C31   A    
C66   H42   S    
C30   C32   A    
C29   H11   S    
H6    C50   S    
C47   H9    S    
O19   V3    S    
C26   C42   A    
O13   V3    S    
C53   O18   A    
C62   H30   S    
C39   C47   A    
O5    V1    S    
O2    C4    A    
O6    V2    S    
C31   C61   S    
C17   C19   A    
C24   Br4   S    
C5    C21   A    
C27   C47   A    
C67   H45   S    
C32   C34   A    
C63   H32   S    
C9    C11   A    
C1    C28   S    
C34   C36   A    
C3    C8    S    
C39   C41   A    
C2    C27   S    
C10   C64   S    
O4    C2    A    
C61   H27   S    
C37   C45   A    
O13   C53   A    
C64   H36   S    
C15   C23   A    
C19   C57   S    
C9    C17   A    
H7    C43   S    
C21   H1    S    
C36   C40   A    
H8    C44   S    
C31   C33   A    
C44   C46   A    
O14   V4    S    
C7    C11   A    
C30   H12   S    
C60   H23   S    
O20   V4    S    
O6    C4    A    
C26   C68   S    
O1    V2    S    
C60   H24   S    
C37   C51   A    
O19   V4    S    
C23   Br3   S    
O2    V1    S    
C6    C22   A    
C16   C24   A    
O14   C54   A    
C57   H15   S    
C35   C37   A    
C29   C51   A    
C66   H40   S    
C5    C19   A    
C10   C12   A    
C68   H48   S    
C6    C20   A    
O3    C1    A    
C52   C55   S    
O3    V1    S    
C25   C49   A    
C62   H28   S    
C67   H43   S    
C63   H33   S    
O12   C56   A    
C10   C18   A    
C34   C60   S    
C22   H2    S    
C25   C67   S    
O16   C56   A    
H5    C49   S    
C28   C50   A    
C28   C48   A    
C63   H31   S    
O12   V3    S    
C59   H21   S    
C54   O17   A    
O15   V3    S    
C60   H22   S    
C14   C16   A    
C40   C48   A    
C65   H39   S    
C68   H47   S    
O7    V1    S    
C1    O8    A    
C9    C63   S    
C14   C66   S    
O8    V2    S    
C68   H46   S    
C18   C20   A    
C38   C52   A    
O20   V3    S    
C57   H14   S    
C8    C14   A    
C11   H3    S    
C4    C7    S    
C16   C18   A    
C12   H4    S    
C36   C38   A    
C22   C24   A    
C7    C13   A    
C51   C56   S    
O11   C55   A    
C59   H20   S    
C46   Br2   S    
O9    V2    S    
C66   H41   S    
C45   Br1   S    
O10   V1    S    
O18   V4    S    
O16   V4    S    
C65   H38   S    
C61   H25   S    
C62   H29   S    
C13   C15   A    
