data_mof_unit_12979.cif
_audit_creation_date              2012-12-10T17:32:59-0500
_audit_creation_method            fapswitch 2.2
_symmetry_space_group_name_H-M    P1
_symmetry_Int_Tables_number       1
_space_group_crystal_system       triclinic
_cell_length_a                    12.345998
_cell_length_b                    13.296778
_cell_length_c                    14.284421
_cell_angle_alpha                 93.120442
_cell_angle_beta                  107.589806
_cell_angle_gamma                 116.927352
_cell_volume                      1941.83268068

loop_
_atom_site_label
_atom_site_type_symbol
_atom_type_description
_atom_site_fract_x
_atom_site_fract_y
_atom_site_fract_z
_atom_type_partial_charge
C1    C     C_R   0.650464 0.713811 0.507871 0.780073
C2    C     C_R   0.867553 0.533830 0.927016 0.059811
C3    C     C_R   0.804288 0.530223 0.996534 0.139648
C4    C     C_R   0.989841 0.536188 0.958978 0.065588
C5    C     C_R   0.041291 0.522372 0.057477 0.065226
C6    C     C_R   0.979856 0.524436 0.125992 -0.301342
C7    C     C_R   0.865074 0.530925 0.097997 0.002804
C8    C     C_R   0.062808 0.552382 0.895695 -0.214100
C9    C     C_R   0.177205 0.546525 0.925287 -0.226380
C10   C     C_R   0.223552 0.524364 0.018758 0.156420
C11   C     C_R   0.155674 0.511051 0.085579 0.103009
C12   C     C_R   0.617964 0.516297 0.686467 0.797878
C13   C     C_R   0.338627 0.517143 0.046813 -0.185103
C14   C     C_R   0.389226 0.499651 0.141798 -0.183272
C15   C     C_R   0.204803 0.486465 0.178354 -0.230568
C16   C     C_R   0.151885 0.965972 0.375429 -0.180458
C17   C     C_R   0.251323 0.163188 0.466351 -0.048540
C18   C     C_R   0.723593 0.920180 0.565741 -0.180725
C19   C     C_R   0.811385 0.036849 0.582294 -0.140155
C20   C     C_R   0.915233 0.071703 0.549424 -0.165818
C21   C     C_R   0.930784 0.989594 0.495456 0.088005
C22   C     C_R   0.831856 0.871770 0.468017 0.064308
C23   C     C_R   0.345795 0.285605 0.485790 0.803785
C24   C     C_R   0.040549 0.020658 0.466865 0.081487
C25   C     C_R   0.044109 0.936572 0.404091 0.146107
C26   C     C_R   0.938780 0.824782 0.368424 -0.203682
C27   C     C_R   0.832780 0.793351 0.397760 -0.167692
C28   C     C_R   0.148037 0.132645 0.499900 -0.244678
C29   C     C_R   0.254808 0.079200 0.405817 -0.188341
C30   C     C_R   0.734270 0.836377 0.511004 -0.100967
C31   C     C_R   0.252920 0.685225 0.660016 -0.309148
C32   C     C_R   0.654842 0.341826 0.364920 -0.020542
C33   C     C_R   0.732132 0.305629 0.335342 -0.057910
C34   C     C_R   0.382139 0.484063 0.313547 0.799982
C35   C     C_R   0.868034 0.365492 0.386967 -0.216022
C36   C     C_R   0.927643 0.461740 0.467784 -0.058225
C37   C     C_R   0.843500 0.494500 0.495013 0.297610
C38   C     C_R   0.067193 0.526340 0.522868 -0.025153
C39   C     C_R   0.118300 0.620963 0.604070 0.182443
C40   C     C_R   0.035037 0.651254 0.629333 -0.301248
C41   C     C_R   0.901306 0.589746 0.576221 -0.188773
C42   C     C_R   0.159541 0.501997 0.501615 0.010824
C43   C     C_R   0.337754 0.656631 0.635516 0.064740
C44   C     C_R   0.682112 0.523857 0.793192 -0.043797
C45   C     C_R   0.323329 0.486305 0.208520 -0.065261
C46   C     C_R   0.679937 0.521989 0.961304 -0.143589
C47   C     C_R   0.621081 0.521119 0.861473 -0.223541
C48   C     C_R   0.803144 0.529000 0.825709 -0.245383
Cu1   Cu    Cu3+1 0.416420 0.526630 0.522910 0.937480
Cu2   Cu    Cu3+1 0.583580 0.473370 0.477090 0.931934
H1    H     H_    0.391204 0.527956 0.996192 0.135240
H2    H     H_    0.938711 0.761434 0.317561 0.184855
H3    H     H_    0.154811 0.902090 0.327275 0.139257
H4    H     H_    0.153901 0.198661 0.551487 0.146551
H5    H     H_    0.979661 0.163735 0.565615 0.129099
H6    H     H_    0.801207 0.100724 0.623625 0.146012
H7    H     H_    0.750704 0.707612 0.362108 0.201989
H8    H     H_    0.441611 0.706156 0.678545 0.125533
H9    H     H_    0.152981 0.466982 0.229311 0.149457
H10   H     H_    0.073743 0.723647 0.691449 0.154648
H11   H     H_    0.292385 0.757397 0.722472 0.143644
H12   H     H_    0.129526 0.432032 0.440955 0.124294
H13   H     H_    0.549998 0.296120 0.325501 0.122111
H14   H     H_    0.925079 0.335634 0.362564 0.177194
H15   H     H_    0.846908 0.620104 0.602288 0.205041
H16   H     H_    0.481192 0.499597 0.163896 0.189382
H17   H     H_    0.229707 0.559390 0.874372 0.147173
H18   H     H_    0.623517 0.511782 0.008288 0.187398
H19   H     H_    0.525404 0.514165 0.837021 0.153730
H20   H     H_    0.842786 0.524942 0.769103 0.151608
H21   H     H_    0.022859 0.526797 0.204461 0.135102
H22   H     H_    0.036733 0.573384 0.823477 0.149508
N1    N     N_R   0.290690 0.566960 0.557640 -0.178374
N2    N     N_R   0.709100 0.433710 0.442970 -0.198690
O1    O     O_R   0.545970 0.684450 0.528810 -0.577760
O2    O     O_R   0.687130 0.639470 0.490120 -0.607295
O3    O     O_R   0.519670 0.535100 0.660030 -0.584352
O4    O     O_R   0.660830 0.490120 0.621340 -0.600091
O5    O     O_R   0.312870 0.360530 0.509880 -0.587725
O6    O     O_R   0.454030 0.315550 0.471190 -0.585178
O7    O     O_R   0.339170 0.509880 0.378660 -0.584143
O8    O     O_R   0.480330 0.464900 0.339970 -0.586511
C49   C     C_2   0.814654 0.537957 0.179222 0.285718
H23   H     H_    0.841293 0.505021 0.245154 0.098744
O9    O     O_2   0.750599 0.586267 0.177330 -0.594408
H24   H     H_    0.334417 0.101802 0.379112 0.148849
H25   H     H_    0.648490 0.895537 0.597747 0.154730
C50   C     C_2   0.669016 0.205164 0.249845 0.355966
H26   H     H_    0.563744 0.160180 0.211029 0.056716
O10   O     O_2   0.733292 0.171369 0.221585 -0.533770

loop_
_geom_bond_atom_site_label_1
_geom_bond_atom_site_label_2
_ccdc_geom_bond_type
C19   H6    S    
C43   N1    A    
C7    C49   S    
C37   N2    A    
C40   H10   S    
C17   C29   A    
C31   H11   S    
C19   C20   A    
C4    C8    A    
C26   C27   A    
C17   C23   S    
C31   C43   A    
C36   C37   A    
C33   C50   S    
C5    C11   A    
C3    C7    A    
Cu2   N2    S    
C32   N2    A    
C5    C6    A    
C18   C19   A    
Cu1   O7    S    
C16   H3    S    
C47   H19   S    
C43   H8    S    
C13   H1    S    
C11   C15   A    
C35   C36   A    
Cu1   O3    S    
C8    C9    A    
C12   O4    A    
Cu1   O1    S    
C35   H14   S    
C18   C30   A    
C34   O7    A    
C23   O6    A    
C9    C10   A    
C42   H12   S    
C44   C47   A    
C21   C22   A    
C17   C28   A    
C20   H5    S    
Cu2   O4    S    
C14   C45   A    
C6    H21   S    
C8    H22   S    
C1    O1    A    
C24   C25   A    
C27   H7    S    
C39   C40   A    
C28   H4    S    
C41   H15   S    
C2    C48   A    
C16   C29   A    
Cu1   O5    S    
C2    C4    A    
C9    H17   S    
C46   H18   S    
C26   H2    S    
Cu2   O2    S    
C49   H23   S    
C12   O3    A    
C14   H16   S    
C34   C45   S    
C50   H26   S    
C29   H24   S    
C40   C41   A    
C49   O9    D    
C50   O10   D    
C22   C27   A    
Cu1   N1    S    
C15   C45   A    
Cu2   O8    S    
C16   C25   A    
C46   C47   A    
C42   N1    A    
C22   C30   A    
C1    O2    A    
C15   H9    S    
C24   C28   A    
C32   H13   S    
C48   H20   S    
C4    C5    A    
C10   C13   A    
Cu2   O6    S    
C38   C42   A    
C6    C7    A    
C3    C46   A    
C18   H25   S    
C32   C33   A    
C36   C38   A    
C2    C3    A    
C25   C26   A    
C12   C44   S    
C38   C39   A    
C1    C30   S    
C33   C35   A    
C31   C39   A    
C37   C41   A    
C10   C11   A    
C20   C21   A    
Cu1   Cu2   S    
C21   C24   A    
C34   O8    A    
C23   O5    A    
C13   C14   A    
C44   C48   A    
