data_mof_unit_40177.cif
_audit_creation_date              2012-12-11T15:15:44-0500
_audit_creation_method            fapswitch 2.2
_symmetry_space_group_name_H-M    P1
_symmetry_Int_Tables_number       1
_space_group_crystal_system       triclinic
_cell_length_a                    20.688231
_cell_length_b                    22.768623
_cell_length_c                    6.977391
_cell_angle_alpha                 90.00002
_cell_angle_beta                  86.681134
_cell_angle_gamma                 90.000837
_cell_volume                      3281.13558521

loop_
_atom_site_label
_atom_site_type_symbol
_atom_type_description
_atom_site_fract_x
_atom_site_fract_y
_atom_site_fract_z
_atom_type_partial_charge
O1    O     O_R   0.387100 0.552640 0.378490 -0.540531
O2    O     O_R   0.612900 0.052640 0.621510 -0.540471
O3    O     O_R   0.249610 0.559600 0.072250 -0.519261
O4    O     O_R   0.750390 0.059600 0.927750 -0.519513
O5    O     O_R   0.249120 0.447360 0.902040 -0.532169
O6    O     O_R   0.750880 0.947360 0.097960 -0.532045
C1    C     C_R   0.227343 0.573638 0.244958 0.916231
C2    C     C_R   0.772655 0.073645 0.755057 0.915838
O7    O     O_R   0.386610 0.559560 0.048860 -0.550258
O8    O     O_R   0.613390 0.059560 0.951140 -0.550516
O9    O     O_R   0.387100 0.447320 0.878470 -0.548844
O10   O     O_R   0.612900 0.947320 0.121530 -0.548890
C3    C     C_R   0.407932 0.574513 0.214154 0.902320
C4    C     C_R   0.592082 0.074527 0.785813 0.902228
O11   O     O_R   0.249120 0.552680 0.402050 -0.496112
O12   O     O_R   0.750880 0.052680 0.597950 -0.496052
O13   O     O_3   0.318110 0.463180 0.223790 -0.393720
O14   O     O_3   0.681890 0.963180 0.776210 -0.393531
V1    V     V_3+5 0.318110 0.506830 0.948930 1.572264
V2    V     V_3+5 0.681890 0.006830 0.051070 1.571312
O15   O     O_R   0.386610 0.440400 0.548840 -0.547017
O16   O     O_R   0.613390 0.940400 0.451160 -0.546863
C5    C     C_R   0.407631 0.425207 0.714149 0.678405
C6    C     C_R   0.592360 0.925211 0.285868 0.678449
O17   O     O_R   0.249610 0.440440 0.572240 -0.503838
O18   O     O_R   0.750390 0.940440 0.427760 -0.503835
C7    C     C_R   0.227298 0.426376 0.744602 0.811711
C8    C     C_R   0.772716 0.926390 0.255400 0.811830
V3    V     V_3+5 0.318110 0.493170 0.448930 1.612056
V4    V     V_3+5 0.681890 0.993170 0.551070 1.612004
O19   O     O_3   0.318110 0.536820 0.723940 -0.368292
O20   O     O_3   0.681890 0.036820 0.276060 -0.368549
C9    C     C_R   0.173142 0.383567 0.760756 -0.358003
C10   C     C_R   0.826919 0.883632 0.239269 -0.358095
C11   C     C_R   0.139535 0.369360 0.598136 0.577484
C12   C     C_R   0.860557 0.869493 0.401893 0.577387
C13   C     C_R   0.091420 0.326694 0.607665 -0.305669
C14   C     C_R   0.908718 0.826872 0.392421 -0.305571
C15   C     C_R   0.067950 0.304295 0.784846 -0.118311
C16   C     C_R   0.932171 0.804420 0.215291 -0.118156
C17   C     C_R   0.094445 0.325790 0.952485 0.389913
C18   C     C_R   0.905670 0.825886 0.047618 0.389802
C19   C     C_R   0.152780 0.357458 0.937636 0.310811
C20   C     C_R   0.847313 0.857523 0.062415 0.310902
C21   C     C_R   0.889663 0.196115 0.864554 -0.255415
C22   C     C_R   0.110405 0.696190 0.135901 -0.256358
C23   C     C_R   0.839109 0.155536 0.887808 0.422276
C24   C     C_R   0.160991 0.655636 0.112566 0.422727
C25   C     C_R   0.861587 0.123525 0.557390 0.502132
C26   C     C_R   0.138305 0.623358 0.442610 0.501967
C27   C     C_R   0.910319 0.165585 0.534399 0.570389
C28   C     C_R   0.089552 0.665393 0.465708 0.570202
C29   C     C_R   0.925467 0.201306 0.688539 -0.146123
C30   C     C_R   0.074486 0.701233 0.311775 -0.145792
C31   C     C_2   0.016464 0.258871 0.801813 -0.130137
C32   C     C_2   0.983636 0.758972 0.198373 -0.130254
C33   C     C_2   0.977474 0.245189 0.661212 -0.074284
C34   C     C_2   0.022455 0.745092 0.339207 -0.074513
C35   C     C_R   0.825303 0.117709 0.734376 -0.371549
C36   C     C_R   0.174683 0.617679 0.265731 -0.370824
H1    H     H_    0.983529 0.265344 0.521374 0.162849
H2    H     H_    0.016243 0.765053 0.479304 0.163046
H3    H     H_    0.899523 0.224691 0.983329 0.180376
H4    H     H_    0.100603 0.724857 0.017324 0.179614
H5    H     H_    0.009942 0.236059 0.938312 0.193950
H6    H     H_    0.990273 0.736281 0.061689 0.193921
H7    H     H_    0.071995 0.312705 0.476306 0.214412
H8    H     H_    0.928180 0.812962 0.523795 0.214251
C37   C     C_R   0.576880 0.363855 0.680236 0.485790
C38   C     C_R   0.423147 0.863795 0.320838 0.486577
H9    H     H_    0.533045 0.448446 0.645234 0.138368
H10   H     H_    0.466965 0.948355 0.356355 0.138823
C39   C     C_R   0.461500 0.382484 0.713130 -0.127780
C40   C     C_R   0.538493 0.882475 0.286988 -0.128050
C41   C     C_R   0.475286 0.094620 0.801958 0.488912
C42   C     C_R   0.524727 0.594635 0.196727 0.488899
C43   C     C_R   0.422122 0.130975 0.785845 -0.239648
C44   C     C_R   0.577919 0.631003 0.212165 -0.240268
C45   C     C_R   0.429566 0.191195 0.757466 0.565342
C46   C     C_R   0.570486 0.691209 0.240987 0.565665
C47   C     C_R   0.491919 0.217862 0.752946 -0.083595
C48   C     C_R   0.508108 0.717853 0.246525 -0.083447
C49   C     C_R   0.547082 0.179484 0.758624 -0.268362
C50   C     C_R   0.452942 0.679455 0.241395 -0.268799
C51   C     C_R   0.501765 0.280541 0.735384 -0.004949
C52   C     C_R   0.498249 0.780525 0.264472 -0.004634
C53   C     C_R   0.566189 0.302699 0.707625 -0.187302
C54   C     C_R   0.433832 0.802645 0.293050 -0.188456
C55   C     C_R   0.618874 0.263696 0.709055 0.534355
C56   C     C_R   0.381158 0.763609 0.292191 0.533540
C57   C     C_R   0.609643 0.203767 0.734849 0.490183
C58   C     C_R   0.390385 0.703707 0.265883 0.491242
C59   C     C_R   0.450330 0.322472 0.748421 -0.131013
C60   C     C_R   0.549653 0.822489 0.251108 -0.130859
C61   C     C_R   0.524442 0.402340 0.675081 -0.200838
C62   C     C_R   0.475575 0.902276 0.325957 -0.200977
C63   C     C_R   0.538039 0.117510 0.784501 -0.173937
C64   C     C_R   0.461977 0.617495 0.215261 -0.173783
H11   H     H_    0.401225 0.310726 0.790089 0.183153
H12   H     H_    0.598724 0.810789 0.208877 0.183232
H13   H     H_    0.374122 0.111907 0.790016 0.169261
H14   H     H_    0.625940 0.611953 0.207030 0.169550
F1    F     F_    0.152156 0.397681 0.430259 -0.638104
F2    F     F_    0.847903 0.897824 0.569741 -0.638166
F3    F     F_    0.944025 0.170391 0.362137 -0.654487
F4    F     F_    0.055754 0.670063 0.637862 -0.654358
F5    F     F_    0.680852 0.283207 0.687502 -0.685835
F6    F     F_    0.319183 0.783042 0.314942 -0.686885
O21   O     O_3   0.638678 0.386377 0.647721 -0.544894
C65   C     C_3   0.661290 0.408913 0.821134 0.136213
H15   H     H_    0.710528 0.390757 0.837221 0.168526
H16   H     H_    0.631516 0.395922 0.953336 0.108005
C66   C     C_3   0.666341 0.475919 0.810047 -0.325621
H17   H     H_    0.696465 0.488565 0.679464 0.207314
H18   H     H_    0.617410 0.495279 0.800078 0.218496
C67   C     C_3   0.696685 0.501112 0.986561 -0.762628
H19   H     H_    0.666494 0.490208 0.118631 0.267313
H20   H     H_    0.700050 0.549630 0.973367 0.233501
H21   H     H_    0.746201 0.483158 0.998876 0.219323
O22   O     O_3   0.361387 0.886358 0.353709 -0.545378
C68   C     C_3   0.337942 0.907216 0.179220 0.137583
H22   H     H_    0.287883 0.890222 0.169790 0.169192
H23   H     H_    0.366032 0.891571 0.047149 0.107019
C69   C     C_3   0.335299 0.974410 0.180392 -0.331177
H24   H     H_    0.306941 0.989627 0.311237 0.207446
H25   H     H_    0.385035 0.992563 0.182979 0.221929
C70   C     C_3   0.303943 0.997955 0.003214 -0.756352
H26   H     H_    0.332652 0.984763 0.870691 0.265683
H27   H     H_    0.301972 0.046646 0.009801 0.233860
H28   H     H_    0.253784 0.980904 0.997372 0.217787
F7    F     F_    0.465512 0.036023 0.826434 -0.707636
F8    F     F_    0.534484 0.536058 0.171689 -0.707939
F9    F     F_    0.375071 0.220905 0.719760 -0.729127
F10   F     F_    0.625044 0.720922 0.277979 -0.729271
F11   F     F_    0.663415 0.169617 0.731395 -0.733830
F12   F     F_    0.336604 0.669558 0.269443 -0.733089
O23   O     O_3   0.803698 0.153136 0.062102 -0.512163
C71   C     C_3   0.755194 0.197199 0.069133 0.140344
H29   H     H_    0.707556 0.175410 0.098081 0.161451
H30   H     H_    0.751948 0.222566 0.932772 0.172075
C72   C     C_3   0.766351 0.239983 0.232942 -0.321490
H31   H     H_    0.763447 0.215954 0.371927 0.247138
H32   H     H_    0.815395 0.259644 0.212250 0.186789
C73   C     C_3   0.716156 0.289221 0.239837 -0.713789
H33   H     H_    0.717626 0.313160 0.101017 0.212923
H34   H     H_    0.726906 0.320941 0.354491 0.286242
H35   H     H_    0.666811 0.270998 0.270317 0.235373
O24   O     O_3   0.196552 0.653357 0.938489 -0.512505
C74   C     C_3   0.244526 0.697901 0.931147 0.140100
H36   H     H_    0.292434 0.676557 0.902701 0.161184
H37   H     H_    0.247422 0.723457 0.067275 0.170707
C75   C     C_3   0.232960 0.740330 0.766653 -0.322009
H38   H     H_    0.236654 0.716193 0.627900 0.247513
H39   H     H_    0.183528 0.759241 0.786050 0.187002
C76   C     C_3   0.282192 0.790358 0.760380 -0.713139
H40   H     H_    0.279760 0.814525 0.898815 0.210710
H41   H     H_    0.271228 0.821685 0.644808 0.285771
H42   H     H_    0.331956 0.772890 0.731678 0.236417
F13   F     F_    0.850885 0.087999 0.406097 -0.606983
F14   F     F_    0.148942 0.587728 0.593698 -0.607223
O25   O     O_3   0.064316 0.315933 0.131865 -0.557665
C77   C     C_3   0.005570 0.348577 0.150752 0.044278
H43   H     H_    0.973288 0.327033 0.261954 0.133232
H44   H     H_    0.977970 0.348667 0.018364 0.121878
C78   C     C_3   0.017385 0.412057 0.213803 -0.252661
H45   H     H_    0.036742 0.412214 0.358489 0.244670
H46   H     H_    0.053112 0.433632 0.111713 0.220309
C79   C     C_3   0.954770 0.447628 0.222252 -0.826531
H47   H     H_    0.934812 0.449786 0.077993 0.236671
H48   H     H_    0.964692 0.493042 0.270625 0.255364
H49   H     H_    0.918342 0.427376 0.325252 0.230324
O26   O     O_3   0.935787 0.816006 0.868236 -0.557783
C80   C     C_3   0.994549 0.848628 0.849269 0.044088
H50   H     H_    0.026721 0.827177 0.737591 0.133028
H51   H     H_    0.022261 0.848549 0.981430 0.121760
C81   C     C_3   0.982741 0.912189 0.787033 -0.252919
H52   H     H_    0.963080 0.912515 0.642758 0.245227
H53   H     H_    0.947262 0.933740 0.889933 0.219631
C82   C     C_3   0.045441 0.947642 0.777791 -0.826636
H54   H     H_    0.065744 0.949574 0.921607 0.236454
H55   H     H_    0.035507 0.993137 0.730249 0.255325
H56   H     H_    0.081597 0.927449 0.673823 0.230264
O27   O     O_3   0.186908 0.365685 0.099450 -0.498014
C83   C     C_3   0.240201 0.326505 0.096787 0.193315
H57   H     H_    0.278402 0.347423 0.179071 0.143065
H58   H     H_    0.262496 0.318238 0.949624 0.060182
C84   C     C_3   0.220873 0.268343 0.194754 -0.311529
H59   H     H_    0.198783 0.277229 0.340747 0.228249
H60   H     H_    0.184590 0.245378 0.110454 0.203878
C85   C     C_3   0.279450 0.228297 0.211503 -0.786666
H61   H     H_    0.301825 0.218007 0.066875 0.262953
H62   H     H_    0.263929 0.186564 0.282493 0.245204
H63   H     H_    0.315984 0.249712 0.298931 0.251806
O28   O     O_3   0.813187 0.865717 0.900578 -0.498016
C86   C     C_3   0.759976 0.826446 0.903118 0.193115
H64   H     H_    0.721733 0.847318 0.820882 0.143031
H65   H     H_    0.737694 0.818109 0.050255 0.060635
C87   C     C_3   0.779430 0.768338 0.804991 -0.311103
H66   H     H_    0.801501 0.777297 0.659024 0.228205
H67   H     H_    0.815762 0.745418 0.889224 0.203994
C88   C     C_3   0.720945 0.728187 0.788118 -0.787362
H68   H     H_    0.698611 0.717801 0.932715 0.263469
H69   H     H_    0.736558 0.686508 0.716946 0.244921
H70   H     H_    0.684351 0.749562 0.700813 0.251617

loop_
_geom_bond_atom_site_label_1
_geom_bond_atom_site_label_2
_ccdc_geom_bond_type
C34   H2    S    
V4    O20   S    
C85   H61   S    
C86   H65   S    
C17   O25   S    
C76   H41   S    
O13   V3    S    
C88   H68   S    
C40   C60   A    
C43   H13   S    
C39   C59   A    
O4    C2    A    
V1    O19   S    
O25   C77   S    
C15   C17   A    
C80   H50   S    
C83   H57   S    
O9    V1    S    
C78   H45   S    
O10   V2    S    
C11   C13   A    
C42   C44   A    
C77   H43   S    
O3    C1    A    
C74   H37   S    
C2    C35   S    
C30   C34   S    
C83   H58   S    
C44   C46   A    
H9    C61   S    
C14   H8    S    
C42   C64   A    
C24   O24   S    
C41   C63   A    
C46   F10   S    
C67   H19   S    
C21   C23   A    
C19   O27   S    
C3    C64   S    
O7    C3    A    
C65   H15   S    
C84   C85   S    
C52   C60   A    
C85   H63   S    
C47   C49   A    
O5    C7    A    
C37   O21   S    
O7    V1    S    
C81   C82   S    
C15   C31   S    
O8    V2    S    
C16   C32   S    
C26   C28   A    
O3    V1    S    
C87   H66   S    
O14   V4    S    
C55   C57   A    
C59   H11   S    
C10   C12   A    
C37   C53   A    
C66   C67   S    
C79   H48   S    
O28   C86   S    
C28   F4    S    
C2    O12   A    
C76   H42   S    
C88   H69   S    
C23   O23   S    
C78   H46   S    
C58   F12   S    
C24   C36   A    
C18   C20   A    
C5    C39   S    
C73   H35   S    
O18   C8    A    
C31   H5    S    
C28   C30   A    
O11   V3    S    
C77   H44   S    
C43   C45   A    
O15   C5    A    
O17   V3    S    
C45   F9    S    
C22   C24   A    
C23   C35   A    
C84   H60   S    
C51   C53   A    
C9    C19   A    
C40   C62   A    
C10   C20   A    
O24   C74   S    
C73   H34   S    
O8    C4    A    
C72   C73   S    
C38   O22   S    
C45   C47   A    
C29   C33   S    
C73   H33   S    
C1    O11   A    
C25   C27   A    
C48   C52   A    
O15   V3    S    
C72   H31   S    
C21   H3    S    
C7    C9    S    
C86   H64   S    
C22   H4    S    
C27   C29   A    
H10   C62   S    
C38   C62   A    
O27   C83   S    
C70   H27   S    
C77   C78   S    
C56   C58   A    
C51   C59   A    
C75   C76   S    
C60   H12   S    
C27   F3    S    
C22   C30   A    
C87   C88   S    
O1    V3    S    
C50   C58   A    
C41   C43   A    
C65   C66   S    
C68   H22   S    
C80   H51   S    
C71   H30   S    
C67   H20   S    
C69   C70   S    
C46   C48   A    
C79   H47   S    
C54   C56   A    
O18   V4    S    
C78   C79   S    
C48   C50   A    
C31   C33   D    
C55   F5    S    
C88   H70   S    
O16   C6    A    
C74   C75   S    
O1    C3    A    
C39   C61   A    
O13   V1    S    
C70   H26   S    
C1    C36   S    
C49   C57   A    
O26   C80   S    
C4    C63   S    
C69   H25   S    
C66   H17   S    
V2    O20   S    
C80   C81   S    
C81   H52   S    
C85   H62   S    
O16   V4    S    
C20   O28   S    
C17   C19   A    
C18   O26   S    
C81   H53   S    
C75   H39   S    
C16   C18   A    
C37   C61   A    
C71   C72   S    
C83   C84   S    
C33   H1    S    
O5    V1    S    
O17   C7    A    
O6    V2    S    
O23   C71   S    
O10   C6    A    
C11   F1    S    
C25   C35   A    
C67   H21   S    
C12   F2    S    
O2    V4    S    
C50   C64   A    
C82   H56   S    
C72   H32   S    
C70   H28   S    
C26   C36   A    
C84   H59   S    
V3    O19   S    
C74   H36   S    
C12   C14   A    
C14   C16   A    
C42   F8    S    
C6    C40   S    
C66   H18   S    
C32   H6    S    
C21   C29   A    
C13   H7    S    
C52   C54   A    
O9    C5    A    
C9    C11   A    
C32   C34   D    
O14   V2    S    
C8    C10   S    
O2    C4    A    
C65   H16   S    
C68   H23   S    
C26   F14   S    
C71   H29   S    
C56   F6    S    
C82   H54   S    
O4    V2    S    
C86   C87   S    
O6    C8    A    
C57   F11   S    
C75   H38   S    
C41   F7    S    
C13   C15   A    
C49   C63   A    
C76   H40   S    
C68   C69   S    
C53   C55   A    
O22   C68   S    
C25   F13   S    
C87   H67   S    
C44   H14   S    
C79   H49   S    
C38   C54   A    
O21   C65   S    
O12   V4    S    
C47   C51   A    
C69   H24   S    
C82   H55   S    
