data_mof_unit_15696.cif
_audit_creation_date              2012-12-10T21:12:22-0500
_audit_creation_method            fapswitch 2.2
_symmetry_space_group_name_H-M    P1
_symmetry_Int_Tables_number       1
_space_group_crystal_system       triclinic
_cell_length_a                    13.139798
_cell_length_b                    16.878552
_cell_length_c                    17.559084
_cell_angle_alpha                 89.887368
_cell_angle_beta                  92.491483
_cell_angle_gamma                 69.785519
_cell_volume                      3650.3486433

loop_
_atom_site_label
_atom_site_type_symbol
_atom_type_description
_atom_site_fract_x
_atom_site_fract_y
_atom_site_fract_z
_atom_type_partial_charge
C1    C     C_R   0.499931 0.499833 0.646512 0.891595
C2    C     C_R   0.821578 0.422796 0.491061 -0.085423
C3    C     C_R   0.472306 0.439762 0.151245 0.428772
C4    C     C_R   0.704077 0.453337 0.496168 0.884491
C5    C     C_R   0.466784 0.442413 0.229973 -0.217809
C6    C     C_R   0.505407 0.497937 0.271352 -0.115108
C7    C     C_R   0.551351 0.549801 0.234066 -0.092974
C8    C     C_R   0.557095 0.547331 0.155492 -0.174194
C9    C     C_R   0.517328 0.492719 0.114432 0.023625
C10   C     C_1   0.519831 0.493623 0.034279 0.060133
C11   C     C_1   0.519128 0.494716 0.966691 0.001149
C12   C     C_R   0.983558 0.459986 0.487155 0.121375
C13   C     C_R   0.556668 0.420428 0.847835 -0.115270
C14   C     C_R   0.550412 0.421503 0.768823 -0.185350
C15   C     C_R   0.503081 0.498472 0.728929 -0.041757
C16   C     C_R   0.500655 0.499802 0.353498 0.914925
C17   C     C_R   0.460451 0.574046 0.768277 -0.106861
C18   C     C_R   0.466821 0.572841 0.847293 -0.123196
C19   C     C_R   0.515306 0.496115 0.886475 0.121966
C20   C     C_R   0.573346 0.148687 0.547402 -0.205476
C21   C     C_R   0.571431 0.232814 0.547153 0.015477
C22   C     C_R   0.429099 0.271415 0.452196 0.027229
C23   C     C_R   0.873475 0.478170 0.466705 0.030457
C24   C     C_R   0.428355 0.188043 0.450761 -0.234444
C25   C     C_R   0.501221 0.125285 0.498715 0.119328
C26   C     C_1   0.501820 0.037885 0.498068 0.034524
C27   C     C_1   0.502153 0.965157 0.497808 0.258162
C28   C     C_R   0.295378 0.546709 0.500968 0.921161
C29   C     C_R   0.541949 0.824309 0.561666 0.272979
C30   C     C_R   0.552291 0.737106 0.559001 0.371926
C31   C     C_R   0.449413 0.764443 0.440084 0.362913
C32   C     C_R   0.462104 0.845116 0.435493 0.284289
C33   C     C_R   0.502328 0.877335 0.498196 -0.192443
C34   C     C_R   0.026219 0.525987 0.480791 0.001747
C35   C     C_R   0.002112 0.674175 0.453230 0.405269
C36   C     C_R   0.177499 0.575166 0.495480 -0.124019
C37   C     C_R   0.883059 0.342251 0.520048 -0.165102
C38   C     C_R   0.995083 0.318606 0.528795 -0.117757
C39   C     C_R   0.045268 0.377080 0.514253 -0.158366
C40   C     C_R   0.962401 0.605693 0.446875 -0.091026
C41   C     C_R   0.864231 0.611548 0.407037 0.440186
C42   C     C_R   0.818817 0.549774 0.420317 -0.242015
C43   C     C_R   0.130633 0.514878 0.508769 -0.215808
C44   C     C_R   0.112474 0.656558 0.471947 -0.214834
Cl1   Cl    Cl    0.578467 0.869805 0.645028 -0.452109
Cl2   Cl    Cl    0.427842 0.908097 0.350674 -0.422399
Cl3   Cl    Cl    0.421458 0.370407 0.100441 -0.555131
H1    H     H_    0.146391 0.706573 0.470620 0.212076
H2    H     H_    0.627479 0.250119 0.584744 0.124607
H3    H     H_    0.372828 0.319135 0.414815 0.138140
H4    H     H_    0.371313 0.172770 0.412365 0.172295
H5    H     H_    0.179774 0.457753 0.538534 0.161354
H6    H     H_    0.844375 0.298445 0.537695 0.160593
H7    H     H_    0.132262 0.354745 0.523472 0.130625
H8    H     H_    0.042842 0.255923 0.550097 0.159718
H9    H     H_    0.742682 0.555423 0.390476 0.184377
H10   H     H_    0.728101 0.668561 0.219545 0.395619
H11   H     H_    0.780309 0.682438 0.697826 0.393135
H12   H     H_    0.431440 0.401910 0.258630 0.189108
H13   H     H_    0.218044 0.829709 0.303200 0.395176
H14   H     H_    0.977997 0.829090 0.366043 0.361989
H15   H     H_    0.583654 0.591359 0.265799 0.217587
H16   H     H_    0.592046 0.588075 0.126775 0.177489
H17   H     H_    0.593450 0.360957 0.878706 0.163811
H18   H     H_    0.583756 0.362664 0.738989 0.159163
H19   H     H_    0.421466 0.633551 0.737984 0.183115
H20   H     H_    0.433581 0.631293 0.877751 0.160928
H21   H     H_    0.630848 0.102293 0.585334 0.177681
N1    N     N_R   0.499970 0.292770 0.499970 -0.094095
N2    N     N_R   0.499980 0.707230 0.499990 -0.251021
O1    O     O_R   0.500000 0.433430 0.610870 -0.635998
O2    O     O_2   0.899796 0.701970 0.290998 -0.247268
O3    O     O_3   0.762455 0.626454 0.260792 -0.591223
O4    O     O_2   0.576563 0.693402 0.707084 -0.290831
O5    O     O_2   0.683428 0.580739 0.626545 -0.283384
O6    O     O_3   0.746990 0.705193 0.647093 -0.464606
O7    O     O_2   0.422582 0.728137 0.293890 -0.267070
O8    O     O_2   0.314489 0.680516 0.380482 -0.302989
O9    O     O_3   0.255081 0.837904 0.351331 -0.502548
O10   O     O_2   0.805648 0.785027 0.484650 -0.202758
O11   O     O_2   0.963516 0.823601 0.520010 -0.275836
O12   O     O_R   0.500010 0.566520 0.610900 -0.557370
O13   O     O_3   0.903031 0.833566 0.377401 -0.429327
O14   O     O_R   0.653610 0.400420 0.499960 -0.627903
O15   O     O_R   0.653620 0.533500 0.499990 -0.567624
O16   O     O_R   0.499990 0.433480 0.389100 -0.629160
O17   O     O_R   0.500000 0.566570 0.389130 -0.561667
O18   O     O_R   0.346380 0.466500 0.500010 -0.635165
O19   O     O_R   0.346390 0.599580 0.500040 -0.569274
O20   O     O_2   0.720956 0.756487 0.347594 -0.201473
S1    S     S_3+6 0.811643 0.678377 0.325980 0.081470
S2    S     S_3+6 0.638505 0.674276 0.635463 0.103626
S3    S     S_3+6 0.361409 0.747648 0.365805 0.091391
S4    S     S_3+6 0.915705 0.780903 0.460611 0.114442
Zn1   Zn    Zn3+2 0.500000 0.411140 0.499980 0.956774
Zn2   Zn    Zn3+2 0.500000 0.588860 0.500020 1.077499

loop_
_geom_bond_atom_site_label_1
_geom_bond_atom_site_label_2
_ccdc_geom_bond_type
H13   O9    S    
C41   C42   A    
N2    Zn2   S    
C21   H2    S    
H11   O6    S    
C7    C8    A    
C27   C33   S    
C12   C23   A    
C11   C19   S    
C26   C27   T    
C29   C30   A    
C23   C42   A    
C34   C40   A    
O9    S3    S    
C5    C6    A    
O15   Zn2   S    
C43   H5    S    
C39   H7    S    
O1    Zn1   S    
C20   C25   A    
O8    S3    D    
H10   O3    S    
C29   C33   A    
C18   C19   A    
O4    S2    D    
C42   H9    S    
C31   N2    A    
C38   H8    S    
C8    C9    A    
C28   O18   A    
C16   O17   A    
C28   O19   A    
C1    C15   S    
C3    Cl3   S    
C9    C10   S    
C22   N1    A    
C22   H3    S    
C37   H6    S    
C24   H4    S    
O18   Zn1   S    
C13   C14   A    
C16   O16   A    
C30   N2    A    
O12   Zn2   S    
C5    H12   S    
C24   C25   A    
O3    S1    S    
C30   S2    S    
H14   O13   S    
O2    S1    D    
C13   C19   A    
C4    O15   A    
N1    Zn1   S    
C25   C26   S    
C31   S3    S    
O13   S4    S    
C21   N1    A    
O14   Zn1   S    
C2    C4    S    
C7    H15   S    
C37   C38   A    
C3    C9    A    
C31   C32   A    
C4    O14   A    
O17   Zn2   S    
C17   C18   A    
C17   H19   S    
C1    O1    A    
C35   C44   A    
O5    S2    D    
O6    S2    S    
C40   C41   A    
C41   S1    S    
C10   C11   T    
C22   C24   A    
C36   C44   A    
O10   S4    D    
C35   S4    S    
C15   C17   A    
C32   Cl2   S    
C20   H21   S    
C34   C43   A    
C3    C5    A    
C6    C7    A    
C32   C33   A    
C12   C39   A    
C35   C40   A    
C18   H20   S    
O11   S4    D    
C1    O12   A    
C2    C37   A    
O20   S1    D    
C38   C39   A    
C13   H17   S    
O19   Zn2   S    
O7    S3    D    
C14   H18   S    
O16   Zn1   S    
C8    H16   S    
C6    C16   S    
C20   C21   A    
C28   C36   S    
C29   Cl1   S    
C2    C23   A    
C14   C15   A    
C36   C43   A    
C12   C34   A    
C44   H1    S    
