data_mof_unit_41855.cif
_audit_creation_date              2012-12-11T14:50:39-0500
_audit_creation_method            fapswitch 2.2
_symmetry_space_group_name_H-M    P1
_symmetry_Int_Tables_number       1
_space_group_crystal_system       triclinic
_cell_length_a                    10.912102
_cell_length_b                    10.881903
_cell_length_c                    18.831665
_cell_angle_alpha                 90.286568
_cell_angle_beta                  89.735847
_cell_angle_gamma                 60.054342
_cell_volume                      1937.53756383

loop_
_atom_site_label
_atom_site_type_symbol
_atom_type_description
_atom_site_fract_x
_atom_site_fract_y
_atom_site_fract_z
_atom_type_partial_charge
C1    C     C_R   0.236021 0.647045 0.609737 0.574876
C2    C     C_3   0.670297 0.551268 0.800420 -0.221476
C3    C     C_3   0.699257 0.674442 0.812071 -0.036238
C4    C     C_3   0.668895 0.648046 0.676611 0.083038
C5    C     C_3   0.815449 0.632736 0.689851 -0.290221
C6    C     C_3   0.656407 0.532740 0.720445 0.175180
C7    C     C_R   0.787750 0.147044 0.709488 0.288696
C8    C     C_R   0.804007 0.129595 0.783048 -0.139764
C9    C     C_R   0.685804 0.164105 0.826353 -0.097713
C10   C     C_R   0.552019 0.221419 0.796176 -0.094764
C11   C     C_R   0.537476 0.226926 0.723863 0.388505
C12   C     C_R   0.653356 0.622335 0.601210 0.601043
C13   C     C_R   0.654123 0.193276 0.679216 0.088944
C14   C     C_R   0.180816 0.559746 0.720470 -0.088100
C15   C     C_R   0.173149 0.562881 0.794382 -0.125416
C16   C     C_R   0.171965 0.674840 0.832411 0.017340
C17   C     C_R   0.187047 0.778380 0.795944 -0.125960
C18   C     C_R   0.193825 0.775586 0.722870 -0.068496
C19   C     C_R   0.193190 0.665100 0.684324 0.060351
C20   C     C_R   0.800681 0.593645 0.292463 -0.170562
C21   C     C_R   0.820112 0.610778 0.221539 -0.145434
C22   C     C_R   0.708409 0.712052 0.181203 -0.019889
C23   C     C_R   0.625705 0.232229 0.604391 0.630146
C24   C     C_R   0.578499 0.803123 0.213950 -0.095575
C25   C     C_R   0.556898 0.786225 0.285495 0.218832
C26   C     C_R   0.667502 0.675273 0.324583 0.030266
C27   C     C_R   0.554569 0.144913 0.288817 -0.128638
C28   C     C_R   0.551899 0.138622 0.216147 -0.135715
C29   C     C_R   0.646547 0.161209 0.175471 0.024825
C30   C     C_R   0.736941 0.200321 0.207880 -0.094605
C31   C     C_R   0.737708 0.209692 0.281082 -0.107703
C32   C     C_R   0.645838 0.182437 0.321761 0.019363
C33   C     C_R   0.100469 0.803141 0.304818 -0.067968
C34   C     C_R   0.217655 0.650361 0.403016 0.544502
C35   C     C_R   0.098188 0.813122 0.232496 0.250408
C36   C     C_R   0.119191 0.694912 0.190002 0.030794
C37   C     C_R   0.150919 0.567264 0.222343 -0.191172
C38   C     C_R   0.166587 0.555234 0.295376 -0.148809
C39   C     C_R   0.147510 0.672332 0.335955 -0.016238
C40   C     C_R   0.701523 0.104131 0.896838 0.544504
C41   C     C_R   0.723890 0.688231 0.887923 0.553768
C42   C     C_R   0.117363 0.706711 0.905030 0.539239
C43   C     C_R   0.673437 0.108816 0.103574 0.538969
C44   C     C_R   0.732322 0.718621 0.105344 0.566652
C45   C     C_R   0.643634 0.625985 0.393020 0.559493
C46   C     C_R   0.086610 0.714180 0.114971 0.554757
C47   C     C_R   0.617356 0.229685 0.394583 0.543673
C48   C     C_3   0.572219 0.813352 0.782671 -0.177001
C49   C     C_3   0.552760 0.797065 0.702953 0.257361
C50   C     C_3   0.834435 0.644622 0.769802 -0.261517
Cr1   Cr    Cr6+3 0.392930 0.397900 0.502230 1.097962
Cr2   Cr    Cr6+3 0.398240 0.708600 0.501260 1.138478
Cr3   Cr    Cr6+3 0.708800 0.393470 0.496460 1.083241
Cr4   Cr    Cr6+3 0.937620 0.938540 0.007640 1.065000
Cr5   Cr    Cr6+3 0.625150 0.937450 0.994520 1.027001
Cr6   Cr    Cr6+3 0.937990 0.625080 0.001190 1.019668
H1    H     H_    0.590860 0.904129 0.790887 0.190974
H2    H     H_    0.742368 0.425475 0.704211 0.176471
H3    H     H_    0.925867 0.543152 0.787715 0.146372
H4    H     H_    0.901394 0.528306 0.669991 0.132171
H5    H     H_    0.908912 0.082812 0.805475 0.160213
H6    H     H_    0.459067 0.248877 0.828392 0.162478
H7    H     H_    0.177282 0.475405 0.691623 0.190744
H8    H     H_    0.160772 0.482127 0.821430 0.135856
H9    H     H_    0.185733 0.866718 0.823451 0.133023
H10   H     H_    0.473340 0.838436 0.811867 0.096377
H11   H     H_    0.203330 0.858971 0.696844 0.171206
H12   H     H_    0.888528 0.509842 0.320891 0.152354
H13   H     H_    0.921521 0.539970 0.197279 0.152324
H14   H     H_    0.491964 0.883504 0.183448 0.174647
H15   H     H_    0.480652 0.126427 0.319027 0.186331
H16   H     H_    0.480192 0.109124 0.192218 0.154457
H17   H     H_    0.809293 0.219513 0.176711 0.178203
H18   H     H_    0.806096 0.243254 0.305407 0.163077
H19   H     H_    0.084587 0.893843 0.336283 0.191505
H20   H     H_    0.446179 0.809927 0.694934 0.177078
H21   H     H_    0.167542 0.476263 0.191093 0.137182
H22   H     H_    0.203140 0.452377 0.319169 0.157339
H23   H     H_    0.859432 0.730702 0.779753 0.142998
H24   H     H_    0.825528 0.716292 0.660985 0.177951
H25   H     H_    0.758069 0.451074 0.822204 0.115435
H26   H     H_    0.571596 0.573585 0.828940 0.166109
O1    O     O_R   0.507430 0.255570 0.581420 -0.425258
O2    O     O_R   0.524460 0.695920 0.424060 -0.439025
O3    O     O_R   0.736530 0.504260 0.414810 -0.538965
O4    O     O_R   0.691460 0.277160 0.422180 -0.511419
O5    O     O_3   0.499990 0.499990 0.499980 -0.280832
O6    O     O_R   0.089490 0.825610 0.930610 -0.519666
O7    O     O_R   0.818370 0.054540 0.929880 -0.499441
O8    O     O_R   0.605870 0.077310 0.915530 -0.525139
O9    O     O_R   0.646440 0.806700 0.917570 -0.502143
O10   O     O_R   0.837200 0.593290 0.915250 -0.514968
O11   O     O_R   0.065330 0.635370 0.931590 -0.508999
O12   O     O_R   0.280190 0.527390 0.578910 -0.483293
O13   O     O_R   0.068300 0.828790 0.091860 -0.441561
O14   O     O_R   0.798730 0.057480 0.079370 -0.482096
O15   O     O_R   0.584680 0.080480 0.076790 -0.534227
O16   O     O_R   0.626790 0.809640 0.067050 -0.495430
O17   O     O_R   0.816010 0.596460 0.076500 -0.506494
O18   O     O_R   0.045680 0.638310 0.081070 -0.535991
O19   O     O_3   0.833590 0.833690 0.001120 -0.282444
O20   O     O_R   0.260310 0.739740 0.584580 -0.506028
O21   O     O_R   0.532250 0.695150 0.573830 -0.458002
O22   O     O_R   0.744930 0.503430 0.576380 -0.528447
O23   O     O_R   0.699250 0.276390 0.571950 -0.459394
O24   O     O_R   0.499020 0.256400 0.419850 -0.517078
O25   O     O_R   0.272400 0.528160 0.429140 -0.517617
O26   O     O_R   0.251910 0.740570 0.423020 -0.478344
F1    F     F_    0.902278 0.114772 0.668122 -0.635553
F2    F     F_    0.407810 0.263908 0.698288 -0.610797
Cl1   Cl    Cl    0.387555 0.902714 0.320951 -0.572583
Cl2   Cl    Cl    0.082832 0.973838 0.201585 -0.577342
F3    F     F_    0.559304 0.902708 0.665076 -0.628203
F4    F     F_    0.528487 0.538814 0.707455 -0.673995

loop_
_geom_bond_atom_site_label_1
_geom_bond_atom_site_label_2
_ccdc_geom_bond_type
C49   F3    S    
Cr2   O21   S    
Cr1   O1    S    
C42   O11   A    
C6    H2    S    
Cr4   O19   S    
C35   C36   A    
C50   H23   S    
C24   H14   S    
C7    C8    A    
C28   H16   S    
Cr2   O20   S    
C33   C39   A    
C23   O1    A    
C50   H3    S    
C36   C37   A    
Cr6   O19   S    
C12   O22   A    
Cr5   O8    S    
C3    C41   S    
C38   C39   A    
C44   O17   A    
Cr3   O22   S    
C15   C16   A    
C23   O23   A    
C3    C48   S    
C13   C23   S    
C18   C19   A    
Cr2   O2    S    
C6    F4    S    
Cr5   O9    S    
C26   C45   S    
C44   O16   A    
C33   H19   S    
C22   C44   S    
C46   O13   A    
C8    C9    A    
C15   H8    S    
C36   C46   S    
Cr3   O4    S    
C40   O7    A    
C4    C12   S    
C29   C30   A    
C9    C10   A    
Cr4   O14   S    
C8    H5    S    
C21   C22   A    
C29   C43   S    
C11   F2    S    
C2    C6    S    
C40   O8    A    
C3    C50   S    
C43   O14   A    
Cr6   O11   S    
C1    C19   S    
C34   C39   S    
C47   O4    A    
C48   H1    S    
C24   C25   A    
Cr4   O7    S    
C4    C6    S    
Cr1   O5    S    
C30   H17   S    
C16   C17   A    
C31   H18   S    
C38   H22   S    
C18   H11   S    
C37   H21   S    
C9    C40   S    
C7    F1    S    
C21   H13   S    
C45   O3    A    
C37   C38   A    
C31   C32   A    
C7    C13   A    
C47   O24   A    
Cr5   O15   S    
C17   C18   A    
C49   H20   S    
Cr3   O5    S    
C5    H24   S    
Cr4   O13   S    
C12   O21   A    
C48   C49   S    
C41   O9    A    
C32   C47   S    
C22   C24   A    
C5    C50   S    
C10   H6    S    
C45   O2    A    
C42   O6    A    
C34   O25   A    
C16   C42   S    
C27   H15   S    
C46   O18   A    
C28   C29   A    
C5    H4    S    
C27   C32   A    
C14   C19   A    
C20   H12   S    
Cr2   O5    S    
C43   O15   A    
C4    C5    S    
C1    O12   A    
Cr5   O19   S    
C17   H9    S    
C4    C49   S    
C34   O26   A    
C2    C3    S    
C25   C26   A    
Cr4   O6    S    
C11   C13   A    
C30   C31   A    
C20   C26   A    
Cr1   O24   S    
C14   H7    S    
Cr5   O16   S    
C33   C35   A    
C2    H26   S    
C10   C11   A    
C25   Cl1   S    
Cr1   O12   S    
Cr3   O23   S    
Cr6   O10   S    
C41   O10   A    
C20   C21   A    
Cr2   O26   S    
Cr1   O25   S    
C27   C28   A    
Cr6   O18   S    
C14   C15   A    
C2    H25   S    
Cr3   O3    S    
Cr6   O17   S    
C48   H10   S    
C1    O20   A    
C35   Cl2   S    
