data_mof_unit_9624.cif
_audit_creation_date              2012-12-10T17:03:43-0500
_audit_creation_method            fapswitch 2.2
_symmetry_space_group_name_H-M    P1
_symmetry_Int_Tables_number       1
_space_group_crystal_system       triclinic
_cell_length_a                    10.076934
_cell_length_b                    10.720796
_cell_length_c                    13.135755
_cell_angle_alpha                 90.893499
_cell_angle_beta                  69.439165
_cell_angle_gamma                 89.800173
_cell_volume                      1328.47292101

loop_
_atom_site_label
_atom_site_type_symbol
_atom_type_description
_atom_site_fract_x
_atom_site_fract_y
_atom_site_fract_z
_atom_type_partial_charge
C1    C     C_R   0.500027 0.737247 0.500094 0.924299
C2    C     C_R   0.430804 0.485406 0.984978 0.031720
C3    C     C_R   0.456227 0.445703 0.877006 0.088618
C4    C     C_R   0.538615 0.465196 0.029080 0.123886
C5    C     C_R   0.659955 0.391630 0.971064 0.155518
C6    C     C_R   0.672396 0.338218 0.870862 -0.229224
C7    C     C_R   0.571245 0.364007 0.824652 -0.158898
C8    C     C_R   0.530171 0.517625 0.128861 -0.256212
C9    C     C_R   0.748773 0.415976 0.119067 -0.059943
C10   C     C_R   0.368093 0.491534 0.822855 -0.187139
C11   C     C_2   0.592654 0.067041 0.534242 -0.105150
C12   C     C_R   0.420632 0.495372 0.704218 0.862796
C13   C     C_2   0.486456 0.132495 0.522764 -0.338953
C14   C     C_2   0.586842 0.932493 0.538197 -0.127949
C15   C     C_2   0.501715 0.869342 0.497820 -0.298290
C16   C     C_2   0.111338 0.465566 0.418550 -0.173602
C17   C     C_2   0.961087 0.436164 0.431804 0.413564
C18   C     C_R   0.497398 0.263075 0.505309 0.951112
C19   C     C_R   0.579246 0.499929 0.295543 0.903786
C20   C     C_R   0.766150 0.370805 0.015154 -0.159059
C21   C     C_R   0.626923 0.484715 0.177789 -0.085150
C22   C     C_R   0.240150 0.552522 0.881656 -0.272036
C23   C     C_R   0.203657 0.575428 0.992806 0.512950
C24   C     C_R   0.299442 0.544629 0.043780 -0.300729
H1    H     H_    0.827392 0.392870 0.154215 0.218198
H2    H     H_    0.657694 0.884761 0.571225 0.176695
H3    H     H_    0.433691 0.912762 0.460243 0.159960
H4    H     H_    0.194188 0.442744 0.341745 0.203216
H5    H     H_    0.068166 0.508316 0.573355 0.160513
H6    H     H_    0.877696 0.575780 0.535949 0.135610
H7    H     H_    0.859661 0.315665 0.971107 0.153159
H8    H     H_    0.444995 0.580363 0.173371 0.160942
H9    H     H_    0.584010 0.319242 0.747318 0.160825
H10   H     H_    0.686324 0.111920 0.539390 0.220277
N1    N     N_2   0.148270 0.498670 0.498870 -0.206443
N2    N     N_2   0.852610 0.498640 0.498840 -0.237704
O1    O     O_R   0.386950 0.680940 0.500020 -0.604689
O2    O     O_R   0.613110 0.680900 0.499980 -0.604993
O3    O     O_R   0.330780 0.500000 0.653640 -0.613529
O4    O     O_R   0.556930 0.499960 0.653610 -0.619566
O5    O     O_R   0.386890 0.319100 0.500020 -0.602297
O6    O     O_R   0.613050 0.319060 0.499980 -0.560207
O7    O     O_R   0.443070 0.500040 0.346390 -0.621108
O8    O     O_R   0.669220 0.500000 0.346360 -0.542552
Zn1   Zn    Zn3+2 0.349000 0.500030 0.500020 0.976184
Zn2   Zn    Zn3+2 0.651000 0.499970 0.499980 1.031475
H11   H     H_    0.385855 0.091198 0.529202 0.166713
S1    S     S_3+6 0.945093 0.298841 0.359994 0.067043
O9    O     O_2   0.932038 0.190231 0.433549 -0.284732
O10   O     O_2   0.821072 0.299503 0.322668 -0.291450
O11   O     O_3   0.092899 0.277250 0.250154 -0.527931
H12   H     H_    0.090919 0.345114 0.200341 0.351750
H13   H     H_    0.761547 0.277963 0.827319 0.156596
H14   H     H_    0.171938 0.587049 0.840205 0.210029
H15   H     H_    0.267326 0.566349 0.129485 0.171427
S2    S     S_3+6 0.044810 0.654895 0.066456 0.001825
O12   O     O_2   0.979624 0.598129 0.176654 -0.340455
O13   O     O_2   0.077912 0.789281 0.080325 -0.254090
O14   O     O_3   0.930726 0.646692 0.998992 -0.575334
H16   H     H_    0.844329 0.691200 0.046499 0.388727

loop_
_geom_bond_atom_site_label_1
_geom_bond_atom_site_label_2
_ccdc_geom_bond_type
C16   H4    S    
C2    C4    A    
C23   C24   A    
C17   S1    S    
N2    Zn2   S    
C6    C7    A    
C1    C15   S    
C17   N2    D    
C1    O1    A    
C11   C13   D    
H5    N1    S    
C9    C20   A    
C15   H3    S    
S2    O14   S    
H6    N2    S    
O3    Zn1   S    
C12   O3    A    
S1    O10   D    
C2    C3    A    
C9    H1    S    
C23   S2    S    
C22   H14   S    
C3    C10   A    
C10   C22   A    
C24   H15   S    
O4    Zn2   S    
O7    Zn1   S    
C9    C21   A    
C10   C12   S    
C13   C18   S    
C1    O2    A    
S1    O9    D    
C19   C21   S    
C19   O7    A    
C8    C21   A    
C3    C7    A    
C18   O6    A    
C16   N1    D    
C2    C24   A    
C5    C6    A    
S1    O11   S    
C11   C14   S    
C5    C20   A    
O2    Zn2   S    
S2    O12   D    
C7    H9    S    
C6    H13   S    
O1    Zn1   S    
O11   H12   S    
N1    Zn1   S    
O14   H16   S    
C19   O8    A    
O6    Zn2   S    
C18   O5    A    
C4    C8    A    
C13   H11   S    
O5    Zn1   S    
C14   C15   D    
C16   C17   S    
C12   O4    A    
O8    Zn2   S    
C22   C23   A    
C11   H10   S    
C14   H2    S    
S2    O13   D    
C4    C5    A    
C20   H7    S    
C8    H8    S    
