data_mof_unit_14475.cif
_audit_creation_date              2012-12-10T19:00:13-0500
_audit_creation_method            fapswitch 2.2
_symmetry_space_group_name_H-M    P1
_symmetry_Int_Tables_number       1
_space_group_crystal_system       triclinic
_cell_length_a                    9.574861
_cell_length_b                    10.864436
_cell_length_c                    13.460448
_cell_angle_alpha                 92.661008
_cell_angle_beta                  74.007921
_cell_angle_gamma                 92.521543
_cell_volume                      1343.87865336

loop_
_atom_site_label
_atom_site_type_symbol
_atom_type_description
_atom_site_fract_x
_atom_site_fract_y
_atom_site_fract_z
_atom_type_partial_charge
C1    C     C_R   0.501613 0.737363 0.504513 0.812308
C2    C     C_R   0.459680 0.505144 0.975230 0.022156
C3    C     C_R   0.491220 0.474902 0.867978 0.044544
C4    C     C_R   0.563044 0.478155 0.027844 0.041592
C5    C     C_R   0.706744 0.451228 0.972580 0.115153
C6    C     C_R   0.737581 0.421118 0.867614 -0.232989
C7    C     C_R   0.626992 0.421042 0.818799 -0.157475
C8    C     C_R   0.518343 0.445570 0.130941 0.479728
C9    C     C_R   0.770074 0.459263 0.134135 -0.254106
C10   C     C_R   0.387018 0.499833 0.814046 -0.153529
C11   C     C_R   0.401455 0.936308 0.583872 -0.109470
C12   C     C_R   0.424141 0.495934 0.699798 0.822655
C13   C     C_R   0.509194 0.870535 0.512817 -0.092648
C14   C     C_R   0.623718 0.936173 0.445640 -0.195503
C15   C     C_R   0.617084 0.063962 0.439402 -0.206021
C16   C     C_R   0.494592 0.127106 0.498039 -0.101908
C17   C     C_R   0.389256 0.060822 0.571372 0.026923
C18   C     C_3   0.226253 0.045088 0.595121 0.901763
C19   C     C_3   0.241250 0.910625 0.621419 -0.066882
C20   C     C_R   0.944801 0.416137 0.439966 0.249423
C21   C     C_R   0.908375 0.586178 0.555761 -0.076935
C22   C     C_R   0.056576 0.585345 0.556347 -0.076122
C23   C     C_R   0.497669 0.261747 0.498769 0.805539
C24   C     C_R   0.092358 0.416086 0.440472 0.155530
C25   C     C_3   0.081184 0.282191 0.457206 -0.414800
C26   C     C_3   0.926804 0.280827 0.452452 -0.486721
C27   C     C_R   0.576508 0.488734 0.300605 0.795606
C28   C     C_R   0.811593 0.442671 0.026540 -0.181426
C29   C     C_R   0.621579 0.466265 0.187586 -0.147676
C30   C     C_R   0.252309 0.546192 0.869117 -0.265867
C31   C     C_R   0.223089 0.580441 0.973762 0.236169
C32   C     C_R   0.328759 0.565049 0.026980 0.204908
Cu1   Cu    Cu3+1 0.359330 0.500020 0.500010 0.945184
Cu2   Cu    Cu3+1 0.640670 0.499980 0.499990 0.933370
H1    H     H_    0.852301 0.460924 0.175569 0.162477
H2    H     H_    0.704044 0.112376 0.384952 0.146710
H3    H     H_    0.200604 0.837988 0.575627 0.140930
H4    H     H_    0.838118 0.654619 0.602646 0.139289
H5    H     H_    0.096415 0.651256 0.604807 0.138647
H6    H     H_    0.150313 0.227129 0.393169 0.208746
H7    H     H_    0.090974 0.265898 0.535499 0.268902
H8    H     H_    0.911108 0.232034 0.381818 0.180728
H9    H     H_    0.843501 0.388213 0.825378 0.141414
H10   H     H_    0.849408 0.253571 0.526704 0.224137
H11   H     H_    0.923763 0.424910 0.986073 0.162729
H12   H     H_    0.171482 0.563300 0.829252 0.177941
H13   H     H_    0.651183 0.376539 0.743073 0.174925
H14   H     H_    0.713256 0.888079 0.393543 0.151024
N1    N     N_R   0.852320 0.499070 0.499340 -0.185039
N2    N     N_R   0.148230 0.499110 0.499340 -0.177614
O1    O     O_R   0.381190 0.680360 0.500000 -0.592469
O2    O     O_R   0.618780 0.680320 0.499990 -0.581076
O3    O     O_R   0.323230 0.500000 0.650990 -0.573654
O4    O     O_R   0.560820 0.499960 0.650980 -0.594619
O5    O     O_R   0.381220 0.319680 0.500010 -0.566890
O6    O     O_R   0.618810 0.319640 0.500000 -0.595225
O7    O     O_R   0.439180 0.500040 0.349020 -0.586151
O8    O     O_R   0.676770 0.500000 0.349010 -0.581814
O9    O     O_3   0.160716 0.123100 0.681427 -0.580225
C33   C     C_3   0.006969 0.114250 0.707607 -0.240854
H15   H     H_    0.961021 0.046364 0.659539 0.165295
H16   H     H_    0.964508 0.206062 0.701392 0.148406
H17   H     H_    0.965348 0.088694 0.789580 0.180750
O10   O     O_3   0.171913 0.062644 0.508027 -0.628173
C34   C     C_3   0.214236 0.976575 0.423644 -0.445592
H18   H     H_    0.330685 0.954646 0.403745 0.185015
H19   H     H_    0.196985 0.017203 0.354102 0.198665
H20   H     H_    0.143549 0.891893 0.437503 0.179619
N3    N     N_2   0.195641 0.890189 0.731910 -0.385941
H21   H     H_    0.273057 0.854417 0.761733 0.261180
C35   C     C_3   0.052639 0.832831 0.771151 -0.707333
H22   H     H_    0.061494 0.731847 0.774903 0.218275
H23   H     H_    0.980176 0.850330 0.721930 0.212918
H24   H     H_    0.001850 0.870926 0.850040 0.238466
O11   O     O_3   0.440458 0.334137 0.140884 -0.585208
C36   C     C_3   0.318076 0.336092 0.225963 -0.295602
H25   H     H_    0.265830 0.426891 0.241187 0.177341
H26   H     H_    0.349923 0.305178 0.293571 0.194445
H27   H     H_    0.236230 0.268146 0.210191 0.166288
N4    N     N_2   0.309770 0.618714 0.128709 -0.452339
H28   H     H_    0.204366 0.624385 0.174235 0.246736
C37   C     C_3   0.396134 0.730300 0.134649 -0.709272
H29   H     H_    0.376308 0.762557 0.216733 0.227133
H30   H     H_    0.366604 0.803931 0.090389 0.233923
H31   H     H_    0.513846 0.713371 0.103395 0.226097
N5    N     N_2   0.088154 0.635288 0.022857 -0.435309
H32   H     H_    0.034570 0.600974 0.093670 0.239701
C38   C     C_3   0.088791 0.768327 0.022090 -0.684001
H33   H     H_    0.977793 0.797870 0.026268 0.228726
H34   H     H_    0.165580 0.803638 0.950581 0.242773
H35   H     H_    0.119613 0.809137 0.090461 0.221578

loop_
_geom_bond_atom_site_label_1
_geom_bond_atom_site_label_2
_ccdc_geom_bond_type
Cu1   O5    S    
Cu2   O6    S    
C27   C29   S    
C36   H27   S    
C4    C8    A    
C21   N1    A    
C26   H10   S    
C23   O6    A    
C11   C19   S    
C33   H17   S    
C8    C29   A    
C33   H16   S    
C36   H26   S    
C3    C7    A    
C25   H6    S    
C30   C31   A    
N5    C38   S    
C15   C16   A    
C2    C32   A    
C18   C19   S    
N3    C35   S    
C19   H3    S    
C21   H4    S    
C20   C24   A    
C16   C17   A    
C34   H19   S    
C12   O3    A    
C9    C29   A    
C22   N2    A    
O9    C33   S    
C31   N5    S    
C13   C14   A    
C24   N2    A    
C17   C18   S    
Cu1   O3    S    
C28   H11   S    
C24   C25   S    
N4    C37   S    
C27   O7    A    
C25   H7    S    
C35   H23   S    
N5    H32   S    
C4    C5    A    
C14   H14   S    
C25   C26   S    
C37   H29   S    
C8    O11   S    
C33   H15   S    
C7    H13   S    
C2    C4    A    
O11   C36   S    
C20   N1    A    
C32   N4    S    
C5    C28   A    
C10   C30   A    
C31   C32   A    
C38   H35   S    
C34   H20   S    
Cu1   Cu2   S    
C36   H25   S    
C1    O1    A    
C10   C12   S    
C38   H34   S    
Cu2   O4    S    
C16   C23   S    
C37   H30   S    
C6    H9    S    
C19   N3    S    
C1    C13   S    
C15   H2    S    
C26   H8    S    
Cu2   O8    S    
C11   C17   A    
Cu2   N1    S    
Cu1   O7    S    
C30   H12   S    
N4    H28   S    
C27   O8    A    
C35   H24   S    
C23   O5    A    
C6    C7    A    
Cu1   O1    S    
C37   H31   S    
Cu2   O2    S    
O10   C34   S    
C2    C3    A    
Cu1   N2    S    
C35   H22   S    
C3    C10   A    
C11   C13   A    
C18   O10   S    
C5    C6    A    
C20   C26   S    
C22   H5    S    
N3    H21   S    
C1    O2    A    
C18   O9    S    
C38   H33   S    
C34   H18   S    
C9    H1    S    
C14   C15   A    
C21   C22   A    
C12   O4    A    
C9    C28   A    
