data_mof_unit_67749.cif
_audit_creation_date              2013-03-05T15:40:03-0500
_audit_creation_method            fapswitch 2.2
_symmetry_space_group_name_H-M    P1
_symmetry_Int_Tables_number       1
_space_group_crystal_system       triclinic
_cell_length_a                    7.832637
_cell_length_b                    8.60167
_cell_length_c                    10.823184
_cell_angle_alpha                 90.929308
_cell_angle_beta                  85.618668
_cell_angle_gamma                 93.312819
_cell_volume                      725.801614985

loop_
_atom_site_label
_atom_site_type_symbol
_atom_site_description
_atom_site_fract_x
_atom_site_fract_y
_atom_site_fract_z
_atom_type_partial_charge
O1    O     O_R   0.389250 0.738570 0.508180 -0.601422
O2    O     O_R   0.678390 0.711630 0.486820 -0.638722
C1    C     C_R   0.545304 0.794006 0.487277 0.806997
O3    O     O_R   0.355470 0.513470 0.691600 -0.597963
O4    O     O_R   0.644610 0.486520 0.670240 -0.680589
C2    C     C_R   0.502475 0.505963 0.736101 0.831219
Zn1   Zn    Zn3+2 0.306940 0.517990 0.514260 0.948255
Zn2   Zn    Zn3+2 0.693060 0.482010 0.485740 0.962808
O5    O     O_R   0.321610 0.288370 0.513180 -0.615659
O6    O     O_R   0.610750 0.261430 0.491820 -0.590052
O7    O     O_R   0.355390 0.513480 0.329760 -0.681288
O8    O     O_R   0.644530 0.486530 0.308400 -0.557192
C3    C     C_R   0.454757 0.206307 0.488589 0.884518
C4    C     C_R   0.498800 0.496052 0.262924 0.900115
C5    C     C_2   0.639032 0.461182 0.055581 0.555695
C6    C     C_2   0.496136 0.478820 0.131446 -0.390503
H1    H     H_    0.369810 0.477626 0.098233 0.167239
C7    C     C_2   0.617000 0.446210 0.923180 -0.431326
C8    C     C_2   0.510692 0.531506 0.865809 0.321345
H2    H     H_    0.694316 0.365695 0.869031 0.128676
C9    C     C_2   0.570756 0.957004 0.461906 0.142952
C10   C     C_2   0.432051 0.044142 0.456888 0.213444
N1    N     N_2   0.950320 0.457950 0.466680 -0.205108
N2    N     N_2   0.049680 0.542050 0.533320 -0.204151
O9    O     O_3   0.797826 0.450236 0.105860 -0.626442
C11   C     C_3   0.942839 0.442135 0.019887 0.132558
H3    H     H_    0.053552 0.498942 0.064492 0.185498
H4    H     H_    0.933719 0.509485 0.934296 0.153352
C12   C     C_3   0.981234 0.271624 0.992378 -0.372158
H5    H     H_    0.967845 0.204518 0.079482 0.283503
H6    H     H_    0.887820 0.219471 0.930582 0.205480
C13   C     C_3   0.160592 0.254573 0.930658 -0.966382
H7    H     H_    0.181276 0.327966 0.847102 0.287811
H8    H     H_    0.177993 0.131360 0.903534 0.259114
H9    H     H_    0.257726 0.286801 0.996173 0.271628
O10   O     O_3   0.400463 0.632479 0.927492 -0.669643
C14   C     C_3   0.448971 0.788434 0.895956 0.124475
H10   H     H_    0.330491 0.853923 0.902069 0.185177
H11   H     H_    0.504927 0.803037 0.798954 0.096086
C15   C     C_3   0.572865 0.858148 0.987694 -0.361432
H12   H     H_    0.532099 0.816636 0.082557 0.230738
H13   H     H_    0.703825 0.818877 0.962306 0.223616
C16   C     C_3   0.577159 0.035239 0.989084 -0.982050
H14   H     H_    0.619220 0.080543 0.895669 0.259767
H15   H     H_    0.666584 0.081288 0.057293 0.286324
H16   H     H_    0.448241 0.075945 0.017402 0.271015
O11   O     O_3   0.733839 0.022187 0.424786 -0.642502
C17   C     C_3   0.863422 0.998495 0.506276 0.202749
H17   H     H_    0.963078 0.093982 0.487502 0.221940
H18   H     H_    0.926329 0.888582 0.482127 0.178775
C18   C     C_3   0.809196 0.005842 0.645728 -0.460007
H19   H     H_    0.726527 0.104706 0.667738 0.220886
H20   H     H_    0.737770 0.896016 0.674614 0.219472
C19   C     C_3   0.967062 0.025399 0.719403 -0.861200
H21   H     H_    0.068645 0.948682 0.682600 0.316136
H22   H     H_    0.931550 0.994739 0.817495 0.267178
H23   H     H_    0.019571 0.147780 0.712839 0.254972
O12   O     O_3   0.265739 0.985399 0.439029 -0.670136
C20   C     C_3   0.257451 0.899767 0.325631 0.096993
H24   H     H_    0.189042 0.786094 0.348047 0.187598
H25   H     H_    0.384458 0.874449 0.278448 0.110068
C21   C     C_3   0.155061 0.981783 0.233863 -0.345013
H26   H     H_    0.041300 0.031127 0.282440 0.290648
H27   H     H_    0.236515 0.078305 0.189423 0.231801
C22   C     C_3   0.091509 0.867715 0.135407 -0.976737
H28   H     H_    0.195959 0.794591 0.098465 0.285192
H29   H     H_    0.043910 0.931903 0.058136 0.274092
H30   H     H_    0.984424 0.790090 0.176415 0.272322
C23   C     C_2   0.012957 0.443853 0.342099 0.782590
H31   H     H_    0.051646 0.546865 0.288299 -0.027110
O13   O     O_2   0.018084 0.315649 0.293312 -0.635343
C24   C     C_2   0.992809 0.545328 0.660162 0.691348
H32   H     H_    0.933965 0.441193 0.704390 0.000624
O14   O     O_2   0.021948 0.661346 0.722807 -0.634655

loop_
_geom_bond_atom_site_label_1
_geom_bond_atom_site_label_2
_geom_bond_distance
_ccdc_geom_bond_type
C10   O12   1.396007 S    
O4    Zn2   2.004107 S    
C18   H20   1.106766 S    
N1    N2    1.285679 D    
C21   H26   1.102465 S    
C5    C7    1.459136 S    
C24   O14   1.217812 D    
N1    C23   1.404987 S    
C11   H4    1.109581 S    
O11   C17   1.419898 S    
Zn2   O8    1.986362 S    
C22   H30   1.111014 S    
C13   H7    1.107666 S    
C18   C19   1.521634 S    
C15   H13   1.111655 S    
O2    C1    1.293518 A    
O9    C11   1.416468 S    
C23   O13   1.216349 D    
C20   H24   1.108733 S    
C12   H6    1.100472 S    
C9    C10   1.359977 D    
C24   H32   1.084617 S    
Zn1   O7    2.004107 S    
C2    C8    1.423160 S    
C16   H15   1.109032 S    
C11   H3    1.109576 S    
C12   H5    1.108372 S    
O3    Zn1   1.986363 S    
C17   H17   1.110076 S    
O4    C2    1.293025 A    
C17   H18   1.109547 S    
C15   H12   1.110061 S    
C16   H16   1.107369 S    
C14   H10   1.110283 S    
O8    C4    1.284454 A    
C3    C10   1.435335 S    
C22   H28   1.107314 S    
C12   C13   1.522694 S    
C4    C6    1.429932 S    
C8    O10   1.387542 S    
C17   C18   1.537682 S    
C16   H14   1.108904 S    
C23   H31   1.083859 S    
C14   H11   1.112529 S    
O7    C4    1.303574 A    
C19   H22   1.108852 S    
C1    C9    1.432724 S    
O3    C2    1.286970 A    
C5    O9    1.403774 S    
Zn1   N2    2.031996 S    
C13   H9    1.100072 S    
Zn2   N1    2.031996 S    
C18   H19   1.110272 S    
N2    C24   1.410910 S    
C11   C12   1.534070 S    
Zn2   O6    1.968789 S    
C7    C8    1.334759 D    
C7    H2    1.082097 S    
C20   H25   1.114292 S    
O1    C1    1.290935 A    
Zn1   O5    1.984868 S    
C14   C15   1.532243 S    
O5    C3    1.301266 A    
C19   H21   1.109482 S    
O10   C14   1.412991 S    
C20   C21   1.528783 S    
C21   H27   1.110207 S    
C21   C22   1.528621 S    
C9    O11   1.397700 S    
O12   C20   1.424934 S    
O1    Zn1   1.968788 S    
O6    C3    1.287621 A    
C15   C16   1.521560 S    
O2    Zn2   1.984867 S    
C5    C6    1.350970 D    
C6    H1    1.077690 S    
C22   H29   1.108915 S    
C19   H23   1.109169 S    
C13   H8    1.108379 S    
