data_mof_unit_34819.cif
_audit_creation_date              2012-12-11T16:27:31-0500
_audit_creation_method            fapswitch 2.2
_symmetry_space_group_name_H-M    P1
_symmetry_Int_Tables_number       1
_space_group_crystal_system       triclinic
_cell_length_a                    21.697369
_cell_length_b                    6.957034
_cell_length_c                    14.175708
_cell_angle_alpha                 89.999882
_cell_angle_beta                  103.359491
_cell_angle_gamma                 89.999679
_cell_volume                      2081.90921788

loop_
_atom_site_label
_atom_site_type_symbol
_atom_type_description
_atom_site_fract_x
_atom_site_fract_y
_atom_site_fract_z
_atom_type_partial_charge
O1    O     O_R   0.835850 0.638310 0.002120 -0.534626
O2    O     O_R   0.164150 0.361690 0.997880 -0.532502
O3    O     O_R   0.664150 0.138310 0.997880 -0.534627
O4    O     O_R   0.335850 0.861690 0.002120 -0.532503
O5    O     O_R   0.717530 0.306070 0.861970 -0.537205
O6    O     O_R   0.282470 0.693930 0.138030 -0.545075
O7    O     O_R   0.782470 0.806070 0.138030 -0.537207
O8    O     O_R   0.217530 0.193930 0.861970 -0.545075
C1    C     C_R   0.704381 0.476687 0.822530 0.690047
C2    C     C_R   0.295208 0.523317 0.177487 0.690595
C3    C     C_R   0.795619 0.976686 0.177469 0.690051
C4    C     C_R   0.204792 0.023317 0.822513 0.690594
O9    O     O_R   0.838690 0.308440 0.993250 -0.535547
O10   O     O_R   0.161310 0.691560 0.006750 -0.537760
O11   O     O_R   0.661310 0.808440 0.006750 -0.535545
O12   O     O_R   0.338690 0.191560 0.993250 -0.537760
O13   O     O_R   0.786170 0.140510 0.130090 -0.540142
O14   O     O_R   0.213830 0.859490 0.869910 -0.533362
O15   O     O_R   0.713830 0.640510 0.869910 -0.540140
O16   O     O_R   0.286170 0.359490 0.130090 -0.533362
C5    C     C_R   0.864582 0.477686 0.993935 0.698142
C6    C     C_R   0.135626 0.522780 0.007223 0.697791
C7    C     C_R   0.635418 0.977688 0.006066 0.698141
C8    C     C_R   0.364373 0.022779 0.992776 0.697790
O17   O     O_3   0.732630 0.472520 0.044740 -0.369286
O18   O     O_3   0.267370 0.527480 0.955260 -0.369183
O19   O     O_3   0.767370 0.972520 0.955260 -0.369286
O20   O     O_3   0.232630 0.027480 0.044740 -0.369182
V1    V     V_3+5 0.753220 0.196740 0.991700 1.394429
V2    V     V_3+5 0.246780 0.803260 0.008300 1.392346
V3    V     V_3+5 0.746780 0.696740 0.008300 1.394429
V4    V     V_3+5 0.253220 0.303260 0.991700 1.392346
H1    H     H_    0.596364 0.991307 0.336080 0.111575
H2    H     H_    0.405448 0.093161 0.664719 0.105876
H3    H     H_    0.903634 0.491265 0.663922 0.111576
H4    H     H_    0.094550 0.593239 0.335277 0.105873
C9    C     C_R   0.543688 0.025095 0.826307 -0.152541
C10   C     C_R   0.456982 0.017256 0.173093 -0.147186
C11   C     C_R   0.956312 0.525113 0.173693 -0.152542
C12   C     C_R   0.043017 0.517231 0.826907 -0.147186
C13   C     C_R   0.501383 0.056304 0.738052 -0.131380
C14   C     C_R   0.500039 0.015777 0.262177 -0.131337
C15   C     C_R   0.998616 0.556343 0.261946 -0.131378
C16   C     C_R   0.999959 0.515742 0.737823 -0.131334
C17   C     C_R   0.437065 0.069267 0.733820 -0.122102
C18   C     C_R   0.564240 0.997778 0.266373 -0.131193
C19   C     C_R   0.062933 0.569319 0.266177 -0.122098
C20   C     C_R   0.935758 0.497744 0.733628 -0.131195
C21   C     C_R   0.414036 0.051942 0.817613 -0.150148
C22   C     C_R   0.586512 0.984986 0.181810 -0.149982
C23   C     C_R   0.085963 0.551977 0.182386 -0.150151
C24   C     C_R   0.913488 0.484963 0.818192 -0.149982
C25   C     C_R   0.456070 0.025073 0.908884 0.067090
C26   C     C_R   0.543988 0.991564 0.089964 0.068209
C27   C     C_R   0.043930 0.525087 0.091115 0.067090
C28   C     C_R   0.956011 0.491551 0.910037 0.068211
C29   C     C_R   0.522369 0.011649 0.913185 0.074401
C30   C     C_R   0.477739 0.006262 0.085682 0.074590
C31   C     C_R   0.977631 0.511659 0.086815 0.074400
C32   C     C_R   0.022260 0.506250 0.914319 0.074590
C33   C     C_R   0.433531 0.015538 0.995219 -0.184271
C34   C     C_R   0.566273 0.988831 0.003355 -0.184461
C35   C     C_R   0.066468 0.515540 0.004781 -0.184272
C36   C     C_R   0.933727 0.488828 0.996646 -0.184460
H5    H     H_    0.593297 0.014476 0.825570 0.107346
H6    H     H_    0.407411 0.030349 0.173733 0.106626
H7    H     H_    0.906703 0.514488 0.174430 0.107345
H8    H     H_    0.092587 0.530324 0.826266 0.106625
H9    H     H_    0.518556 0.069178 0.672395 0.121648
H10   H     H_    0.483447 0.025578 0.328459 0.122458
H11   H     H_    0.981443 0.569229 0.327603 0.121647
H12   H     H_    0.016551 0.525534 0.671540 0.122459
H13   H     H_    0.363404 0.063329 0.810449 0.077924
H14   H     H_    0.637119 0.972305 0.189091 0.079128
H15   H     H_    0.136595 0.563372 0.189549 0.077927
H16   H     H_    0.862881 0.472281 0.810912 0.079129
C37   C     C_R   0.174918 0.019441 0.716645 -0.072604
C38   C     C_R   0.825018 0.986148 0.283578 -0.073856
C39   C     C_R   0.325083 0.519439 0.283355 -0.072606
C40   C     C_R   0.674982 0.486151 0.716421 -0.073856
C41   C     C_R   0.185045 0.035708 0.547007 0.045115
C42   C     C_R   0.814236 0.991226 0.453144 0.044881
C43   C     C_R   0.314954 0.535706 0.452993 0.045114
C44   C     C_R   0.685762 0.491232 0.546854 0.044883
C45   C     C_R   0.211631 0.005766 0.647434 -0.179394
C46   C     C_R   0.788771 0.958211 0.352727 -0.182567
C47   C     C_R   0.288369 0.505765 0.352565 -0.179394
C48   C     C_R   0.711229 0.458211 0.647271 -0.182569
C49   C     C_R   0.109425 0.043091 0.685325 -0.231954
C50   C     C_R   0.889559 0.028877 0.315207 -0.234867
C51   C     C_R   0.390574 0.543094 0.314677 -0.231955
C52   C     C_R   0.610441 0.528888 0.684794 -0.234858
C53   C     C_R   0.079935 0.068304 0.585866 0.061099
C54   C     C_R   0.918294 0.054367 0.414937 0.061481
C55   C     C_R   0.420064 0.568311 0.414136 0.061100
C56   C     C_R   0.581705 0.554379 0.585065 0.061481
C57   C     C_R   0.118868 0.078987 0.517862 0.087370
C58   C     C_R   0.879302 0.046803 0.483015 0.095411
C59   C     C_R   0.381131 0.578987 0.482139 0.087369
C60   C     C_R   0.620697 0.546816 0.516985 0.095411
C61   C     C_R   0.012588 0.082693 0.551372 0.062633
C62   C     C_R   0.985052 0.085730 0.449783 0.060706
C63   C     C_R   0.487411 0.582709 0.448631 0.062634
C64   C     C_R   0.514947 0.585739 0.550220 0.060706
C65   C     C_R   0.025091 0.127954 0.387711 -0.202780
C66   C     C_R   0.971707 0.102012 0.614227 -0.203550
C67   C     C_R   0.474907 0.627950 0.612292 -0.202778
C68   C     C_R   0.528291 0.602038 0.385776 -0.203553
C69   C     C_R   0.090228 0.139102 0.423109 -0.221896
C70   C     C_R   0.906642 0.101544 0.578941 -0.226632
C71   C     C_R   0.409771 0.639098 0.576893 -0.221895
C72   C     C_R   0.593356 0.601564 0.421061 -0.226630
H17   H     H_    0.117757 0.191910 0.374128 0.144871
H18   H     H_    0.878428 0.142044 0.629109 0.142322
H19   H     H_    0.382241 0.691902 0.625874 0.144869
H20   H     H_    0.621571 0.642061 0.370893 0.142324
H21   H     H_    0.916596 0.037056 0.260304 0.114609
H22   H     H_    0.082705 0.040251 0.740669 0.113180
H23   H     H_    0.583404 0.537070 0.739699 0.114604
H24   H     H_    0.417296 0.540252 0.259334 0.113180
H25   H     H_    0.740074 0.913085 0.327020 0.098746
H26   H     H_    0.261304 0.972425 0.673419 0.095694
H27   H     H_    0.759926 0.413077 0.672976 0.098745
H28   H     H_    0.238697 0.472424 0.326579 0.095697
H29   H     H_    0.007063 0.160307 0.311974 0.144558
H30   H     H_    0.988622 0.126340 0.690866 0.147058
H31   H     H_    0.492936 0.660292 0.688029 0.144559
H32   H     H_    0.511376 0.626377 0.309138 0.147059
C73   C     C_R   0.226799 0.016890 0.474926 0.111068
C74   C     C_R   0.291895 0.058501 0.502782 -0.113338
C75   C     C_R   0.330671 0.052183 0.436612 -0.117576
C76   C     C_R   0.305131 0.002196 0.340436 -0.048773
C77   C     C_R   0.241463 0.951197 0.311649 -0.114652
C78   C     C_R   0.203310 0.952521 0.378610 -0.202637
H33   H     H_    0.312705 0.100236 0.575487 0.091499
H34   H     H_    0.380406 0.088374 0.459856 0.111160
H35   H     H_    0.334876 0.999185 0.288843 0.107644
H36   H     H_    0.221622 0.906850 0.237782 0.133585
H37   H     H_    0.155549 0.899221 0.354277 0.117274
C79   C     C_R   0.772042 0.967545 0.524268 0.109506
C80   C     C_R   0.707192 0.011155 0.495938 -0.116422
C81   C     C_R   0.668221 0.007723 0.561860 -0.117085
C82   C     C_R   0.693299 0.957082 0.658099 -0.048079
C83   C     C_R   0.756587 0.902011 0.687122 -0.111725
C84   C     C_R   0.794996 0.901660 0.620453 -0.201418
H38   H     H_    0.687013 0.053537 0.423096 0.092585
H39   H     H_    0.618712 0.046462 0.538378 0.111205
H40   H     H_    0.663402 0.956055 0.709495 0.106371
H41   H     H_    0.775836 0.856088 0.760954 0.129556
H42   H     H_    0.842740 0.847671 0.644978 0.119677
C85   C     C_R   0.273199 0.516886 0.525072 0.111068
C86   C     C_R   0.208103 0.558501 0.497214 -0.113336
C87   C     C_R   0.169327 0.552189 0.563383 -0.117575
C88   C     C_R   0.194866 0.502204 0.659560 -0.048774
C89   C     C_R   0.258533 0.451198 0.688348 -0.114652
C90   C     C_R   0.296687 0.452514 0.621387 -0.202638
H43   H     H_    0.187293 0.600236 0.424509 0.091500
H44   H     H_    0.119591 0.588384 0.540139 0.111160
H45   H     H_    0.165121 0.499199 0.711154 0.107642
H46   H     H_    0.278375 0.406854 0.762216 0.133587
H47   H     H_    0.344448 0.399207 0.645720 0.117277
C91   C     C_R   0.727955 0.467548 0.475728 0.109504
C92   C     C_R   0.792805 0.511152 0.504055 -0.116420
C93   C     C_R   0.831774 0.507714 0.438130 -0.117081
C94   C     C_R   0.806694 0.457076 0.341891 -0.048082
C95   C     C_R   0.743406 0.402011 0.312871 -0.111726
C96   C     C_R   0.704999 0.401666 0.379543 -0.201420
H48   H     H_    0.812986 0.553532 0.576897 0.092584
H49   H     H_    0.881283 0.546447 0.461609 0.111205
H50   H     H_    0.836590 0.456045 0.290493 0.106375
H51   H     H_    0.724156 0.356089 0.239040 0.129555
H52   H     H_    0.657254 0.347683 0.355021 0.119678

loop_
_geom_bond_atom_site_label_1
_geom_bond_atom_site_label_2
_ccdc_geom_bond_type
O17   V3    S    
C43   C47   A    
O1    C5    A    
C61   C62   A    
C12   C32   A    
C27   C31   A    
O19   V1    S    
O13   V1    S    
O3    C7    A    
C92   C93   A    
C52   C56   A    
O15   V3    S    
C39   C47   A    
C29   C34   A    
C94   C95   A    
C38   C50   A    
O7    C3    A    
C37   C49   A    
C31   C36   A    
C8    C33   S    
C62   C65   A    
C32   C35   A    
C58   C70   A    
O9    V1    S    
C93   C94   A    
C52   H23   S    
C23   H15   S    
C10   C14   A    
C22   H14   S    
C26   C30   A    
C47   H28   S    
O4    C8    A    
C55   C59   A    
C54   C58   A    
C82   C83   A    
O1    V3    S    
C91   C96   A    
H4    C19   S    
O2    V4    S    
C14   C18   A    
C87   H44   S    
O3    V1    S    
C5    C36   S    
C42   C79   S    
C6    C35   S    
C10   C30   A    
C25   C33   A    
C1    O15   A    
C7    C34   S    
C10   H6    S    
C2    O16   A    
C76   C77   A    
C27   C35   A    
O2    C6    A    
C85   C86   A    
C28   C36   A    
C63   C68   A    
O14   V2    S    
C70   H18   S    
C12   C16   A    
O5    V1    S    
C84   H42   S    
C69   H17   S    
C38   C46   A    
C30   C33   A    
O11   C7    A    
C11   C31   A    
C95   H51   S    
O12   C8    A    
C43   C59   A    
C9    C13   A    
H1    C18   S    
C42   C58   A    
C93   H49   S    
C67   C71   A    
O10   V2    S    
C48   H27   S    
H3    C20   S    
C55   C63   A    
C50   C54   A    
C43   C85   S    
O17   V1    S    
C82   H40   S    
C89   C90   A    
O7    V3    S    
O19   V3    S    
C39   C51   A    
O8    V4    S    
C50   H21   S    
O20   V4    S    
C61   C66   A    
C79   C80   A    
C75   H34   S    
C53   C61   A    
C78   H37   S    
C25   C29   A    
O18   V4    S    
C19   C23   A    
C26   C34   A    
C76   H35   S    
C42   C46   A    
C66   H30   S    
C51   C55   A    
O4    V2    S    
C68   C72   A    
C9    H5    S    
C1    C40   S    
C44   C60   A    
C40   C52   A    
C14   H10   S    
O5    C1    A    
C83   H41   S    
C3    C38   S    
C57   C69   A    
C41   C73   S    
C92   H48   S    
C17   C21   A    
O8    C4    A    
C59   C71   A    
C4    C37   S    
C46   H25   S    
O9    C5    A    
C45   H26   S    
H2    C17   S    
C22   C26   A    
C85   C90   A    
C68   H32   S    
C77   H36   S    
C88   C89   A    
C80   H38   S    
O6    V2    S    
C74   H33   S    
C90   H47   S    
C60   C72   A    
C56   C64   A    
C95   C96   A    
C21   H13   S    
C75   C76   A    
C53   C57   A    
C72   H20   S    
C44   C91   S    
C13   H9    S    
C91   C92   A    
O16   V4    S    
C94   H50   S    
C65   C69   A    
C86   H43   S    
C3    O13   A    
C15   H11   S    
C89   H46   S    
C51   H24   S    
C11   H7    S    
C81   H39   S    
C44   C48   A    
C83   C84   A    
C24   H16   S    
C79   C84   A    
O6    C2    A    
C11   C15   A    
C2    C39   S    
O11   V3    S    
C96   H52   S    
O12   V4    S    
C18   C22   A    
C65   H29   S    
O10   C6    A    
O20   V2    S    
C74   C75   A    
C73   C74   A    
C67   H31   S    
C88   H45   S    
C40   C48   A    
C16   C20   A    
C80   C81   A    
C77   C78   A    
C41   C57   A    
C21   C25   A    
C56   C60   A    
C16   H12   S    
C23   C27   A    
C49   C53   A    
C41   C45   A    
C37   C45   A    
C73   C78   A    
C28   C32   A    
C20   C24   A    
C49   H22   S    
C54   C62   A    
C66   C70   A    
C12   H8    S    
C4    O14   A    
C63   C64   A    
C13   C17   A    
C81   C82   A    
C71   H19   S    
C86   C87   A    
C87   C88   A    
C15   C19   A    
C64   C67   A    
C9    C29   A    
C24   C28   A    
O18   V2    S    
