data_mof_unit_61251.cif
_audit_creation_date              2012-12-10T16:54:14-0500
_audit_creation_method            fapswitch 2.2
_symmetry_space_group_name_H-M    P1
_symmetry_Int_Tables_number       1
_space_group_crystal_system       triclinic
_cell_length_a                    18.53041
_cell_length_b                    18.530343
_cell_length_c                    42.954643
_cell_angle_alpha                 90.002647
_cell_angle_beta                  90.000036
_cell_angle_gamma                 89.999853
_cell_volume                      14749.5442199

loop_
_atom_site_label
_atom_site_type_symbol
_atom_type_description
_atom_site_fract_x
_atom_site_fract_y
_atom_site_fract_z
_atom_type_partial_charge
C1    C     C_R   0.500000 0.000001 0.584213 0.780198
C2    C     C_R   0.000003 0.500000 0.281584 0.364331
C3    C     C_R   0.950542 0.542502 0.332391 -0.207640
C4    C     C_R   0.957526 0.450512 0.832390 -0.207673
C5    C     C_R   0.549470 0.957498 0.832390 -0.207706
C6    C     C_R   0.042468 0.549486 0.832392 -0.207715
C7    C     C_R   0.450539 0.042492 0.832390 -0.207690
C8    C     C_R   0.500000 0.999997 0.315940 -0.075475
C9    C     C_R   0.000001 0.499998 0.315941 -0.075476
C10   C     C_R   0.999999 0.499997 0.815941 -0.075397
C11   C     C_R   0.500008 0.999998 0.815941 -0.075396
C12   C     C_R   0.500000 0.999999 0.381577 -0.297144
C13   C     C_R   0.000000 0.499996 0.781585 0.364276
C14   C     C_R   0.999998 0.499996 0.381577 -0.297136
C15   C     C_R   0.999997 0.500000 0.881578 -0.297165
C16   C     C_R   0.500000 0.999993 0.881577 -0.297178
C17   C     C_R   0.500011 0.000001 0.781585 0.364266
C18   C     C_R   0.936630 0.483930 0.667506 -0.153032
C19   C     C_R   0.516012 0.936618 0.667505 -0.153045
C20   C     C_R   0.063371 0.516066 0.667507 -0.153039
C21   C     C_R   0.484007 0.063392 0.667508 -0.153038
C22   C     C_R   0.436624 0.983950 0.167505 -0.153004
C23   C     C_R   0.016064 0.436631 0.167505 -0.153003
C24   C     C_R   0.563377 0.016039 0.167506 -0.153031
C25   C     C_R   1.000000 0.500000 0.584213 0.780184
C26   C     C_R   0.983944 0.563377 0.167507 -0.153027
C27   C     C_R   0.936521 0.484386 0.635028 -0.183676
C28   C     C_R   0.515555 0.936509 0.635028 -0.183676
C29   C     C_R   0.063480 0.515611 0.635029 -0.183676
C30   C     C_R   0.484458 0.063500 0.635030 -0.183682
C31   C     C_R   0.436515 0.984406 0.135028 -0.183674
C32   C     C_R   0.015609 0.436522 0.135027 -0.183777
C33   C     C_R   0.563485 0.015586 0.135029 -0.183663
C34   C     C_R   0.984398 0.563485 0.135029 -0.183560
C35   C     C_R   0.000000 0.499999 0.618505 -0.004048
C36   C     C_R   0.000000 0.500001 0.084212 0.780185
C37   C     C_R   0.500004 0.000004 0.618505 -0.004064
C38   C     C_R   0.500000 0.999997 0.118505 -0.004018
C39   C     C_R   0.000002 0.500003 0.118505 -0.004013
C40   C     C_R   0.000001 0.499997 0.684058 0.083198
C41   C     C_R   0.500011 0.000005 0.684059 0.083201
C42   C     C_R   0.500001 0.999994 0.184057 0.083192
C43   C     C_R   0.000005 0.500004 0.184058 0.083192
C44   C     C_R   0.500000 1.000000 0.415845 1.000230
C45   C     C_R   1.000000 0.499999 0.415845 1.000294
C46   C     C_R   0.999999 0.499999 0.915846 1.000247
C47   C     C_R   0.500000 0.999999 0.084212 0.780187
C48   C     C_R   0.500001 0.999998 0.915846 1.000190
C49   C     C_R   0.361616 0.138826 0.499903 0.863322
C50   C     C_R   0.861175 0.361616 0.499903 0.863327
C51   C     C_R   0.638384 0.861175 0.499903 0.863304
C52   C     C_R   0.138825 0.638383 0.499903 0.863307
C53   C     C_R   0.638643 0.138554 0.500062 0.855809
C54   C     C_R   0.138554 0.361356 0.500061 0.855811
C55   C     C_R   0.361357 0.861447 0.500062 0.855789
C56   C     C_R   0.861446 0.638643 0.500062 0.855790
C57   C     C_R   0.861617 0.638826 0.999903 0.863204
C58   C     C_R   0.000001 0.499996 0.718394 0.283983
C59   C     C_R   0.361472 0.861322 0.000082 0.865513
C60   C     C_R   0.138678 0.361472 0.000082 0.865572
C61   C     C_R   0.638825 0.138383 0.999903 0.863219
C62   C     C_R   0.138348 0.638845 0.999885 0.854376
C63   C     C_R   0.638554 0.861356 0.000061 0.855910
C64   C     C_R   0.861356 0.361447 0.000062 0.855925
C65   C     C_R   0.361156 0.138348 0.999885 0.854357
C66   C     C_2   0.192529 0.751370 0.482028 -0.136764
C67   C     C_2   0.248629 0.192528 0.482028 -0.136770
C68   C     C_2   0.807471 0.248625 0.482028 -0.136774
C69   C     C_R   0.500013 0.000005 0.718394 0.283988
C70   C     C_2   0.751373 0.807470 0.482028 -0.136780
C71   C     C_2   0.806209 0.750025 0.481268 -0.132609
C72   C     C_2   0.750025 0.193790 0.481267 -0.132625
C73   C     C_2   0.193793 0.249972 0.481266 -0.132622
C74   C     C_2   0.249974 0.806206 0.481267 -0.132641
C75   C     C_2   0.692528 0.251372 0.982029 -0.137033
C76   C     C_2   0.748629 0.692529 0.982027 -0.136760
C77   C     C_2   0.306315 0.749815 0.981346 -0.133571
C78   C     C_2   0.250183 0.306314 0.981346 -0.133791
C79   C     C_2   0.307481 0.251316 0.982010 -0.132904
C80   C     C_R   0.500001 0.999994 0.218393 0.283995
C81   C     C_2   0.251317 0.692518 0.982010 -0.132638
C82   C     C_2   0.693794 0.749973 0.981266 -0.132433
C83   C     C_2   0.749972 0.306208 0.981268 -0.132613
C84   C     C_2   0.196267 0.691553 0.499540 -0.288411
C85   C     C_2   0.308447 0.196267 0.499540 -0.288417
C86   C     C_2   0.803734 0.308446 0.499539 -0.288412
C87   C     C_2   0.691554 0.803735 0.499539 -0.288405
C88   C     C_2   0.806500 0.694302 0.501197 -0.303245
C89   C     C_2   0.694303 0.193499 0.501198 -0.303262
C90   C     C_2   0.193497 0.305696 0.501197 -0.303248
C91   C     C_R   0.000005 0.500003 0.218393 0.283993
C92   C     C_2   0.305696 0.806503 0.501197 -0.303246
C93   C     C_2   0.696266 0.191553 0.999540 -0.288338
C94   C     C_2   0.808448 0.696268 0.999539 -0.288491
C95   C     C_2   0.306482 0.805687 0.001204 -0.293693
C96   C     C_2   0.194314 0.306483 0.001205 -0.293604
C97   C     C_2   0.303753 0.191533 0.999538 -0.300118
C98   C     C_2   0.191533 0.696247 0.999538 -0.300254
C99   C     C_2   0.693497 0.805695 0.001197 -0.303272
C100  C     C_2   0.805696 0.306503 0.001197 -0.303183
C101  C     C_R   0.457764 0.949088 0.364951 0.399346
C102  C     C_R   0.500000 0.999996 0.281584 0.364334
C103  C     C_R   0.050927 0.457782 0.364952 0.399336
C104  C     C_R   0.542236 0.050909 0.364953 0.399347
C105  C     C_R   0.949070 0.542210 0.364953 0.399339
C106  C     C_R   0.957816 0.449044 0.864952 0.399321
C107  C     C_R   0.550938 0.957788 0.864952 0.399376
C108  C     C_R   0.042172 0.550959 0.864954 0.398701
C109  C     C_R   0.449062 0.042194 0.864953 0.398681
C110  C     C_R   0.457473 0.950559 0.332389 -0.207647
C111  C     C_R   0.049458 0.457492 0.332389 -0.207639
C112  C     C_R   0.542527 0.049436 0.332390 -0.207646
H1    H     H_    0.145888 0.760728 0.467246 0.188912
H2    H     H_    0.739270 0.645885 0.967246 0.188911
H3    H     H_    0.348648 0.744828 0.963981 0.191101
H4    H     H_    0.255166 0.348644 0.963981 0.190963
H5    H     H_    0.354042 0.260566 0.967167 0.197105
H6    H     H_    0.260567 0.645956 0.967165 0.197249
H7    H     H_    0.651664 0.745195 0.963795 0.201403
H8    H     H_    0.745192 0.348339 0.963799 0.201292
H9    H     H_    0.242584 0.679095 0.513860 0.153895
H10   H     H_    0.320906 0.242586 0.513860 0.153895
H11   H     H_    0.757416 0.320908 0.513858 0.153898
H12   H     H_    0.239270 0.145885 0.467245 0.188913
H13   H     H_    0.679095 0.757420 0.513860 0.153898
H14   H     H_    0.766690 0.688397 0.519410 0.154763
H15   H     H_    0.688400 0.233308 0.519412 0.154763
H16   H     H_    0.233303 0.311599 0.519412 0.154764
H17   H     H_    0.311599 0.766697 0.519412 0.154767
H18   H     H_    0.742584 0.179095 0.013859 0.153933
H19   H     H_    0.820908 0.742588 0.013858 0.153842
H20   H     H_    0.266470 0.811820 0.019319 0.151830
H21   H     H_    0.188185 0.266475 0.019321 0.151879
H22   H     H_    0.257540 0.179170 0.013932 0.156558
H23   H     H_    0.854113 0.239263 0.467246 0.188908
H24   H     H_    0.179170 0.742461 0.013933 0.156460
H25   H     H_    0.733301 0.811597 0.019413 0.154736
H26   H     H_    0.811600 0.266697 0.019411 0.154785
H27   H     H_    0.424862 0.911947 0.319749 0.208612
H28   H     H_    0.088085 0.424900 0.319749 0.208611
H29   H     H_    0.575138 0.088048 0.319751 0.208613
H30   H     H_    0.911915 0.575095 0.319752 0.208610
H31   H     H_    0.924958 0.411863 0.819750 0.208597
H32   H     H_    0.588103 0.924912 0.819749 0.208593
H33   H     H_    0.075032 0.588137 0.819753 0.208578
H34   H     H_    0.760733 0.854109 0.467246 0.188913
H35   H     H_    0.411906 0.075076 0.819751 0.208569
H36   H     H_    0.886896 0.471622 0.679632 0.158194
H37   H     H_    0.528270 0.886870 0.679630 0.158196
H38   H     H_    0.113105 0.528373 0.679633 0.158188
H39   H     H_    0.471752 0.113140 0.679635 0.158195
H40   H     H_    0.386885 0.971660 0.179631 0.158199
H41   H     H_    0.028367 0.386895 0.179629 0.158195
H42   H     H_    0.613116 0.028329 0.179632 0.158205
H43   H     H_    0.971643 0.613113 0.179634 0.158206
H44   H     H_    0.886851 0.471975 0.622865 0.164244
H45   H     H_    0.848344 0.754804 0.463800 0.201326
H46   H     H_    0.527914 0.886825 0.622865 0.164263
H47   H     H_    0.113150 0.528023 0.622866 0.164243
H48   H     H_    0.472096 0.113183 0.622869 0.164259
H49   H     H_    0.386841 0.972012 0.122865 0.164182
H50   H     H_    0.028014 0.386850 0.122864 0.164166
H51   H     H_    0.613160 0.027980 0.122866 0.164253
H52   H     H_    0.971992 0.613157 0.122868 0.164260
H53   H     H_    0.418077 0.818441 0.426067 0.377082
H54   H     H_    0.181577 0.418142 0.426073 0.377077
H55   H     H_    0.581923 0.181560 0.426072 0.377082
H56   H     H_    0.754804 0.151656 0.463798 0.201326
H57   H     H_    0.818421 0.581849 0.426076 0.377076
H58   H     H_    0.918244 0.318385 0.926076 0.377146
H59   H     H_    0.681599 0.918173 0.926072 0.377070
H60   H     H_    0.081653 0.681722 0.926057 0.377709
H61   H     H_    0.318304 0.081728 0.926049 0.377795
H62   H     H_    0.151662 0.245193 0.463796 0.201321
H63   H     H_    0.245195 0.848336 0.463797 0.201323
H64   H     H_    0.645886 0.260730 0.967248 0.188729
N1    N     N_R   0.554054 0.032419 0.265476 -0.153998
N2    N     N_R   0.467807 0.054189 0.734500 -0.164002
N3    N     N_R   0.945871 0.467698 0.734497 -0.163985
N4    N     N_R   0.532219 0.945820 0.734497 -0.163998
N5    N     N_R   0.554156 0.032249 0.234497 -0.163975
N6    N     N_R   0.967732 0.554148 0.234498 -0.163975
N7    N     N_R   0.445845 0.967741 0.234496 -0.163984
N8    N     N_R   0.032277 0.445858 0.234496 -0.163981
N9    N     N_R   0.967562 0.554044 0.265477 -0.153996
N10   N     N_R   0.445946 0.967573 0.265475 -0.153998
N11   N     N_R   0.032445 0.445958 0.265474 -0.153997
N12   N     N_R   0.054028 0.532463 0.765477 -0.154040
N13   N     N_R   0.467636 0.054085 0.765478 -0.154009
N14   N     N_R   0.945973 0.467529 0.765475 -0.154005
N15   N     N_R   0.532388 0.945920 0.765475 -0.154012
N16   N     N_R   0.054130 0.532294 0.734499 -0.163997
O1    O     O_3   0.500000 1.000000 0.500000 -0.507579
O2    O     O_R   0.560150 0.000000 0.069320 -0.646133
O3    O     O_R   0.000000 0.560150 0.069320 -0.645831
O4    O     O_R   0.439850 0.000000 0.069320 -0.646109
O5    O     O_R   0.439930 1.000000 0.430670 -0.588954
O6    O     O_R   1.000000 0.439930 0.430670 -0.588970
O7    O     O_R   0.560070 1.000000 0.430670 -0.588955
O8    O     O_R   0.000000 0.560070 0.430670 -0.588963
O9    O     O_R   0.939930 0.500000 0.930670 -0.588898
O10   O     O_R   0.500000 0.939930 0.930670 -0.589295
O11   O     O_R   0.060070 0.500000 0.930670 -0.589262
O12   O     O_3   1.000000 0.500000 0.500000 -0.507579
O13   O     O_R   0.500000 0.060070 0.930670 -0.588839
O14   O     O_R   0.415450 0.144560 0.518170 -0.644417
O15   O     O_R   0.855440 0.415450 0.518170 -0.644415
O16   O     O_R   0.584550 0.855440 0.518170 -0.644411
O17   O     O_R   0.144560 0.584550 0.518170 -0.644418
O18   O     O_R   0.584550 0.144560 0.518170 -0.642234
O19   O     O_R   0.144560 0.415450 0.518170 -0.642228
O20   O     O_R   0.415450 0.855440 0.518170 -0.642227
O21   O     O_R   0.855440 0.584550 0.518170 -0.642231
O22   O     O_R   0.915450 0.644560 0.018170 -0.644667
O23   O     O_3   0.000000 0.500000 0.000000 -0.507564
O24   O     O_R   0.355440 0.915450 0.018170 -0.644231
O25   O     O_R   0.084550 0.355440 0.018170 -0.643908
O26   O     O_R   0.644560 0.084550 0.018170 -0.644348
O27   O     O_R   0.084550 0.644560 0.018170 -0.642667
O28   O     O_R   0.644560 0.915450 0.018170 -0.642281
O29   O     O_R   0.915450 0.355440 0.018170 -0.641979
O30   O     O_R   0.355440 0.084550 0.018170 -0.642365
O31   O     O_R   0.644640 0.915430 0.481820 -0.635104
O32   O     O_R   0.084570 0.644640 0.481820 -0.635101
O33   O     O_R   0.355360 0.084570 0.481820 -0.635100
O34   O     O_3   0.500000 0.000000 0.000000 -0.507565
O35   O     O_R   0.915430 0.355360 0.481820 -0.635104
O36   O     O_R   0.355360 0.915430 0.481820 -0.623995
O37   O     O_R   0.915430 0.644640 0.481820 -0.623989
O38   O     O_R   0.644640 0.084570 0.481820 -0.623989
O39   O     O_R   0.084570 0.355360 0.481820 -0.623997
O40   O     O_R   0.144640 0.415430 0.981820 -0.636075
O41   O     O_R   0.584570 0.144640 0.981820 -0.635390
O42   O     O_R   0.855360 0.584570 0.981820 -0.635078
O43   O     O_R   0.415430 0.855360 0.981820 -0.635749
O44   O     O_R   0.855360 0.415430 0.981820 -0.624024
O45   O     O_R   0.500000 0.939850 0.569320 -0.646124
O46   O     O_R   0.415430 0.144640 0.981820 -0.623479
O47   O     O_R   0.144640 0.584570 0.981820 -0.623215
O48   O     O_R   0.584570 0.855360 0.981820 -0.623749
O49   O     O_2   0.338010 0.914373 0.396192 -0.276461
O50   O     O_2   0.387339 0.821847 0.361500 -0.262528
O51   O     O_3   0.453746 0.846016 0.413673 -0.575987
O52   O     O_2   0.085684 0.338040 0.396190 -0.276475
O53   O     O_2   0.178196 0.387410 0.361504 -0.262518
O54   O     O_3   0.153992 0.453802 0.413679 -0.576005
O55   O     O_2   0.661990 0.085626 0.396195 -0.276463
O56   O     O_R   0.060150 0.500000 0.569320 -0.646123
O57   O     O_2   0.612661 0.178150 0.361505 -0.262527
O58   O     O_3   0.546254 0.153984 0.413678 -0.575987
O59   O     O_2   0.914307 0.661953 0.396194 -0.276475
O60   O     O_2   0.821797 0.612574 0.361508 -0.262518
O61   O     O_3   0.846007 0.546189 0.413681 -0.576005
O62   O     O_2   0.838092 0.414225 0.896191 -0.276478
O63   O     O_2   0.887519 0.321734 0.861506 -0.262543
O64   O     O_3   0.953890 0.345986 0.913681 -0.576160
O65   O     O_2   0.585709 0.838055 0.896194 -0.276634
O66   O     O_2   0.678214 0.887429 0.861506 -0.262531
O67   O     O_R   0.500000 0.060150 0.569320 -0.646135
O68   O     O_3   0.654004 0.953827 0.913679 -0.575959
O69   O     O_2   0.161870 0.585824 0.896204 -0.274861
O70   O     O_2   0.112434 0.678287 0.861511 -0.262624
O71   O     O_3   0.046040 0.654033 0.913680 -0.576093
O72   O     O_2   0.414242 0.161906 0.896205 -0.274679
O73   O     O_2   0.321766 0.112514 0.861505 -0.262661
O74   O     O_3   0.345979 0.046103 0.913672 -0.576263
O75   O     O_R   0.939850 0.500000 0.569320 -0.646122
O76   O     O_R   1.000000 0.439850 0.069320 -0.646409
S1    S     S_3+6 0.406348 0.881204 0.383907 0.049044
S2    S     S_3+6 0.118828 0.406392 0.383909 0.049035
S3    S     S_3+6 0.593652 0.118794 0.383911 0.049044
S4    S     S_3+6 0.881167 0.593597 0.383912 0.049036
S5    S     S_3+6 0.906465 0.381117 0.883911 0.048935
S6    S     S_3+6 0.618845 0.906409 0.883911 0.048967
S7    S     S_3+6 0.093495 0.618906 0.883916 0.049793
S8    S     S_3+6 0.381133 0.093546 0.883912 0.049776
Zn1   Zn    Zn3+2 0.414160 0.000000 0.474030 1.051356
Zn2   Zn    Zn3+2 0.914220 0.500000 0.525960 0.979412
Zn3   Zn    Zn3+2 0.500000 0.914220 0.525960 0.979409
Zn4   Zn    Zn3+2 0.085780 0.500000 0.525960 0.979410
Zn5   Zn    Zn3+2 0.000000 0.585780 0.025960 0.979206
Zn6   Zn    Zn3+2 0.414220 1.000000 0.025960 0.979401
Zn7   Zn    Zn3+2 1.000000 0.414220 0.025960 0.979602
Zn8   Zn    Zn3+2 0.585780 1.000000 0.025960 0.979405
Zn9   Zn    Zn3+2 1.000000 0.414160 0.474030 1.051358
Zn10  Zn    Zn3+2 0.585840 0.000000 0.474030 1.051356
Zn11  Zn    Zn3+2 0.000000 0.585840 0.474030 1.051352
Zn12  Zn    Zn3+2 0.914160 0.500000 0.974030 1.051334
Zn13  Zn    Zn3+2 0.500000 0.914160 0.974030 1.051024
Zn14  Zn    Zn3+2 0.085840 0.500000 0.974030 1.051049
Zn15  Zn    Zn3+2 0.500000 0.085840 0.974030 1.051369
Zn16  Zn    Zn3+2 0.500000 0.085780 0.525960 0.979412

loop_
_geom_bond_atom_site_label_1
_geom_bond_atom_site_label_2
_ccdc_geom_bond_type
C9    C111  A    
O16   Zn3   S    
C31   H49   S    
O12   Zn11  S    
O1    Zn3   S    
C12   C101  A    
C66   H1    S    
C48   O10   A    
O66   S6    D    
C24   C42   A    
C82   C99   D    
O57   S3    D    
C47   O2    A    
O49   S1    D    
C36   O76   A    
C46   O11   A    
O30   Zn6   S    
C108  S7    S    
C67   H12   S    
C16   C48   S    
C4    H31   S    
O34   Zn6   S    
C57   O42   A    
C50   O35   A    
C23   C43   A    
C29   H47   S    
C17   N15   A    
C45   O8    A    
C42   C80   S    
O70   S7    D    
C3    H30   S    
O65   S6    D    
O72   S8    D    
O8    Zn11  S    
O18   Zn16  S    
C27   C35   A    
O63   S5    D    
O11   Zn14  S    
O52   S2    D    
C82   H7    S    
C15   C106  A    
C110  H27   S    
C33   H51   S    
C73   C90   D    
C12   C104  A    
C34   H52   S    
O35   Zn9   S    
C69   N4    A    
O40   Zn14  S    
C20   C40   A    
N1    N5    A    
O25   Zn7   S    
C81   C98   D    
O12   Zn4   S    
O61   S4    S    
O26   Zn8   S    
C66   C74   S    
C98   H24   S    
C8    C102  S    
O34   Zn13  S    
C61   O41   A    
O23   Zn12  S    
C103  C111  A    
O19   Zn4   S    
C80   N7    A    
C74   C92   D    
C73   H62   S    
C52   C84   S    
C107  S6    S    
C18   C40   A    
C2    N11   A    
H61   O74   S    
C63   C99   S    
C95   H20   S    
C16   C107  A    
C76   C94   D    
C55   O20   A    
C62   C98   S    
C26   C34   A    
C46   O9    A    
C25   O56   A    
C99   H25   S    
C78   C96   D    
C53   O18   A    
C32   H50   S    
C48   O13   A    
C26   C43   A    
O10   Zn13  S    
C88   H14   S    
O41   Zn15  S    
C58   N3    A    
H53   O51   S    
O12   Zn2   S    
H59   O68   S    
C1    C37   S    
C53   O38   A    
O6    Zn9   S    
O5    Zn1   S    
C50   O15   A    
C70   H34   S    
C112  H29   S    
C30   H48   S    
C44   O5    A    
C13   N12   A    
C60   O40   A    
C91   N8    A    
O37   Zn11  S    
O2    Zn8   S    
C72   H56   S    
C63   O28   A    
C89   H15   S    
C26   H43   S    
C106  S5    S    
C59   C95   S    
C97   H22   S    
C19   H37   S    
C70   C87   D    
O1    Zn16  S    
C28   H46   S    
C65   O30   A    
C25   O75   A    
O62   S5    D    
C24   H42   S    
C16   C109  A    
C14   C45   S    
C7    H35   S    
C20   C29   A    
C14   C105  A    
O1    Zn1   S    
C71   H45   S    
C22   H40   S    
O12   Zn9   S    
C67   C85   D    
C76   C82   S    
C40   C58   S    
C22   C31   A    
O76   Zn7   S    
C34   C39   A    
H54   O54   S    
C103  S2    S    
H57   O61   S    
C47   O4    A    
O29   Zn7   S    
C61   O26   A    
C105  S4    S    
C67   C73   S    
C21   C41   A    
N7    N10   A    
O74   S8    S    
C63   O48   A    
C104  C112  A    
N2    N13   A    
C50   C86   S    
C59   O24   A    
O60   S4    D    
C5    H32   S    
N4    N15   A    
C17   N13   A    
C101  C110  A    
C4    C106  A    
C81   H6    S    
C77   C95   D    
C43   C91   S    
C62   O47   A    
C7    C109  A    
C30   C37   A    
C83   H8    S    
N6    N9    A    
O24   Zn6   S    
C15   C108  A    
O13   Zn15  S    
C7    C11   A    
O51   S1    S    
O14   Zn16  S    
C55   C92   S    
O48   Zn13  S    
C24   C33   A    
C49   C85   S    
C69   N2    A    
O31   Zn10  S    
O55   S3    D    
O73   S8    D    
C76   H2    S    
C3    C105  A    
C77   C81   S    
C68   C72   S    
O27   Zn5   S    
O38   Zn10  S    
O3    Zn5   S    
O23   Zn5   S    
O34   Zn15  S    
C56   O21   A    
C85   H10   S    
O28   Zn8   S    
C6    C108  A    
C102  N10   A    
C80   N5    A    
C57   O22   A    
O56   Zn4   S    
C19   C28   A    
H55   O58   S    
O9    Zn12  S    
O47   Zn14  S    
C38   C47   S    
C70   C71   S    
O58   S3    S    
C25   C35   S    
O15   Zn2   S    
O44   Zn12  S    
C68   C86   D    
C60   C96   S    
O50   S1    D    
C54   O19   A    
C3    C9    A    
O22   Zn5   S    
C52   O32   A    
O71   S7    S    
C83   C100  D    
C23   H41   S    
C5    C11   A    
C58   N16   A    
C52   O17   A    
O23   Zn7   S    
C65   O46   A    
C49   O33   A    
C93   H18   S    
O23   Zn14  S    
C54   O39   A    
C87   H13   S    
C75   C93   D    
C55   O36   A    
C41   C69   S    
C5    C107  A    
C27   H44   S    
C6    H33   S    
O7    Zn10  S    
O21   Zn2   S    
C11   C17   S    
C90   H16   S    
O75   Zn2   S    
O45   Zn3   S    
C75   H64   S    
C51   O16   A    
C79   C97   D    
C36   C39   S    
C78   H4    S    
C18   C27   A    
O43   Zn13  S    
C4    C10   A    
O54   S2    S    
C10   C13   S    
O59   S4    D    
C6    C10   A    
C59   O43   A    
O46   Zn15  S    
C31   C38   A    
C64   O44   A    
C96   H21   S    
O69   S7    D    
C54   C90   S    
O36   Zn1   S    
O17   Zn4   S    
C21   C30   A    
C29   C35   A    
C111  H28   S    
O4    Zn6   S    
C94   H19   S    
C100  H26   S    
N8    N11   A    
H58   O64   S    
N12   N16   A    
C1    O45   A    
C62   O27   A    
H60   O71   S    
C8    C112  A    
C92   H17   S    
C84   H9    S    
C2    N9    A    
O68   S6    S    
C74   H63   S    
C12   C44   S    
C60   O25   A    
C23   C32   A    
C53   C89   S    
C72   C89   D    
C78   C79   S    
C75   C83   S    
C14   C103  A    
C22   C42   A    
N3    N14   A    
C101  S1    S    
C28   C37   A    
C68   H23   S    
O42   Zn12  S    
C79   H5    S    
C57   C94   S    
C20   H38   S    
C56   O37   A    
O53   S2    D    
C61   C93   S    
C64   O29   A    
C21   H39   S    
C45   O6    A    
O64   S5    S    
O34   Zn8   S    
C36   O3    A    
C109  S8    S    
C104  S3    S    
C13   N14   A    
C18   H36   S    
C66   C84   D    
C71   C88   D    
O20   Zn3   S    
C64   C100  S    
O32   Zn11  S    
C56   C88   S    
C49   O14   A    
C65   C97   S    
C44   O7    A    
O67   Zn16  S    
C91   N6    A    
C8    C110  A    
C86   H11   S    
C32   C39   A    
C102  N1    A    
O33   Zn1   S    
O39   Zn9   S    
C33   C38   A    
C15   C46   S    
C77   H3    S    
C2    C9    S    
C51   O31   A    
C51   C87   S    
C19   C41   A    
O1    Zn10  S    
C1    O67   A    
