data_mof_unit_49385.cif
_audit_creation_date              2013-03-05T15:57:57-0500
_audit_creation_method            fapswitch 2.2
_symmetry_space_group_name_H-M    P1
_symmetry_Int_Tables_number       1
_space_group_crystal_system       triclinic
_cell_length_a                    15.149931
_cell_length_b                    15.374082
_cell_length_c                    17.293551
_cell_angle_alpha                 109.061297
_cell_angle_beta                  106.414216
_cell_angle_gamma                 109.254795
_cell_volume                      3232.11588918

loop_
_atom_site_label
_atom_site_type_symbol
_atom_site_description
_atom_site_fract_x
_atom_site_fract_y
_atom_site_fract_z
_atom_type_partial_charge
C1    C     C_R   0.087795 0.276707 0.041258 -0.097859
C2    C     C_R   0.915861 0.715030 0.930056 -0.129224
H1    H     H_    0.165361 0.292157 0.081310 0.104766
H2    H     H_    0.839270 0.691944 0.880759 0.108784
N1    N     N_R   0.055660 0.348550 0.045620 -0.049518
N2    N     N_R   0.944340 0.651450 0.954380 -0.040855
C3    C     C_R   0.935037 0.507760 0.743858 -0.020034
C4    C     C_R   0.065491 0.480403 0.250886 -0.002476
N3    N     N_R   0.960830 0.507850 0.823700 -0.046963
N4    N     N_R   0.039170 0.492150 0.176300 -0.061313
C5    C     C_R   0.747379 0.203613 0.809636 -0.086995
C6    C     C_R   0.229212 0.796405 0.188343 -0.100984
H3    H     H_    0.711604 0.140510 0.823027 0.108076
H4    H     H_    0.251189 0.861881 0.174625 0.127472
N5    N     N_R   0.811290 0.303410 0.871650 -0.046478
N6    N     N_R   0.188710 0.696590 0.128350 -0.048685
C7    C     C_R   0.287656 0.565677 0.981032 -0.088372
C8    C     C_R   0.736255 0.462717 0.044598 -0.109266
H5    H     H_    0.322135 0.618476 0.957425 0.117738
H6    H     H_    0.706122 0.419135 0.076915 0.136940
N7    N     N_R   0.205200 0.552990 0.997670 -0.054409
N8    N     N_R   0.794800 0.447010 0.002330 -0.052635
C9    C     C_R   0.762891 0.298607 0.735194 -0.143962
C10   C     C_R   0.219485 0.701922 0.263748 -0.143642
H7    H     H_    0.747179 0.321504 0.682333 0.121050
H8    H     H_    0.230021 0.680635 0.317926 0.105507
N9    N     N_R   0.814800 0.361830 0.823700 -0.035497
N10   N     N_R   0.185200 0.638170 0.176300 -0.044986
C11   C     C_R   0.276196 0.467358 0.053661 -0.100753
C12   C     C_R   0.752708 0.563420 0.974538 -0.104802
H9    H     H_    0.294688 0.427570 0.091799 0.093822
H10   H     H_    0.743142 0.614709 0.946557 0.104399
N11   N     N_R   0.201680 0.494570 0.045620 -0.051023
N12   N     N_R   0.798320 0.505430 0.954380 -0.054912
C13   C     C_R   0.107542 0.588419 0.818443 0.060034
C14   C     C_R   0.894112 0.401178 0.177766 0.030010
N13   N     N_R   0.068420 0.560530 0.871650 -0.062076
N14   N     N_R   0.931580 0.439470 0.128350 -0.047325
C15   C     C_R   0.915997 0.195772 0.955660 -0.133405
C16   C     C_R   0.087657 0.800173 0.014205 -0.146962
H11   H     H_    0.837653 0.140100 0.911368 0.103128
H12   H     H_    0.168487 0.853330 0.045627 0.104570
N15   N     N_R   0.948070 0.295860 0.997670 -0.048674
N16   N     N_R   0.051930 0.704140 0.002330 -0.045336
C17   C     C_R   0.000146 0.179724 0.983059 0.107816
C18   C     C_R   0.004044 0.810593 0.971324 0.102296
C19   C     C_R   0.025451 0.556045 0.738416 0.025055
C20   C     C_R   0.976160 0.424111 0.253757 0.021790
C21   C     C_R   0.724361 0.199108 0.724621 0.022355
C22   C     C_R   0.245271 0.800739 0.272598 0.047061
C23   C     C_R   0.330810 0.511715 0.014471 0.160354
C24   C     C_R   0.708113 0.533454 0.026027 0.178806
C25   C     C_R   0.920869 0.920657 0.977824 -0.041204
C26   C     C_R   0.078881 0.064489 0.961866 -0.057316
C27   C     C_R   0.005602 0.905394 0.972607 0.007511
C28   C     C_R   0.993934 0.079061 0.967034 0.013315
C29   C     C_R   0.087036 0.978883 0.967358 -0.007527
C30   C     C_R   0.910358 0.002521 0.967626 0.022466
C31   C     C_R   0.728285 0.946528 0.859804 -0.138288
C32   C     C_R   0.272840 0.024590 0.056787 -0.157021
Ni1   Ni    Ni4+2 0.119340 0.493420 0.109960 0.214362
Ni2   Ni    Ni4+2 0.880660 0.506580 0.890040 0.227909
Ni3   Ni    Ni4+2 0.872590 0.372590 0.000000 0.237199
Ni4   Ni    Ni4+2 0.127410 0.627410 0.000000 0.218303
C33   C     C_R   0.622559 0.018145 0.913495 0.280516
C34   C     C_R   0.358659 0.939031 0.983958 0.253104
H13   H     H_    0.443201 0.661692 0.402135 0.190661
H14   H     H_    0.562327 0.358164 0.624901 0.179879
C35   C     C_R   0.481079 0.711921 0.308838 -0.148512
C36   C     C_R   0.530112 0.317943 0.724738 -0.147006
H15   H     H_    0.480384 0.784695 0.340934 0.142333
H16   H     H_    0.519043 0.240043 0.690128 0.135508
C37   C     C_R   0.501958 0.688555 0.232842 0.039228
C38   C     C_R   0.519479 0.350018 0.805616 0.057559
C39   C     C_R   0.500615 0.592148 0.190724 0.120737
C40   C     C_R   0.534758 0.452443 0.850470 0.106321
C41   C     C_R   0.481564 0.522626 0.227539 -0.218510
C42   C     C_R   0.555494 0.518786 0.810827 -0.221863
H17   H     H_    0.480145 0.448592 0.194613 0.179140
H18   H     H_    0.565562 0.596739 0.844876 0.178580
C43   C     C_R   0.460358 0.546211 0.303745 0.368127
C44   C     C_R   0.566278 0.486313 0.729609 0.381249
C45   C     C_R   0.459953 0.641498 0.343763 -0.228809
C46   C     C_R   0.554347 0.385463 0.687455 -0.224313
C47   C     C_R   0.607606 0.570924 0.106764 0.318358
C48   C     C_R   0.434030 0.481247 0.936943 0.323166
C49   C     C_R   0.614957 0.537021 0.024219 -0.156708
C50   C     C_R   0.426783 0.515156 0.019223 -0.158598
C51   C     C_R   0.528783 0.492200 0.938785 -0.162334
C52   C     C_R   0.511807 0.558874 0.104532 -0.162784
C53   C     C_R   0.635342 0.954858 0.841337 0.261666
C54   C     C_R   0.360263 0.008049 0.062833 0.274931
C55   C     C_R   0.972511 0.426250 0.335458 0.053793
C56   C     C_R   0.031142 0.550099 0.656624 0.050599
C57   C     C_R   0.081426 0.632538 0.569641 0.380147
C58   C     C_R   0.925814 0.342103 0.422969 0.379772
C59   C     C_R   0.085193 0.639105 0.652169 -0.239446
C60   C     C_R   0.922082 0.335898 0.340119 -0.254786
C61   C     C_R   0.979125 0.452167 0.582228 -0.160450
C62   C     C_R   0.024192 0.523579 0.410332 -0.149644
C63   C     C_R   0.977982 0.441516 0.499683 -0.024321
C64   C     C_R   0.027593 0.533321 0.492960 -0.026868
H19   H     H_    0.062845 0.591573 0.403167 0.161782
H20   H     H_    0.938322 0.385126 0.589659 0.165096
H21   H     H_    0.883895 0.260883 0.280764 0.151114
H22   H     H_    0.125583 0.713743 0.711559 0.164198
C65   C     C_R   0.651209 0.111292 0.637742 0.059375
C66   C     C_R   0.313362 0.891972 0.358706 0.033171
C67   C     C_R   0.363367 0.972503 0.520075 0.017723
C68   C     C_R   0.600375 0.036014 0.476210 -0.001064
C69   C     C_R   0.285533 0.910591 0.431104 0.030808
C70   C     C_R   0.678343 0.092331 0.564818 0.031456
C71   C     C_R   0.415934 0.940674 0.373451 -0.222745
C72   C     C_R   0.548375 0.067657 0.623421 -0.190894
C73   C     C_R   0.495177 0.997277 0.461203 0.069124
C74   C     C_R   0.468830 0.012045 0.535540 0.073158
H23   H     H_    0.531536 0.084785 0.681859 0.154736
H24   H     H_    0.433618 0.923783 0.315429 0.150883
C75   C     C_R   0.696057 0.059067 0.003368 -0.259893
C76   C     C_R   0.274647 0.897528 0.899256 -0.208715
H25   H     H_    0.682877 0.099866 0.059282 0.211110
H26   H     H_    0.275098 0.849379 0.837892 0.217092
C77   C     C_R   0.788766 0.051851 0.022157 -0.009587
C78   C     C_R   0.186534 0.910857 0.892882 -0.009709
C79   C     C_R   0.807305 0.999677 0.950200 -0.010402
C80   C     C_R   0.183542 0.971471 0.972099 -0.018254
N17   N     N_3   0.743473 0.887393 0.785861 -0.122301
H27   H     H_    0.808092 0.937358 0.783714 0.127151
H28   H     H_    0.759351 0.830859 0.798378 0.168609
N18   N     N_3   0.273059 0.089716 0.138291 -0.133957
H29   H     H_    0.211771 0.045392 0.147675 0.137227
H30   H     H_    0.260970 0.150092 0.130779 0.150542
N19   N     N_3   0.524888 0.763781 0.200139 -0.200162
H31   H     H_    0.597513 0.781024 0.199818 0.164720
H32   H     H_    0.469314 0.731093 0.133299 0.134247
N20   N     N_3   0.491325 0.276950 0.839749 -0.183853
H33   H     H_    0.422240 0.269011 0.844809 0.160918
H34   H     H_    0.549240 0.306725 0.904904 0.132780
N21   N     N_R   0.437701 0.473135 0.339272 0.245082
O1    O     O_R   0.417446 0.494668 0.409517 -0.334006
O2    O     O_R   0.436314 0.384008 0.301320 -0.371215
N22   N     N_R   0.589125 0.555344 0.690276 0.240700
O3    O     O_R   0.589415 0.644584 0.723883 -0.376974
O4    O     O_R   0.608179 0.528955 0.619607 -0.355713
N23   N     N_R   0.697921 0.619125 0.192035 0.237454
O5    O     O_R   0.698109 0.581277 0.249220 -0.376412
O6    O     O_R   0.782973 0.696107 0.209481 -0.379408
N24   N     N_R   0.343509 0.431258 0.851380 0.234178
O7    O     O_R   0.262104 0.348626 0.831399 -0.388918
O8    O     O_R   0.339997 0.471761 0.795950 -0.374246
N25   N     N_R   0.129445 0.726878 0.564686 0.222930
O9    O     O_R   0.220530 0.799833 0.628668 -0.363820
O10   O     O_R   0.073571 0.749420 0.509771 -0.395517
N26   N     N_R   0.879201 0.247507 0.428173 0.225117
O11   O     O_R   0.791235 0.171230 0.361879 -0.376464
O12   O     O_R   0.933705 0.229451 0.488260 -0.382999
N27   N     N_3   0.835408 0.493812 0.690498 -0.210324
H35   H     H_    0.844518 0.565405 0.693378 0.146453
H36   H     H_    0.811100 0.442262 0.622849 0.126246
N28   N     N_3   0.164371 0.488248 0.298150 -0.182770
H37   H     H_    0.200546 0.550626 0.363426 0.132421
H38   H     H_    0.210706 0.505545 0.265101 0.111786
N29   N     N_R   0.554167 0.898032 0.749920 0.273890
O13   O     O_R   0.459467 0.840340 0.733624 -0.270250
O14   O     O_R   0.575608 0.896950 0.681971 -0.383894
N30   N     N_R   0.450363 0.062113 0.148843 0.276062
O15   O     O_R   0.541628 0.114929 0.155472 -0.318528
O16   O     O_R   0.441038 0.063297 0.221661 -0.396344
N31   N     N_3   0.785027 0.132005 0.579683 -0.149651
H39   H     H_    0.823508 0.110306 0.624494 0.146309
H40   H     H_    0.820043 0.213067 0.609534 0.134465
N32   N     N_3   0.178800 0.865088 0.415346 -0.143817
H41   H     H_    0.148026 0.784245 0.384703 0.150423
H42   H     H_    0.137671 0.884808 0.370225 0.147477
N33   N     N_3   0.333511 0.990257 0.593243 -0.148419
H43   H     H_    0.363393 0.070304 0.632234 0.122518
H44   H     H_    0.365227 0.960757 0.633884 0.227940
N34   N     N_3   0.630316 0.023254 0.403141 -0.147791
H45   H     H_    0.598883 0.055471 0.365233 0.203424
H46   H     H_    0.601339 0.944122 0.361454 0.127235
N35   N     N_R   0.540176 0.047201 0.896794 0.258612
O17   O     O_R   0.525925 0.098819 0.964424 -0.392734
O18   O     O_R   0.492797 0.040619 0.817986 -0.403082
N36   N     N_R   0.437314 0.904849 0.989250 0.248411
O19   O     O_R   0.441401 0.852269 0.915335 -0.376939
O20   O     O_R   0.491878 0.908574 0.064522 -0.380587
N37   N     N_3   0.866899 0.102459 0.113921 -0.198350
H47   H     H_    0.832898 0.077106 0.152473 0.156491
H48   H     H_    0.891973 0.182334 0.139293 0.109714
N38   N     N_3   0.099303 0.859054 0.805580 -0.192377
H49   H     H_    0.081362 0.914210 0.792244 0.144422
H50   H     H_    0.035463 0.807662 0.807537 0.114108
N39   N     N_3   0.209792 0.668074 0.850113 -0.208329
H51   H     H_    0.253206 0.632188 0.830926 0.186543
H52   H     H_    0.242868 0.709220 0.921001 0.102960
N40   N     N_3   0.787128 0.335456 0.149076 -0.201760
H53   H     H_    0.781191 0.266990 0.151163 0.110163
H54   H     H_    0.765766 0.371545 0.197912 0.167847
N41   N     N_3   0.847622 0.854803 0.997833 -0.205879
H55   H     H_    0.773104 0.817603 0.944526 0.130058
H56   H     H_    0.847378 0.900539 0.057608 0.153296
N42   N     N_3   0.154226 0.135486 0.947355 -0.197009
H57   H     H_    0.228007 0.169039 0.000497 0.123649
H58   H     H_    0.155634 0.094388 0.886634 0.148117

loop_
_geom_bond_atom_site_label_1
_geom_bond_atom_site_label_2
_geom_bond_distance
_ccdc_geom_bond_type
N6    N10   1.406058 A    
C22   C66   1.436060 S    
H13   C45   1.082530 S    
N27   H35   1.045526 S    
C37   C39   1.412217 A    
C65   C70   1.405815 A    
C25   C27   1.400497 A    
C2    H2    1.082051 S    
N29   O13   1.301318 A    
C44   N22   1.439135 S    
C13   C19   1.370717 A    
C7    C23   1.381123 A    
C78   N38   1.432831 S    
N23   O5    1.300744 A    
N15   Ni3   1.893546 S    
N33   H44   1.044812 S    
C33   N35   1.445338 S    
N35   O17   1.301440 A    
C2    C18   1.390836 A    
C16   C18   1.364086 A    
N38   H49   1.044235 S    
C60   H21   1.081434 S    
N42   H58   1.044282 S    
C1    N1    1.335543 A    
C40   C42   1.405756 A    
N29   O14   1.301188 A    
N24   O8    1.300911 A    
C67   C69   1.393426 A    
C4    N4    1.328280 A    
C42   H18   1.083529 S    
N34   H46   1.043329 S    
C9    C21   1.371954 A    
C5    H3    1.076780 S    
N7    N11   1.406056 A    
C68   N34   1.435861 S    
C31   N17   1.435125 S    
C73   C74   1.422210 A    
C11   N11   1.315130 A    
N12   Ni2   1.891350 S    
N36   O19   1.301560 A    
C8    H6    1.075528 S    
C3    N3    1.323881 A    
C69   N32   1.434813 S    
N31   H39   1.045706 S    
C32   C80   1.418604 A    
C35   H15   1.079554 S    
N7    Ni4   1.893570 S    
C5    C21   1.384102 A    
C67   C74   1.416187 A    
C43   C45   1.404000 A    
N8    Ni3   1.893570 S    
C5    N5    1.341750 A    
C58   N26   1.437317 S    
C6    N6    1.336813 A    
C17   C28   1.445626 S    
N32   H42   1.045641 S    
C6    C22   1.382846 A    
N39   H52   1.044677 S    
C38   N20   1.432367 S    
C18   C27   1.442630 S    
C36   C38   1.398093 A    
N25   O9    1.300844 A    
C35   C37   1.399231 A    
C9    N9    1.322798 A    
C28   C30   1.421441 A    
C36   C46   1.395578 A    
N26   O12   1.301283 A    
C39   C52   1.488027 S    
C57   C64   1.413326 A    
C40   C51   1.489722 S    
C15   C17   1.361262 A    
N10   Ni1   1.866857 S    
C16   H12   1.066093 S    
C61   H20   1.082664 S    
N1    N15   1.388230 A    
N41   H55   1.045488 S    
N27   H36   1.044419 S    
C34   C76   1.404626 A    
C58   C63   1.416694 A    
N30   O16   1.301289 A    
N31   H40   1.044052 S    
C53   N29   1.437165 S    
C2    N2    1.327678 A    
N17   H28   1.044753 S    
N3    N13   1.388230 A    
N23   O6    1.301282 A    
C76   H26   1.080991 S    
N34   H45   1.045503 S    
C41   H17   1.083440 S    
C10   C22   1.380933 A    
C72   H23   1.082552 S    
N8    N12   1.406058 A    
C47   C52   1.388720 A    
C26   C28   1.398732 A    
N42   H57   1.043849 S    
C12   N12   1.316569 A    
C47   C49   1.401422 A    
C8    C24   1.387134 A    
N3    Ni2   1.891623 S    
C25   N41   1.442567 S    
C63   C64   1.423881 A    
N24   O7    1.301296 A    
C21   C65   1.433714 S    
C20   C55   1.419655 S    
N35   O18   1.300776 A    
C32   N18   1.436173 S    
C29   C80   1.485112 S    
N40   H53   1.039992 S    
C15   N15   1.307239 A    
C56   C59   1.383632 A    
C26   N42   1.440968 S    
C62   H19   1.083008 S    
C7    N7    1.326816 A    
C58   C60   1.387977 A    
C1    H1    1.079589 S    
H14   C46   1.082517 S    
C66   C71   1.387232 A    
N18   H30   1.043771 S    
C4    C20   1.369875 A    
C14   N40   1.425502 S    
C65   C72   1.386585 A    
C35   C45   1.395439 A    
N9    Ni2   1.866856 S    
C42   C44   1.405042 A    
N5    N9    1.406058 A    
C70   N31   1.436318 S    
C41   C43   1.405522 A    
C25   C30   1.379058 A    
C62   C64   1.371291 A    
C33   C75   1.404462 A    
N1    Ni1   1.867325 S    
C31   C53   1.411598 A    
C67   N33   1.435079 S    
C39   C41   1.405658 A    
C55   C62   1.384740 A    
N26   O11   1.301242 A    
C75   H25   1.078832 S    
C38   C40   1.412523 A    
C59   H22   1.076080 S    
C55   C60   1.388440 A    
N20   H34   1.043281 S    
C61   C63   1.377067 A    
C50   C52   1.412384 A    
C44   C46   1.403759 A    
C27   C29   1.420477 A    
N30   O15   1.301296 A    
N22   O4    1.301636 A    
N4    Ni1   1.891626 S    
C57   N25   1.435517 S    
N17   H27   1.045486 S    
N16   Ni4   1.893548 S    
N13   Ni4   1.888079 S    
N32   H41   1.044479 S    
N2    N16   1.388232 A    
C78   C80   1.405817 A    
N14   Ni3   1.888077 S    
C11   C23   1.362221 A    
C33   C53   1.417449 A    
C34   N36   1.444748 S    
N38   H50   1.045370 S    
C13   N13   1.334192 A    
C8    N8    1.331039 A    
C24   C49   1.422314 S    
C10   N10   1.330273 A    
C37   N19   1.432257 S    
N20   H33   1.045217 S    
C48   C51   1.378866 A    
C48   N24   1.440868 S    
C23   C50   1.415104 S    
C72   C74   1.389115 A    
N21   O1    1.301712 A    
C57   C59   1.380733 A    
C3    N27   1.430325 S    
C75   C77   1.399641 A    
C34   C54   1.416311 A    
C31   C79   1.416854 A    
C3    C19   1.372585 A    
C43   N21   1.439851 S    
C66   C69   1.403956 A    
N4    N14   1.388232 A    
N28   H37   1.044506 S    
N2    Ni2   1.867324 S    
C49   C51   1.419054 A    
N18   H29   1.045423 S    
C6    H4    1.077031 S    
N37   H47   1.045533 S    
C11   H9    1.076921 S    
N33   H43   1.045047 S    
C12   H10   1.077895 S    
N21   O2    1.301759 A    
C10   H8    1.077316 S    
C1    C17   1.399311 A    
N19   H31   1.045446 S    
C12   C24   1.365367 A    
C56   C61   1.386506 A    
C47   N23   1.439814 S    
C14   N14   1.334714 A    
C7    H5    1.075073 S    
C19   C56   1.416407 S    
N36   O20   1.301174 A    
C14   C20   1.371683 A    
C48   C50   1.396433 A    
N25   O10   1.301025 A    
C77   N37   1.431565 S    
C68   C70   1.388867 A    
N37   H48   1.044525 S    
N40   H54   1.045310 S    
C77   C79   1.401765 A    
C13   N39   1.424993 S    
C71   H24   1.083358 S    
C54   N30   1.436402 S    
C16   N16   1.314175 A    
C9    H7    1.076432 S    
C15   H11   1.056407 S    
C30   C79   1.486835 S    
N11   Ni1   1.891348 S    
N39   H51   1.044117 S    
N41   H56   1.045054 S    
N19   H32   1.043570 S    
N5    Ni3   1.887334 S    
N22   O3    1.301500 A    
C36   H16   1.078567 S    
N6    Ni4   1.887332 S    
C32   C54   1.411042 A    
C68   C73   1.414678 A    
C76   C78   1.395743 A    
N28   H38   1.045479 S    
C71   C73   1.385731 A    
C26   C29   1.392379 A    
C4    N28   1.432181 S    
