data_mof_unit_8767.cif
_audit_creation_date              2013-03-05T15:50:49-0500
_audit_creation_method            fapswitch 2.2
_symmetry_space_group_name_H-M    P1
_symmetry_Int_Tables_number       1
_space_group_crystal_system       triclinic
_cell_length_a                    14.298925
_cell_length_b                    14.790107
_cell_length_c                    33.270784
_cell_angle_alpha                 97.724151
_cell_angle_beta                  90.361478
_cell_angle_gamma                 118.68449
_cell_volume                      6096.34528341

loop_
_atom_site_label
_atom_site_type_symbol
_atom_site_description
_atom_site_fract_x
_atom_site_fract_y
_atom_site_fract_z
_atom_type_partial_charge
O1    O     O_R   0.318160 0.824460 0.443680 -0.491068
O2    O     O_R   0.525040 0.857250 0.449830 -0.465257
C1    C     C_R   0.617772 0.909338 0.437319 0.546303
O3    O     O_R   0.684760 0.998800 0.456360 -0.541896
O4    O     O_R   0.647540 0.166310 0.470260 -0.480207
C2    C     C_R   0.594089 0.205645 0.456581 0.561249
O5    O     O_R   0.500960 0.181750 0.467450 -0.532872
O6    O     O_R   0.331100 0.981120 0.457080 -0.503032
C3    C     C_R   0.295428 0.892919 0.434528 0.575689
O7    O     O_R   0.315560 0.821140 0.532010 -0.489309
O8    O     O_R   0.522630 0.854180 0.531710 -0.516392
C4    C     C_R   0.613808 0.905057 0.551584 0.534681
O9    O     O_R   0.682160 0.995480 0.544690 -0.481843
O10   O     O_R   0.645130 0.163230 0.552140 -0.442142
C5    C     C_R   0.590945 0.201601 0.570837 0.557598
O11   O     O_R   0.498360 0.178430 0.555780 -0.515529
O12   O     O_R   0.328690 0.978040 0.538950 -0.450930
C6    C     C_R   0.286052 0.885345 0.547854 0.576155
Cr1   Cr    Cr6+3 0.424820 0.846020 0.489780 1.023857
Cr2   Cr    Cr6+3 0.657880 0.078580 0.505700 1.076790
Cr3   Cr    Cr6+3 0.417280 0.075360 0.504550 1.073173
O13   O     O_3   0.499990 0.999990 0.500010 -0.269290
C7    C     C_R   0.733730 0.434944 0.101537 0.010942
C8    C     C_R   0.633504 0.365472 0.114356 0.210578
C9    C     C_R   0.629471 0.340072 0.153551 -0.073270
C10   C     C_R   0.723327 0.380271 0.179048 -0.003906
C11   C     C_R   0.822663 0.440795 0.164878 -0.115215
C12   C     C_R   0.827890 0.468117 0.126374 -0.160115
C13   C     C_R   0.756642 0.311053 0.238953 0.145037
C14   C     C_R   0.746769 0.302676 0.280508 -0.026589
C15   C     C_R   0.699875 0.352641 0.304736 0.026661
C16   C     C_R   0.662474 0.411815 0.287753 -0.093138
C17   C     C_R   0.671161 0.421303 0.246697 0.136236
C18   C     C_R   0.716603 0.369705 0.222169 0.064467
C19   C     C_R   0.578524 0.298322 0.359122 -0.174339
C20   C     C_R   0.553573 0.263786 0.396158 -0.166883
C21   C     C_R   0.739425 0.310241 0.412163 0.116188
C22   C     C_R   0.765100 0.347681 0.374518 0.224905
C23   C     C_R   0.682424 0.335933 0.347246 -0.007565
C24   C     C_R   0.631377 0.263823 0.422071 0.010228
H1    H     H_    0.905551 0.520914 0.117118 0.158053
H2    H     H_    0.772312 0.255096 0.294240 0.126348
H3    H     H_    0.553105 0.290848 0.164695 0.159784
H4    H     H_    0.626520 0.450749 0.306464 0.101941
H5    H     H_    0.514818 0.290135 0.338628 0.132205
H6    H     H_    0.471025 0.231239 0.403347 0.142916
H7    H     H_    0.895441 0.472335 0.184603 0.178781
H8    H     H_    0.255443 0.789871 0.175006 0.161807
C25   C     C_R   0.249784 0.882182 0.393099 -0.016169
C26   C     C_R   0.289761 0.972751 0.375010 -0.132596
C27   C     C_R   0.263193 0.968724 0.334279 0.103910
C28   C     C_R   0.194047 0.871574 0.310748 0.003950
C29   C     C_R   0.147117 0.780161 0.328912 0.207440
C30   C     C_R   0.175977 0.785311 0.370304 0.103203
C31   C     C_R   0.203508 0.815153 0.162319 -0.088754
C32   C     C_R   0.182659 0.800501 0.119936 0.209464
C33   C     C_R   0.069987 0.882270 0.130885 -0.144059
C34   C     C_R   0.092278 0.897057 0.172759 -0.117863
C35   C     C_R   0.155387 0.859729 0.188487 -0.015178
C36   C     C_1   0.166936 0.862973 0.231514 0.003260
C37   C     C_1   0.177033 0.865454 0.267583 0.040669
C38   C     C_R   0.109808 0.829029 0.104201 0.012334
H9    H     H_    0.347052 0.047432 0.392104 0.151254
H10   H     H_    0.055676 0.932677 0.192904 0.141915
H11   H     H_    0.013687 0.904263 0.119692 0.182280
H12   H     H_    0.826093 0.990510 0.195625 0.129012
H13   H     H_    0.801018 0.006832 0.401102 0.146024
C39   C     C_R   0.641720 0.874588 0.396591 -0.017585
C40   C     C_R   0.564040 0.784422 0.370785 0.136621
C41   C     C_R   0.575455 0.774275 0.328396 0.134173
C42   C     C_R   0.668706 0.847704 0.313103 0.040282
C43   C     C_R   0.752687 0.928388 0.339759 0.113434
C44   C     C_R   0.737985 0.941367 0.381154 -0.132559
C45   C     C_R   0.769974 0.921638 0.175023 -0.106467
C46   C     C_R   0.782987 0.914200 0.133073 0.197249
C47   C     C_R   0.624129 0.742760 0.122969 -0.134396
C48   C     C_R   0.610814 0.752709 0.164405 -0.112796
C49   C     C_R   0.686064 0.840006 0.190618 -0.015871
C50   C     C_1   0.679617 0.843182 0.233691 -0.027230
C51   C     C_1   0.674627 0.844527 0.269788 0.012236
C52   C     C_R   0.713433 0.819969 0.106928 0.005854
H14   H     H_    0.544647 0.689746 0.176242 0.149411
H15   H     H_    0.567804 0.670757 0.103922 0.169450
H16   H     H_    0.810551 0.302458 0.832139 0.178758
C53   C     C_R   0.627913 0.257006 0.613763 -0.030002
C54   C     C_R   0.561491 0.284484 0.638378 0.084992
C55   C     C_R   0.578863 0.301559 0.680656 -0.115003
C56   C     C_R   0.662677 0.295654 0.699348 -0.058626
C57   C     C_R   0.737691 0.282802 0.675787 0.205576
C58   C     C_R   0.722867 0.267350 0.632840 0.162679
C59   C     C_R   0.752440 0.320004 0.846822 -0.069553
C60   C     C_R   0.759964 0.344593 0.889506 0.205530
C61   C     C_R   0.600906 0.364143 0.883639 -0.152188
C62   C     C_R   0.593614 0.337924 0.841528 -0.117330
C63   C     C_R   0.671650 0.320102 0.822975 -0.009016
C64   C     C_1   0.671721 0.308867 0.779424 0.031499
C65   C     C_1   0.669543 0.302628 0.742946 0.053436
C66   C     C_R   0.687142 0.373868 0.908067 0.010516
H17   H     H_    0.530090 0.337122 0.823268 0.160343
H18   H     H_    0.543244 0.384915 0.896633 0.153705
H19   H     H_    0.524415 0.317032 0.699117 0.203931
C67   C     C_R   0.066804 0.755236 0.907606 0.041781
C68   C     C_R   0.054411 0.830175 0.889582 -0.153755
C69   C     C_R   0.071719 0.838968 0.849054 -0.105615
C70   C     C_R   0.104195 0.774927 0.825837 0.052612
C71   C     C_R   0.125829 0.706086 0.843928 -0.085098
C72   C     C_R   0.107847 0.695723 0.884916 0.126658
C73   C     C_R   0.214032 0.825892 0.766899 0.137334
C74   C     C_R   0.221990 0.837688 0.725582 0.155436
C75   C     C_R   0.128061 0.805838 0.700402 -0.013602
C76   C     C_R   0.027827 0.758619 0.715688 -0.129449
C77   C     C_R   0.018928 0.744003 0.756357 0.111518
C78   C     C_R   0.112481 0.779221 0.782169 0.044618
C79   C     C_R   0.158595 0.910381 0.644758 -0.116575
C80   C     C_R   0.192284 0.929060 0.605775 0.172381
C81   C     C_R   0.171464 0.753393 0.591881 0.097273
C82   C     C_R   0.130645 0.734706 0.629668 -0.113907
C83   C     C_R   0.134491 0.815856 0.657283 -0.044121
C84   C     C_R   0.212122 0.854828 0.580958 0.027495
H20   H     H_    0.025283 0.878621 0.906093 0.138559
H21   H     H_    0.105959 0.659546 0.639036 0.146438
H22   H     H_    0.056848 0.893842 0.835380 0.131931
H23   H     H_    0.956314 0.732373 0.695803 0.129345
H24   H     H_    0.153605 0.970200 0.665826 0.169108
H25   H     H_    0.153726 0.658497 0.825857 0.123016
C85   C     C_R   0.670914 0.739272 0.909164 -0.031119
C86   C     C_R   0.561697 0.687942 0.896568 -0.088797
C87   C     C_R   0.527289 0.686979 0.856664 0.197495
C88   C     C_R   0.604894 0.738023 0.829390 0.132935
C89   C     C_R   0.715134 0.788793 0.842226 0.168065
C90   C     C_R   0.746182 0.788399 0.881742 -0.073182
C91   C     C_R   0.585607 0.835861 0.777962 0.163193
C92   C     C_R   0.598336 0.854627 0.737776 -0.134861
C93   C     C_R   0.595923 0.779569 0.706657 -0.074334
C94   C     C_R   0.573261 0.681473 0.715415 -0.116557
C95   C     C_R   0.563845 0.661087 0.755560 0.180829
C96   C     C_R   0.574737 0.740776 0.787335 -0.028178
C97   C     C_R   0.549677 0.732389 0.631498 -0.131262
C98   C     C_R   0.557133 0.762348 0.593179 -0.135843
C99   C     C_R   0.702630 0.933658 0.620346 -0.100412
C100  C     C_R   0.695558 0.903549 0.658666 -0.104562
C101  C     C_R   0.615581 0.804387 0.664944 0.020143
C102  C     C_R   0.629680 0.865065 0.587789 0.014423
H26   H     H_    0.503671 0.650808 0.917977 0.128365
H27   H     H_    0.830868 0.823955 0.890627 0.140537
H28   H     H_    0.749398 0.959499 0.683846 0.158665
H29   H     H_    0.610197 0.928539 0.730622 0.171759
H30   H     H_    0.569935 0.622776 0.691275 0.152980
H31   H     H_    0.487674 0.655346 0.635407 0.111733
H32   H     H_    0.500892 0.707257 0.568381 0.115187
H33   H     H_    0.759846 0.012828 0.617010 0.201890
O14   O     O_R   0.828710 0.851830 0.052170 -0.444750
O15   O     O_R   0.005980 0.823990 0.047210 -0.500578
C103  C     C_R   0.053099 0.781722 0.063431 0.570271
O16   O     O_R   0.031900 0.688850 0.050170 -0.470683
O17   O     O_R   0.830940 0.518420 0.048680 -0.502251
C104  C     C_R   0.742807 0.483530 0.065122 0.575886
O18   O     O_R   0.668160 0.499860 0.053480 -0.461990
O19   O     O_R   0.689170 0.693840 0.050110 -0.514792
C105  C     C_R   0.742577 0.789498 0.066478 0.553850
O20   O     O_R   0.803860 0.812940 0.962540 -0.502362
O21   O     O_R   0.982950 0.787950 0.964120 -0.518117
C106  C     C_R   0.021383 0.732028 0.947135 0.551020
O22   O     O_R   0.007050 0.649970 0.960540 -0.453144
O23   O     O_R   0.807910 0.482370 0.965590 -0.446765
C107  C     C_R   0.711840 0.436420 0.949414 0.580838
O24   O     O_R   0.643310 0.460980 0.963840 -0.506969
O25   O     O_R   0.666140 0.657800 0.967020 -0.500924
C108  C     C_R   0.711984 0.738715 0.949626 0.545749
Cr4   Cr    Cr6+3 0.903360 0.812540 0.006510 1.087037
Cr5   Cr    Cr6+3 0.914630 0.587050 0.006280 1.138414
Cr6   Cr    Cr6+3 0.673560 0.582680 0.008540 1.074631
O26   O     O_3   0.830520 0.660760 0.007110 -0.289907
N1    N     N_R   0.536354 0.320368 0.088248 0.093007
O27   O     O_R   0.535871 0.289302 0.049707 -0.284447
O28   O     O_R   0.445559 0.296359 0.103780 -0.308657
N2    N     N_2   0.822258 0.327415 0.441277 -0.489210
H34   H     H_    0.887012 0.401670 0.445332 0.275263
C109  C     C_3   0.851850 0.245956 0.439489 -0.215691
H35   H     H_    0.933503 0.273487 0.429216 0.154805
H36   H     H_    0.794730 0.174358 0.418630 0.150192
H37   H     H_    0.852700 0.225958 0.470411 0.181561
N3    N     N_R   0.233778 0.755236 0.093530 0.094864
O29   O     O_R   0.269597 0.698075 0.107042 -0.321870
O30   O     O_R   0.255689 0.780467 0.057416 -0.312306
N4    N     N_R   0.072650 0.682141 0.305131 0.098819
O31   O     O_R   0.094568 0.605827 0.299536 -0.309808
O32   O     O_R   0.989219 0.672995 0.285176 -0.339984
N5    N     N_2   0.124901 0.695643 0.389895 -0.487109
H38   H     H_    0.042826 0.655051 0.384818 0.307804
C110  C     C_3   0.174803 0.630194 0.388328 -0.203094
H39   H     H_    0.184845 0.615462 0.419478 0.158100
H40   H     H_    0.123646 0.553962 0.368882 0.223066
H41   H     H_    0.254383 0.667624 0.376029 0.148453
N6    N     N_2   0.311435 0.062936 0.317188 -0.521315
H42   H     H_    0.321983 0.054991 0.286557 0.260030
C111  C     C_3   0.268152 0.132251 0.328946 -0.304751
H43   H     H_    0.312855 0.204882 0.315584 0.133944
H44   H     H_    0.276183 0.153805 0.362575 0.152769
H45   H     H_    0.182453 0.094214 0.317609 0.160523
N7    N     N_R   0.866741 0.001900 0.117928 0.081863
O33   O     O_R   0.956589 0.061583 0.139990 -0.356209
O34   O     O_R   0.846013 0.033821 0.086146 -0.269011
N8    N     N_2   0.851139 0.998850 0.325231 -0.521244
H46   H     H_    0.869605 0.970778 0.298121 0.254885
C112  C     C_3   0.869045 0.104225 0.326869 -0.285792
H47   H     H_    0.945195 0.151925 0.313526 0.154977
H48   H     H_    0.875494 0.140745 0.358820 0.175147
H49   H     H_    0.802463 0.104007 0.309423 0.136468
N9    N     N_2   0.475742 0.705190 0.387478 -0.491145
H50   H     H_    0.408740 0.658705 0.367864 0.240135
C113  C     C_3   0.503564 0.644570 0.410932 -0.285052
H51   H     H_    0.431333 0.588477 0.424244 0.130078
H52   H     H_    0.564833 0.695765 0.436248 0.160098
H53   H     H_    0.534952 0.600297 0.391125 0.131276
N10   N     N_2   0.492267 0.693483 0.300491 -0.510699
H54   H     H_    0.417253 0.685597 0.303966 0.259201
C114  C     C_3   0.493694 0.595634 0.294363 -0.309660
H55   H     H_    0.460978 0.552825 0.320272 0.134326
H56   H     H_    0.576558 0.609435 0.291324 0.151898
H57   H     H_    0.443502 0.546750 0.266119 0.159229
N11   N     N_R   0.841880 0.340610 0.913259 0.097587
O35   O     O_R   0.931981 0.359063 0.898170 -0.335988
O36   O     O_R   0.821079 0.304220 0.947530 -0.280554
N12   N     N_R   0.874066 0.398382 0.363999 0.054022
O37   O     O_R   0.908824 0.480113 0.345959 -0.309939
O38   O     O_R   0.934542 0.356165 0.367596 -0.409013
N13   N     N_R   0.829118 0.286430 0.695457 0.120820
O39   O     O_R   0.899293 0.372019 0.718109 -0.344549
O40   O     O_R   0.831467 0.200128 0.697025 -0.303779
N14   N     N_R   0.807119 0.269750 0.608838 0.103158
O41   O     O_R   0.841244 0.330823 0.581364 -0.340848
O42   O     O_R   0.853737 0.215674 0.615485 -0.280816
N15   N     N_2   0.476985 0.296729 0.621956 -0.469466
H58   H     H_    0.413839 0.230136 0.606433 0.328144
C115  C     C_3   0.510642 0.388956 0.603075 -0.258490
H59   H     H_    0.552645 0.384484 0.575531 0.151991
H60   H     H_    0.564678 0.459875 0.624926 0.157300
H61   H     H_    0.439527 0.395514 0.594029 0.156167
N16   N     N_2   0.127823 0.623329 0.902400 -0.472830
H62   H     H_    0.119606 0.560896 0.881693 0.270099
C116  C     C_3   0.226878 0.670960 0.927975 -0.240207
H63   H     H_    0.233952 0.610154 0.941913 0.173403
H64   H     H_    0.228630 0.730104 0.952842 0.190487
H65   H     H_    0.296151 0.708660 0.909566 0.164684
N17   N     N_2   0.324881 0.886744 0.710294 -0.514481
H66   H     H_    0.334394 0.940036 0.691483 0.259451
C117  C     C_3   0.363236 0.816151 0.693743 -0.296864
H67   H     H_    0.444616 0.861793 0.683805 0.154797
H68   H     H_    0.310725 0.761770 0.666936 0.144152
H69   H     H_    0.366567 0.770108 0.716903 0.158349
N18   N     N_2   0.307849 0.865047 0.793736 -0.498254
H70   H     H_    0.366147 0.849893 0.781884 0.292433
C118  C     C_3   0.350537 0.972951 0.812161 -0.241280
H71   H     H_    0.379447 0.024678 0.788547 0.164524
H72   H     H_    0.418674 0.994998 0.834573 0.214112
H73   H     H_    0.288622 0.984613 0.828407 0.141929
N19   N     N_2   0.915848 0.696571 0.771504 -0.506390
H74   H     H_    0.860727 0.709546 0.756767 0.260248
C119  C     C_3   0.873555 0.587384 0.774612 -0.252954
H75   H     H_    0.796671 0.558792 0.789032 0.191182
H76   H     H_    0.929613 0.575678 0.793688 0.167224
H77   H     H_    0.858915 0.540885 0.743835 0.176850
N20   N     N_R   0.203964 0.021755 0.591966 0.080425
O43   O     O_R   0.169950 0.016279 0.554873 -0.313853
O44   O     O_R   0.222901 0.103223 0.618316 -0.345691
N21   N     N_2   0.174099 0.670439 0.565633 -0.480158
H78   H     H_    0.099290 0.606272 0.558356 0.268579
C120  C     C_3   0.251462 0.641842 0.579127 -0.276824
H79   H     H_    0.225756 0.602188 0.606272 0.135287
H80   H     H_    0.331258 0.712103 0.586792 0.165291
H81   H     H_    0.258536 0.587653 0.554376 0.149117
N22   N     N_2   0.804892 0.261432 0.213490 -0.503306
H82   H     H_    0.770544 0.231461 0.184081 0.274565
C121  C     C_3   0.848033 0.202597 0.230301 -0.287274
H83   H     H_    0.890326 0.179079 0.206820 0.188992
H84   H     H_    0.782308 0.131132 0.239569 0.123645
H85   H     H_    0.907246 0.251477 0.256511 0.179880
N23   N     N_R   0.590116 0.916136 0.809142 0.062482
O45   O     O_R   0.632746 0.012449 0.802773 -0.349209
O46   O     O_R   0.542607 0.892396 0.842380 -0.344255
N24   N     N_2   0.415530 0.639693 0.845099 -0.513285
H86   H     H_    0.395277 0.661872 0.819798 0.267641
C122  C     C_3   0.355027 0.528430 0.845325 -0.288870
H87   H     H_    0.269143 0.500605 0.837042 0.153564
H88   H     H_    0.361955 0.509671 0.876027 0.149611
H89   H     H_    0.383773 0.486674 0.822823 0.203018
N25   N     N_R   0.548807 0.561509 0.763306 0.065109
O47   O     O_R   0.594742 0.553535 0.795504 -0.389668
O48   O     O_R   0.496503 0.478972 0.735971 -0.363271
N26   N     N_2   0.796236 0.835703 0.815173 -0.521977
H90   H     H_    0.774024 0.810943 0.784507 0.253827
C123  C     C_3   0.863670 0.947536 0.825222 -0.276578
H91   H     H_    0.925530 0.974939 0.803088 0.146775
H92   H     H_    0.905256 0.969010 0.856081 0.155173
H93   H     H_    0.815126 0.987430 0.823750 0.211877
N27   N     N_2   0.632728 0.481812 0.229775 -0.525274
H94   H     H_    0.562936 0.474529 0.241041 0.240832
C124  C     C_3   0.712865 0.589273 0.229604 -0.272308
H95   H     H_    0.743330 0.630319 0.261249 0.165197
H96   H     H_    0.677019 0.629497 0.214693 0.144666
H97   H     H_    0.780660 0.593473 0.212343 0.184238

loop_
_geom_bond_atom_site_label_1
_geom_bond_atom_site_label_2
_geom_bond_distance
_ccdc_geom_bond_type
O23   Cr5   1.923769 S    
H8    C31   1.083758 S    
C55   C56   1.391529 A    
O14   C105  1.276233 A    
O23   C107  1.278553 A    
N6    C111  1.446163 S    
C30   N5    1.423247 S    
C31   C35   1.398170 A    
C82   C83   1.388267 A    
N7    O34   1.301300 A    
N7    O33   1.301443 A    
C19   C23   1.394956 A    
C63   C64   1.436177 S    
C99   C102  1.401818 A    
C87   N24   1.427557 S    
C29   N4    1.435509 S    
C81   N21   1.423395 S    
C8    N1    1.438281 S    
C87   C88   1.420362 A    
C75   C83   1.460894 S    
N13   O40   1.300804 A    
C79   C80   1.402507 A    
C46   N7    1.436203 S    
C60   C66   1.422006 A    
C94   C95   1.401647 A    
O4    Cr2   1.920674 S    
C48   C49   1.391836 A    
C117  H67   1.108996 S    
N13   O39   1.300737 A    
C4    O9    1.275506 A    
Cr5   O26   1.971467 S    
C71   H25   1.083874 S    
O8    Cr1   1.919588 S    
C10   C11   1.393706 A    
C123  H91   1.110541 S    
C73   N18   1.425594 S    
C48   H14   1.083955 S    
C70   C78   1.465830 S    
O17   C104  1.270422 A    
N26   C123  1.446917 S    
C1    C39   1.484996 S    
N10   C114  1.444123 S    
O21   C106  1.272811 A    
C123  H93   1.110348 S    
C28   C37   1.438532 S    
N3    O30   1.301597 A    
C14   C15   1.402785 A    
C112  H48   1.107676 S    
C69   H22   1.083772 S    
C71   C72   1.404325 A    
C5    O11   1.277106 A    
H12   C45   1.082617 S    
C7    C104  1.465449 S    
C12   H1    1.083633 S    
C85   C90   1.399495 A    
C73   C74   1.407279 A    
O6    C3    1.272072 A    
N5    C110  1.448740 S    
N27   H94   1.029763 S    
C111  H44   1.110850 S    
C82   H21   1.084121 S    
N1    O27   1.301488 A    
C77   C78   1.412338 A    
C118  H72   1.110001 S    
C67   C68   1.409014 A    
C39   C40   1.416884 A    
C98   C102  1.406746 A    
C10   C18   1.462706 S    
C104  O18   1.270857 A    
C106  O22   1.273483 A    
C115  H60   1.111593 S    
C91   C92   1.397185 A    
N2    C109  1.450703 S    
O15   Cr4   1.920988 S    
C116  H64   1.111072 S    
N23   O45   1.301851 A    
C8    C9    1.398869 A    
C20   H6    1.082230 S    
C41   C42   1.408281 A    
H13   C44   1.082726 S    
H16   C59   1.083718 S    
C112  H47   1.110527 S    
C56   C65   1.439629 S    
C117  H69   1.109737 S    
C43   N8    1.427291 S    
C109  H37   1.109585 S    
O20   C108  1.263831 A    
N26   H90   1.029449 S    
C35   C36   1.431735 S    
C113  H51   1.110474 S    
C52   C105  1.487378 S    
C55   H19   1.084014 S    
Cr3   O13   1.971475 S    
C17   N27   1.422522 S    
C13   N22   1.434793 S    
C26   H9    1.082221 S    
N27   C124  1.446837 S    
C98   H32   1.083148 S    
C9    H3    1.083692 S    
C111  H43   1.110397 S    
C100  C101  1.406294 A    
N15   C115  1.445975 S    
C21   C22   1.416764 A    
C27   N6    1.426871 S    
C119  H77   1.111359 S    
C47   H15   1.083100 S    
C69   C70   1.392675 A    
C17   C18   1.409193 A    
C117  H68   1.106852 S    
O12   C6    1.283773 A    
C2    O5    1.271850 A    
C122  H89   1.110899 S    
C97   H31   1.082967 S    
C34   H10   1.083931 S    
C22   C23   1.413487 A    
N12   O38   1.299640 A    
C53   C58   1.425950 A    
N17   C117  1.446741 S    
O1    Cr1   2.037727 S    
C116  H65   1.111950 S    
C45   C46   1.405835 A    
C76   H23   1.084151 S    
C27   C28   1.406805 A    
O10   Cr2   1.921121 S    
C33   C38   1.407590 A    
C121  H85   1.110670 S    
C3    C25   1.476978 S    
C47   C48   1.390713 A    
C66   C107  1.486995 S    
C119  H76   1.109794 S    
C115  H59   1.110721 S    
C97   C101  1.401837 A    
C33   H11   1.082925 S    
C59   C60   1.407953 A    
C49   C50   1.432529 S    
C67   C106  1.478969 S    
N6    H42   1.030490 S    
C118  H73   1.110540 S    
C26   C27   1.390835 A    
C39   C44   1.405058 A    
C53   C54   1.424364 A    
C13   C18   1.412473 A    
O12   Cr3   1.922797 S    
C1    O3    1.272757 A    
C75   C76   1.394411 A    
C16   C17   1.392080 A    
C36   C37   1.201311 T    
C6    C84   1.491515 S    
C19   C20   1.380704 A    
N25   O48   1.301216 A    
C73   C78   1.408718 A    
C89   N26   1.430035 S    
C111  H45   1.111623 S    
N19   C119  1.446533 S    
C124  H95   1.111461 S    
C110  H40   1.109543 S    
N3    O29   1.301575 A    
N20   O43   1.301493 A    
C13   C14   1.406592 A    
C93   C101  1.477367 S    
C92   C93   1.399752 A    
O14   Cr4   2.040460 S    
C114  H56   1.109354 S    
O19   C105  1.277442 A    
O21   Cr4   1.922555 S    
C113  H53   1.110989 S    
C20   C24   1.402916 A    
O7    Cr1   2.040853 S    
C7    C8    1.415422 A    
N10   H54   1.030802 S    
C114  H55   1.109179 S    
C64   C65   1.203807 T    
Cr1   O13   1.973388 S    
C31   C32   1.405273 A    
N16   C116  1.446450 S    
N22   H82   1.031243 S    
N24   H86   1.030736 S    
O1    C3    1.273222 A    
C67   C72   1.418422 A    
N14   O42   1.300135 A    
C61   C62   1.391958 A    
C54   N15   1.421177 S    
C7    C12   1.406834 A    
C56   C57   1.402653 A    
N11   O36   1.301477 A    
C124  H96   1.109773 S    
C61   H18   1.083074 S    
C103  O16   1.268468 A    
C79   C83   1.393846 A    
C100  H28   1.083153 S    
N2    H34   1.031540 S    
C22   N12   1.438150 S    
C92   H29   1.083006 S    
O20   Cr4   2.036787 S    
N9    C113  1.448292 S    
O25   C108  1.278545 A    
N14   O41   1.301549 A    
C121  H83   1.109885 S    
N8    C112  1.446163 S    
C74   N17   1.426035 S    
C94   H30   1.083257 S    
C62   C63   1.393872 A    
C80   C84   1.423314 A    
C122  H88   1.109766 S    
C120  H80   1.110697 S    
C107  O24   1.274097 A    
C25   C26   1.403310 A    
C32   C38   1.418316 A    
C58   N14   1.438416 S    
C34   C35   1.393871 A    
N15   H58   1.027484 S    
Cr2   O13   1.974897 S    
C57   N13   1.432719 S    
N4    O32   1.301244 A    
C86   C87   1.408828 A    
C95   N25   1.442362 S    
C11   C12   1.386112 A    
C77   N19   1.424911 S    
Cr6   O26   1.975108 S    
C114  H57   1.109755 S    
N18   C118  1.446535 S    
C88   C89   1.414217 A    
C70   C71   1.399763 A    
C11   H7    1.083653 S    
N5    H38   1.029628 S    
C91   N23   1.443785 S    
C57   C58   1.414470 A    
N17   H66   1.030646 S    
C122  H87   1.110629 S    
O19   Cr6   1.923084 S    
O17   Cr5   1.921594 S    
O9    Cr2   2.036279 S    
N12   O37   1.300216 A    
O2    Cr1   1.924256 S    
C54   C55   1.394233 A    
C14   H2    1.080925 S    
C15   C16   1.396309 A    
C46   C52   1.421529 A    
C113  H52   1.110306 S    
C43   C44   1.396099 A    
O6    Cr3   1.921073 S    
C47   C52   1.411397 A    
C42   C51   1.439904 S    
N21   H78   1.031475 S    
C81   C84   1.425722 A    
O11   Cr3   2.037934 S    
C29   C30   1.416702 A    
O24   Cr6   2.040494 S    
C32   N3    1.440178 S    
C109  H35   1.109891 S    
C21   C24   1.419845 A    
C21   N2    1.426950 S    
C72   N16   1.423139 S    
C93   C94   1.399425 A    
N24   C122  1.446789 S    
C4    C102  1.472836 S    
C5    C53   1.500223 S    
C90   H27   1.082891 S    
C41   N10   1.424107 S    
N25   O47   1.300906 A    
C121  H84   1.110473 S    
C118  H71   1.111522 S    
C60   N11   1.437730 S    
O2    C1    1.279643 A    
C9    C10   1.399395 A    
C110  H41   1.109406 S    
C79   H24   1.083364 S    
C42   C43   1.406787 A    
C123  H92   1.109923 S    
C85   C108  1.467915 S    
C76   C77   1.395750 A    
C74   C75   1.414191 A    
C119  H75   1.110177 S    
O5    Cr3   2.040730 S    
N21   C120  1.448479 S    
C112  H49   1.110357 S    
O18   Cr6   2.035914 S    
C33   C34   1.391386 A    
O4    C2    1.274111 A    
C62   H17   1.083989 S    
O7    C6    1.269065 A    
C85   C86   1.399627 A    
C99   C100  1.394649 A    
C116  H63   1.110369 S    
N11   O35   1.301451 A    
C99   H33   1.081287 S    
N16   H62   1.031948 S    
N22   C121  1.446505 S    
C68   H20   1.082686 S    
C15   C23   1.470681 S    
C81   C82   1.394789 A    
C89   C90   1.386661 A    
C2    C24   1.475067 S    
C86   H26   1.082868 S    
N23   O46   1.301000 A    
C40   C41   1.416913 A    
C110  H39   1.109522 S    
C124  H97   1.110042 S    
N1    O28   1.301485 A    
C97   C98   1.393316 A    
C59   C63   1.397972 A    
C50   C51   1.201620 T    
O3    Cr2   2.038985 S    
O16   Cr5   2.040958 S    
O25   Cr6   1.917756 S    
C88   C96   1.473051 S    
N8    H46   1.031113 S    
C16   H4    1.084116 S    
N20   O44   1.301373 A    
N9    H50   1.027421 S    
C45   C49   1.397172 A    
C120  H81   1.110014 S    
N19   H74   1.031538 S    
C68   C69   1.384486 A    
O10   C5    1.281645 A    
C80   N20   1.438409 S    
O22   Cr5   2.038078 S    
C38   C103  1.474232 S    
C40   N9    1.428022 S    
C91   C96   1.416979 A    
C109  H36   1.111349 S    
N4    O31   1.300251 A    
C120  H79   1.111011 S    
C61   C66   1.409741 A    
C115  H61   1.110253 S    
C95   C96   1.420475 A    
C25   C30   1.409964 A    
O8    C4    1.271532 A    
C28   C29   1.413246 A    
N18   H70   1.029731 S    
O15   C103  1.275321 A    
Cr4   O26   1.972898 S    
C19   H5    1.083271 S    
