data_mof_unit_31297.cif
_audit_creation_date              2013-03-05T16:10:05-0500
_audit_creation_method            fapswitch 2.2
_symmetry_space_group_name_H-M    P1
_symmetry_Int_Tables_number       1
_space_group_crystal_system       triclinic
_cell_length_a                    8.336106
_cell_length_b                    15.086108
_cell_length_c                    19.136445
_cell_angle_alpha                 102.398102
_cell_angle_beta                  92.153857
_cell_angle_gamma                 98.20653
_cell_volume                      2320.59374791

loop_
_atom_site_label
_atom_site_type_symbol
_atom_site_description
_atom_site_fract_x
_atom_site_fract_y
_atom_site_fract_z
_atom_type_partial_charge
P1    P     P_3+3 0.041310 0.408750 0.334260 0.475709
O1    O     O_2   0.873950 0.434950 0.324050 -0.339825
O2    O     O_3   0.122400 0.443310 0.412980 -0.413004
O3    O     O_3   0.662890 0.605900 0.373340 -0.293995
O4    O     O_2   0.703176 0.525943 0.240842 -0.403969
O5    O     O_3   0.002713 0.288684 0.315213 -0.594232
O6    O     O_3   0.683534 0.700594 0.255593 -0.556019
C1    C     C_3   0.584981 0.827731 0.221252 -0.830564
H1    H     H_    0.709577 0.861264 0.217051 0.207541
P2    P     P_3+3 0.676060 0.715830 0.563200 0.511145
P3    P     P_3+3 0.139768 0.774519 0.418607 0.510764
O7    O     O_2   0.851830 0.727540 0.542170 -0.307652
O8    O     O_3   0.085020 0.656200 0.410840 -0.306916
O9    O     O_2   0.991910 0.822887 0.441340 -0.361604
O10   O     O_3   0.706287 0.734550 0.656156 -0.617606
O11   O     O_3   0.184518 0.793144 0.332817 -0.626134
C2    C     C_3   0.048767 0.770151 0.282681 0.179597
H2    H     H_    0.936140 0.780619 0.309331 0.157888
C3    C     C_3   0.071581 0.833455 0.228577 -0.592522
C4    C     C_3   0.277262 0.756910 0.742274 0.300810
H3    H     H_    0.320065 0.708130 0.771937 0.093881
C5    C     C_3   0.184050 0.824629 0.791979 -0.661277
H4    H     H_    0.253167 0.895664 0.806120 0.221746
H5    H     H_    0.068321 0.830868 0.764149 0.221862
Ba1   Ba    Ba6+2 0.853900 0.540470 0.466700 1.628330
C6    C     C_3   0.957739 0.258384 0.376946 0.303673
H6    H     H_    0.841086 0.280588 0.392988 0.093094
H7    H     H_    0.051353 0.285493 0.422059 0.155021
C7    C     C_3   0.941268 0.154009 0.360870 -0.742595
H8    H     H_    0.923063 0.129185 0.410899 0.201039
H9    H     H_    0.055233 0.132632 0.339780 0.222952
C8    C     C_3   0.723971 0.652918 0.676505 0.453498
H10   H     H_    0.604935 0.608393 0.671479 0.151421
C9    C     C_3   0.788470 0.676753 0.754270 -1.040327
H11   H     H_    0.921285 0.692678 0.757024 0.226888
H12   H     H_    0.754628 0.617807 0.779420 0.255136
H13   H     H_    0.743169 0.738316 0.784512 0.294494
P4    P     P_3+3 0.148400 0.591330 0.665750 0.484246
O12   O     O_2   0.315750 0.565080 0.676000 -0.391976
O13   O     O_3   0.067310 0.556770 0.587020 -0.361374
O14   O     O_3   0.526830 0.394180 0.626670 -0.368241
O15   O     O_3   0.180316 0.712221 0.678520 -0.517194
P5    P     P_3+3 0.062335 0.226084 0.585108 0.431587
O16   O     O_3   0.609740 0.386310 0.459940 -0.405176
O17   O     O_3   0.104690 0.343880 0.589170 -0.388548
O18   O     O_2   0.176529 0.180111 0.532012 -0.393158
O19   O     O_3   0.127403 0.205511 0.667476 -0.515172
Ba2   Ba    Ba6+2 0.335940 0.459610 0.533310 1.586872
P6    P     P_3+3 0.609785 0.599362 0.282639 0.495711
C10   C     C_3   0.585656 0.769512 0.278090 0.268625
H14   H     H_    0.457363 0.741075 0.283499 0.072874
O20   O     O_3   0.579970 0.613770 0.540070 -0.419548
C11   C     C_3   0.442381 0.298673 0.310764 0.355517
H15   H     H_    0.344360 0.329196 0.340486 0.099964
H16   H     H_    0.544272 0.354004 0.308555 0.094698
C12   C     C_3   0.372456 0.252982 0.235054 -0.837461
H17   H     H_    0.267256 0.199414 0.236734 0.285214
H18   H     H_    0.330913 0.304767 0.208397 0.214277
H19   H     H_    0.466305 0.220519 0.203552 0.269037
P7    P     P_3+3 0.517498 0.270402 0.435115 0.443352
O21   O     O_2   0.337870 0.272490 0.457870 -0.385993
O22   O     O_3   0.499759 0.232007 0.341878 -0.527654
H20   H     H_    0.193601 0.830358 0.208624 0.202643
C13   C     C_3   0.071392 0.267906 0.722941 0.472790
H21   H     H_    0.135331 0.338732 0.726027 0.138414
H22   H     H_    0.938898 0.265654 0.714489 0.000807
C14   C     C_3   0.104135 0.241683 0.794162 -0.941160
H23   H     H_    0.236379 0.251124 0.808427 0.288399
H24   H     H_    0.047896 0.285653 0.837557 0.216815
H25   H     H_    0.052624 0.168759 0.790791 0.255300
P8    P     P_3+3 0.571967 0.398075 0.716822 0.429998
C15   C     C_3   0.552350 0.223046 0.714629 0.309856
H26   H     H_    0.673119 0.242429 0.695145 -0.078906
O23   O     O_2   0.487371 0.476817 0.757153 -0.400742
O24   O     O_3   0.471449 0.298873 0.739253 -0.529533
C16   C     C_3   0.577791 0.175784 0.777098 -0.584762
H27   H     H_    0.458374 0.149859 0.795254 0.240030
H28   H     H_    0.644742 0.226725 0.823187 0.155436
C17   C     C_R   0.062019 0.550112 0.802267 -0.340456
H29   H     H_    0.146188 0.610657 0.826994 0.143288
C18   C     C_R   0.025111 0.533161 0.727009 0.262304
C19   C     C_R   0.860426 0.421115 0.807130 -0.353022
H30   H     H_    0.804211 0.366970 0.830786 0.145638
C20   C     C_R   0.792613 0.426474 0.740512 0.220946
C21   C     C_R   0.325218 0.565539 0.190467 -0.345639
H31   H     H_    0.377592 0.620984 0.166937 0.140896
C22   C     C_R   0.395763 0.559706 0.256505 0.235703
C23   C     C_R   0.126723 0.435436 0.195726 -0.268189
H32   H     H_    0.037791 0.375910 0.172511 0.134337
C24   C     C_R   0.167489 0.454289 0.270546 0.343923
C25   C     C_R   0.990403 0.488297 0.843900 0.129508
C26   C     C_R   0.886715 0.471876 0.697251 -0.395403
H33   H     H_    0.843945 0.465668 0.642096 0.142623
C27   C     C_R   0.197500 0.496566 0.153695 0.145595
C28   C     C_R   0.309956 0.510498 0.298792 -0.401546
H34   H     H_    0.356708 0.514174 0.353074 0.143700
C29   C     C_R   0.759857 0.447056 0.952870 -0.258314
C30   C     C_R   0.652913 0.400067 0.990968 -0.071955
C31   C     C_R   0.698169 0.397986 0.060984 0.021530
C32   C     C_R   0.852142 0.441916 0.090136 -0.283541
C33   C     C_R   0.976460 0.466682 0.046302 0.097829
C34   C     C_R   0.928080 0.468324 0.973418 0.102871
C35   C     C_R   0.142779 0.491354 0.074022 -0.044968
C36   C     C_R   0.257844 0.516169 0.025033 0.104104
C37   C     C_R   0.209525 0.519217 0.952583 0.042876
C38   C     C_R   0.043508 0.493295 0.924122 -0.061263
C39   C     C_R   0.425921 0.537582 0.046168 -0.144685
C40   C     C_R   0.532241 0.587459 0.010072 -0.248047
C41   C     C_R   0.484679 0.595021 0.942148 0.036013
C42   C     C_R   0.333840 0.548607 0.910678 -0.118336
H35   H     H_    0.705940 0.467367 0.907998 0.150754
H36   H     H_    0.529240 0.374974 0.968684 0.168711
H37   H     H_    0.869442 0.457552 0.147236 0.181180
H38   H     H_    0.479351 0.517684 0.091166 0.158045
H39   H     H_    0.320028 0.535497 0.853668 0.180601
C43   C     C_R   0.850344 0.175756 0.551064 0.159719
C44   C     C_R   0.782941 0.083311 0.547970 -0.053837
C45   C     C_R   0.639657 0.899328 0.547455 -0.019624
C46   C     C_R   0.792854 0.939743 0.585335 -0.065888
C47   C     C_R   0.864736 0.027555 0.581156 -0.187516
C48   C     C_R   0.569987 0.804668 0.538109 0.278753
H40   H     H_    0.981995 0.054268 0.609364 0.212883
C49   C     C_R   0.413361 0.773076 0.505544 -0.326616
C50   C     C_R   0.612231 0.194802 0.482179 0.245671
C51   C     C_R   0.543561 0.102586 0.478096 -0.020110
C52   C     C_R   0.626733 0.047325 0.513503 0.009512
C53   C     C_R   0.392324 0.065007 0.441342 -0.027629
C54   C     C_R   0.319047 0.977286 0.443086 -0.162294
C55   C     C_R   0.397613 0.920942 0.478153 -0.012441
C56   C     C_R   0.554479 0.955839 0.513419 0.080606
C57   C     C_R   0.326089 0.829539 0.476100 0.241361
C58   C     C_R   0.760437 0.231037 0.521067 -0.523177
H41   H     H_    0.199768 0.954720 0.415925 0.170529
H42   H     H_    0.326187 0.103124 0.411662 0.180973
H43   H     H_    0.361517 0.701594 0.499479 0.152955
H44   H     H_    0.811674 0.301898 0.523871 0.171759
C59   C     C_2   0.655315 0.828304 0.349172 0.432715
H45   H     H_    0.688718 0.902133 0.357070 0.037001
O25   O     O_2   0.675403 0.792686 0.399336 -0.551633
C60   C     C_2   0.150147 0.796936 0.861502 0.552374
H46   H     H_    0.026176 0.776912 0.873948 0.046143
O26   O     O_2   0.261756 0.797332 0.904799 -0.510412
C61   C     C_2   0.801969 0.111647 0.306945 0.694072
H47   H     H_    0.807640 0.119354 0.251967 0.073170
O27   O     O_2   0.681119 0.068718 0.324705 -0.613704
H48   H     H_    0.809712 0.615900 0.643194 0.103017
C62   C     C_2   0.484451 0.903098 0.238510 0.707110
H49   H     H_    0.428613 0.916826 0.289259 0.059227
O28   O     O_2   0.467672 0.951239 0.195810 -0.479404
H50   H     H_    0.539290 0.782451 0.168368 0.240404
C63   C     C_2   0.452034 0.160172 0.651702 0.623823
H51   H     H_    0.434635 0.185736 0.603888 0.044690
O29   O     O_2   0.389068 0.082426 0.653324 -0.537585
C64   C     C_2   0.675126 0.098829 0.756865 0.638654
H52   H     H_    0.789267 0.110150 0.732474 -0.036319
O30   O     O_2   0.626173 0.023034 0.767476 -0.560000
C65   C     C_2   0.582179 0.356725 0.105959 0.481378
H53   H     H_    0.619568 0.356619 0.160844 0.041961
O31   O     O_2   0.444241 0.321836 0.082154 -0.588746
C66   C     C_2   0.038136 0.671792 0.243854 0.654316
H54   H     H_    0.062758 0.654126 0.187769 -0.092479
O32   O     O_2   0.001989 0.610480 0.275024 -0.504746
H55   H     H_    0.654911 0.614377 0.033099 0.144632
C67   C     C_2   0.592642 0.650824 0.904143 0.571942
H56   H     H_    0.721884 0.667799 0.919686 -0.003711
O33   O     O_2   0.535547 0.682604 0.857142 -0.605143
C68   C     C_2   0.871748 0.903655 0.641031 0.618962
H57   H     H_    0.805804 0.892151 0.686714 0.053779
O34   O     O_2   0.014448 0.893560 0.639100 -0.515291
C69   C     C_2   0.956108 0.803617 0.162220 0.461162
H58   H     H_    0.859996 0.745386 0.156145 0.059599
O35   O     O_2   0.971032 0.844458 0.113660 -0.504817
C70   C     C_2   0.057734 0.930507 0.265197 0.742033
H59   H     H_    0.951077 0.945043 0.293644 -0.082329
O36   O     O_2   0.165740 0.993497 0.263278 -0.575242
C71   C     C_2   0.425589 0.811779 0.722055 0.648203
H60   H     H_    0.540894 0.817859 0.752014 0.019016
O37   O     O_2   0.414782 0.856214 0.676231 -0.535133

loop_
_geom_bond_atom_site_label_1
_geom_bond_atom_site_label_2
_geom_bond_distance
_ccdc_geom_bond_type
P4    O13   1.576132 S    
C37   C42   1.413352 A    
C65   H53   1.084680 S    
C46   C68   1.470922 S    
C9    H13   1.107184 S    
P6    C22   1.814055 S    
C11   H16   1.111502 S    
C62   H49   1.085276 S    
C3    C69   1.510177 S    
C15   C16   1.540310 S    
P2    C48   1.841561 S    
P2    O20   1.592735 S    
C54   C55   1.404497 A    
C29   C30   1.385341 A    
C10   C59   1.499901 S    
C24   C28   1.374439 A    
C68   O34   1.221566 D    
O5    C6    1.400475 S    
C11   H15   1.110452 S    
C43   C44   1.415118 A    
C59   O25   1.213830 D    
C6    H6    1.106053 S    
C33   C34   1.443587 A    
C16   H28   1.108805 S    
C67   H56   1.085922 S    
C62   O28   1.220654 D    
C60   O26   1.220863 D    
P4    O15   1.766877 S    
P2    O10   1.742939 S    
Ba1   O13   2.801948 S    
P4    O12   1.520513 D    
C29   H35   1.075429 S    
P3    O9    1.549728 D    
O17   Ba2   2.811135 S    
C8    H48   1.106546 S    
C69   H58   1.084146 S    
C52   C56   1.424523 A    
C61   H47   1.085038 S    
C7    C61   1.495532 S    
C5    C60   1.502550 S    
O2    Ba2   2.802742 S    
C40   C41   1.377532 A    
C50   C58   1.393699 A    
P7    O22   1.747224 S    
P1    O1    1.520161 D    
C21   C27   1.422820 A    
P7    C50   1.838545 S    
C2    C66   1.498612 S    
C45   C46   1.430539 A    
C26   H33   1.081501 S    
C18   C26   1.389285 A    
C61   O27   1.218115 D    
C28   H34   1.082897 S    
C3    H20   1.103500 S    
C1    H1    1.102232 S    
C22   C28   1.366554 A    
C63   H51   1.079108 S    
C53   H42   1.079084 S    
C44   C52   1.416070 A    
C17   C25   1.434101 A    
C64   O30   1.219819 D    
C29   C34   1.414219 A    
C58   H44   1.082318 S    
O14   P8    1.738579 S    
C71   O37   1.220723 D    
C65   O31   1.221323 D    
C70   H59   1.084309 S    
P1    Ba1   3.440064 S    
C25   C38   1.564637 S    
O4    P6    1.544401 D    
C15   O24   1.413539 S    
Ba1   O16   2.840386 S    
C36   C37   1.441266 A    
C47   H40   1.078763 S    
O3    Ba1   2.773750 S    
C70   O36   1.219925 D    
C40   H55   1.084210 S    
C23   C27   1.429816 A    
C30   H36   1.083622 S    
C21   C22   1.399025 A    
C14   H23   1.107224 S    
C13   C14   1.524110 S    
O10   C8    1.394061 S    
C60   H46   1.084544 S    
O6    P6    1.753112 S    
C44   C47   1.391519 A    
O19   C13   1.401550 S    
C17   C18   1.421342 A    
O11   C2    1.408839 S    
C10   H14   1.111272 S    
C21   H31   1.079473 S    
C19   C25   1.420997 A    
P1    O5    1.748880 S    
C49   H43   1.082861 S    
P7    O21   1.577784 D    
P1    O2    1.575962 S    
C45   C48   1.433308 A    
C8    C9    1.512559 S    
C1    H50   1.111646 S    
C3    C70   1.503954 S    
C39   H38   1.072534 S    
C7    H8    1.108381 S    
C45   C56   1.425381 A    
P5    C43   1.855220 S    
P3    O11   1.768478 S    
C31   C32   1.393723 A    
C43   C58   1.392263 A    
O2    Ba1   2.945764 S    
C9    H11   1.095692 S    
C15   C63   1.502155 S    
C4    H3    1.109124 S    
C2    H2    1.100101 S    
C16   H27   1.112582 S    
P5    O17   1.745909 S    
Ba1   Ba2   4.576240 S    
C64   H52   1.083318 S    
P2    O7    1.530045 D    
C6    C7    1.523155 S    
P2    Ba1   3.440096 S    
C71   H60   1.082516 S    
C4    C5    1.554709 S    
C27   C35   1.557190 S    
C30   C31   1.386353 A    
C19   C20   1.398013 A    
C31   C65   1.477793 S    
P4    C18   1.864250 S    
C51   C52   1.416722 A    
C5    H5    1.109967 S    
C1    C62   1.495220 S    
C12   H17   1.110910 S    
C39   C40   1.381176 A    
C53   C54   1.383930 A    
P1    C24   1.820646 S    
C1    C10   1.538068 S    
C68   H57   1.081932 S    
P8    C20   1.844224 S    
C59   H45   1.084863 S    
C11   C12   1.518876 S    
O13   Ba2   2.946627 S    
C49   C57   1.387271 A    
P4    Ba2   3.440676 S    
C66   O32   1.213675 D    
C32   H37   1.066852 S    
O6    C10   1.417189 S    
C23   C24   1.416810 A    
C15   H26   1.108620 S    
O8    Ba1   2.810473 S    
C41   C67   1.464053 S    
P3    C57   1.850188 S    
P8    O23   1.546118 D    
C4    O15   1.418884 S    
C46   C47   1.393877 A    
C37   C38   1.436039 A    
O7    Ba1   2.883790 S    
C6    H7    1.108234 S    
C12   H19   1.110565 S    
O3    P6    1.753463 S    
C14   H25   1.109697 S    
C8    H10   1.104489 S    
C67   O33   1.217995 D    
C55   C56   1.423770 A    
Ba1   O20   2.950210 S    
C7    H9    1.108973 S    
C54   H41   1.078551 S    
C66   H54   1.083698 S    
P8    O24   1.752433 S    
P3    O8    1.750698 S    
Ba2   O21   2.884091 S    
C4    C71   1.498359 S    
C69   O35   1.221189 D    
O16   P7    1.762541 S    
C13   H21   1.112297 S    
C16   C64   1.501867 S    
C32   C33   1.416543 A    
C2    C3    1.551686 S    
O14   Ba2   2.773148 S    
C12   H18   1.107051 S    
C34   C38   1.440500 A    
O1    Ba1   2.873704 S    
C9    H12   1.106512 S    
C63   O29   1.221998 D    
P5    O18   1.542134 D    
C48   C49   1.397816 A    
C17   H29   1.075634 S    
Ba2   O20   2.839738 S    
C23   H32   1.080404 S    
C11   O22   1.402806 S    
C33   C35   1.433460 A    
C19   H30   1.075739 S    
C35   C36   1.433464 A    
C51   C53   1.401282 A    
C5    H4    1.114040 S    
O12   Ba2   2.874273 S    
C20   C26   1.381576 A    
C14   H24   1.109461 S    
C41   C42   1.394523 A    
P5    O19   1.751832 S    
C42   H39   1.064891 S    
C36   C39   1.415315 A    
O16   Ba2   2.949294 S    
C13   H22   1.104855 S    
C50   C51   1.411308 A    
C55   C57   1.413756 A    
